MODEL 1
REMARK VINA RESULT:      -7.9      0.000      0.000
REMARK  Name = 
REMARK  9 active torsions:
REMARK  status: ('A' for Active; 'I' for Inactive)
REMARK    1  A    between atoms: C_1  and  C_2
REMARK    2  A    between atoms: C_2  and  O_3
REMARK    3  A    between atoms: O_3  and  C_4
REMARK    4  A    between atoms: C_4  and  C_6
REMARK    5  A    between atoms: C_10  and  C_11
REMARK    6  A    between atoms: C_11  and  C_13
REMARK    7  A    between atoms: C_14  and  O_15
REMARK    8  A    between atoms: N_16  and  C_17
REMARK    9  A    between atoms: N_24  and  C_25
REMARK                            x       y       z     vdW  Elec       q    Type
REMARK                         _______ _______ _______ _____ _____    ______ ____
ROOT
ATOM      1  C   UNL     1       0.319  10.466  18.673  0.00  0.00    +0.000 A 
ATOM      2  C   UNL     1      -0.949  10.390  18.235  0.00  0.00    +0.000 A 
ATOM      3  N   UNL     1      -1.837  11.203  18.947  0.00  0.00    +0.000 N 
ATOM      4  N   UNL     1      -1.041  12.051  19.751  0.00  0.00    +0.000 N 
ATOM      5  C   UNL     1       0.283  11.559  19.684  0.00  0.00    +0.000 A 
ATOM      6  O   UNL     1       1.234  11.895  20.375  0.00  0.00    +0.000 OA
ENDROOT
BRANCH   3   7
ATOM      7  C   UNL     1      -3.178  11.537  18.585  0.00  0.00    +0.000 A 
ATOM      8  C   UNL     1      -4.084  12.062  19.532  0.00  0.00    +0.000 A 
ATOM      9  C   UNL     1      -5.382  12.477  19.197  0.00  0.00    +0.000 A 
ATOM     10  C   UNL     1      -5.803  12.422  17.879  0.00  0.00    +0.000 A 
ATOM     11 CL   UNL     1      -7.364  12.991  17.447  0.00  0.00    +0.000 Cl
ATOM     12  C   UNL     1      -4.955  11.908  16.912  0.00  0.00    +0.000 A 
ATOM     13  C   UNL     1      -3.685  11.432  17.273  0.00  0.00    +0.000 A 
ENDBRANCH   3   7
BRANCH   4  14
ATOM     14  C   UNL     1      -1.468  12.633  20.972  0.00  0.00    +0.000 A 
ATOM     15  C   UNL     1      -1.668  14.023  20.993  0.00  0.00    +0.000 A 
ATOM     16  C   UNL     1      -2.206  14.645  22.122  0.00  0.00    +0.000 A 
ATOM     17  C   UNL     1      -2.520  13.881  23.242  0.00  0.00    +0.000 A 
ATOM     18 CL   UNL     1      -3.177  14.643  24.637  0.00  0.00    +0.000 Cl
ATOM     19  C   UNL     1      -2.311  12.502  23.240  0.00  0.00    +0.000 A 
ATOM     20  C   UNL     1      -1.783  11.876  22.105  0.00  0.00    +0.000 A 
ENDBRANCH   4  14
BRANCH   1  21
ATOM     21  C   UNL     1       1.530   9.712  18.274  0.00  0.00    +0.000 C 
ATOM     22  O   UNL     1       2.310  10.155  17.439  0.00  0.00    +0.000 OA
BRANCH  21  27
ATOM     23  C   UNL     1       2.729   6.110  18.699  0.00  0.00    +0.000 A 
ATOM     24  C   UNL     1       2.442   5.913  20.055  0.00  0.00    +0.000 A 
ATOM     25  C   UNL     1       1.798   6.910  20.786  0.00  0.00    +0.000 A 
ATOM     26  C   UNL     1       1.474   8.122  20.175  0.00  0.00    +0.000 A 
ATOM     27  C   UNL     1       1.796   8.352  18.830  0.00  0.00    +0.000 A 
ATOM     28  C   UNL     1       2.378   7.321  18.081  0.00  0.00    +0.000 A 
BRANCH  23  29
ATOM     29  C   UNL     1       3.491   5.044  17.987  0.00  0.00    +0.000 C 
ATOM     30  O   UNL     1       4.176   5.250  17.002  0.00  0.00    +0.000 OA
BRANCH  29  31
ATOM     31  O   UNL     1       3.192   3.837  18.523  0.00  0.00    +0.000 OA
BRANCH  31  33
ATOM     32  C   UNL     1       1.085   2.710  18.603  0.00  0.00    +0.000 C 
ATOM     33  C   UNL     1       2.299   3.023  17.748  0.00  0.00    +0.000 C 
ENDBRANCH  31  33
ENDBRANCH  29  31
ENDBRANCH  23  29
ENDBRANCH  21  27
ENDBRANCH   1  21
BRANCH   2  34
ATOM     34  O   UNL     1      -1.369   9.647  17.163  0.00  0.00    +0.000 OA
ATOM     35  H   UNL     1      -2.026   8.990  17.449  0.00  0.00    +0.000 HD
ENDBRANCH   2  34
TORSDOF 8
ENDMDL
MODEL 2
REMARK VINA RESULT:      -7.9      0.550      1.289
REMARK  Name = 
REMARK  9 active torsions:
REMARK  status: ('A' for Active; 'I' for Inactive)
REMARK    1  A    between atoms: C_1  and  C_2
REMARK    2  A    between atoms: C_2  and  O_3
REMARK    3  A    between atoms: O_3  and  C_4
REMARK    4  A    between atoms: C_4  and  C_6
REMARK    5  A    between atoms: C_10  and  C_11
REMARK    6  A    between atoms: C_11  and  C_13
REMARK    7  A    between atoms: C_14  and  O_15
REMARK    8  A    between atoms: N_16  and  C_17
REMARK    9  A    between atoms: N_24  and  C_25
REMARK                            x       y       z     vdW  Elec       q    Type
REMARK                         _______ _______ _______ _____ _____    ______ ____
ROOT
ATOM      1  C   UNL     1       0.517  10.491  18.640  0.00  0.00    +0.000 A 
ATOM      2  C   UNL     1      -0.781  10.440  18.294  0.00  0.00    +0.000 A 
ATOM      3  N   UNL     1      -1.581  11.355  18.987  0.00  0.00    +0.000 N 
ATOM      4  N   UNL     1      -0.694  12.229  19.658  0.00  0.00    +0.000 N 
ATOM      5  C   UNL     1       0.598  11.669  19.548  0.00  0.00    +0.000 A 
ATOM      6  O   UNL     1       1.610  12.016  20.141  0.00  0.00    +0.000 OA
ENDROOT
BRANCH   3   7
ATOM      7  C   UNL     1      -2.928  11.722  18.686  0.00  0.00    +0.000 A 
ATOM      8  C   UNL     1      -3.475  11.515  17.401  0.00  0.00    +0.000 A 
ATOM      9  C   UNL     1      -4.816  11.787  17.090  0.00  0.00    +0.000 A 
ATOM     10  C   UNL     1      -5.675  12.235  18.080  0.00  0.00    +0.000 A 
ATOM     11 CL   UNL     1      -7.333  12.506  17.727  0.00  0.00    +0.000 Cl
ATOM     12  C   UNL     1      -5.186  12.462  19.356  0.00  0.00    +0.000 A 
ATOM     13  C   UNL     1      -3.827  12.251  19.635  0.00  0.00    +0.000 A 
ENDBRANCH   3   7
BRANCH   4  14
ATOM     14  C   UNL     1      -1.009  12.936  20.847  0.00  0.00    +0.000 A 
ATOM     15  C   UNL     1      -1.206  12.184  22.016  0.00  0.00    +0.000 A 
ATOM     16  C   UNL     1      -1.396  12.821  23.244  0.00  0.00    +0.000 A 
ATOM     17  C   UNL     1      -1.416  14.212  23.301  0.00  0.00    +0.000 A 
ATOM     18 CL   UNL     1      -1.656  15.000  24.811  0.00  0.00    +0.000 Cl
ATOM     19  C   UNL     1      -1.238  14.969  22.144  0.00  0.00    +0.000 A 
ATOM     20  C   UNL     1      -1.035  14.333  20.914  0.00  0.00    +0.000 A 
ENDBRANCH   4  14
BRANCH   1  21
ATOM     21  C   UNL     1       1.663   9.646  18.231  0.00  0.00    +0.000 C 
ATOM     22  O   UNL     1       2.442  10.010  17.358  0.00  0.00    +0.000 OA
BRANCH  21  27
ATOM     23  C   UNL     1       2.720   6.018  18.784  0.00  0.00    +0.000 A 
ATOM     24  C   UNL     1       2.368   5.861  20.130  0.00  0.00    +0.000 A 
ATOM     25  C   UNL     1       1.727   6.894  20.810  0.00  0.00    +0.000 A 
ATOM     26  C   UNL     1       1.471   8.103  20.160  0.00  0.00    +0.000 A 
ATOM     27  C   UNL     1       1.858   8.291  18.826  0.00  0.00    +0.000 A 
ATOM     28  C   UNL     1       2.437   7.225  18.126  0.00  0.00    +0.000 A 
BRANCH  23  29
ATOM     29  C   UNL     1       3.475   4.912  18.129  0.00  0.00    +0.000 C 
ATOM     30  O   UNL     1       3.921   4.978  16.998  0.00  0.00    +0.000 OA
BRANCH  29  31
ATOM     31  O   UNL     1       3.462   3.817  18.926  0.00  0.00    +0.000 OA
BRANCH  31  33
ATOM     32  C   UNL     1       1.494   2.549  18.448  0.00  0.00    +0.000 C 
ATOM     33  C   UNL     1       3.003   2.608  18.305  0.00  0.00    +0.000 C 
ENDBRANCH  31  33
ENDBRANCH  29  31
ENDBRANCH  23  29
ENDBRANCH  21  27
ENDBRANCH   1  21
BRANCH   2  34
ATOM     34  O   UNL     1      -1.307   9.629  17.324  0.00  0.00    +0.000 OA
ATOM     35  H   UNL     1      -0.681   8.917  17.108  0.00  0.00    +0.000 HD
ENDBRANCH   2  34
TORSDOF 8
ENDMDL
MODEL 3
REMARK VINA RESULT:      -7.8      0.962      1.767
REMARK  Name = 
REMARK  9 active torsions:
REMARK  status: ('A' for Active; 'I' for Inactive)
REMARK    1  A    between atoms: C_1  and  C_2
REMARK    2  A    between atoms: C_2  and  O_3
REMARK    3  A    between atoms: O_3  and  C_4
REMARK    4  A    between atoms: C_4  and  C_6
REMARK    5  A    between atoms: C_10  and  C_11
REMARK    6  A    between atoms: C_11  and  C_13
REMARK    7  A    between atoms: C_14  and  O_15
REMARK    8  A    between atoms: N_16  and  C_17
REMARK    9  A    between atoms: N_24  and  C_25
REMARK                            x       y       z     vdW  Elec       q    Type
REMARK                         _______ _______ _______ _____ _____    ______ ____
ROOT
ATOM      1  C   UNL     1       0.492  10.545  18.708  0.00  0.00    +0.000 A 
ATOM      2  C   UNL     1      -0.771  10.519  18.250  0.00  0.00    +0.000 A 
ATOM      3  N   UNL     1      -1.655  11.302  19.000  0.00  0.00    +0.000 N 
ATOM      4  N   UNL     1      -0.856  12.084  19.866  0.00  0.00    +0.000 N 
ATOM      5  C   UNL     1       0.460  11.575  19.785  0.00  0.00    +0.000 A 
ATOM      6  O   UNL     1       1.407  11.851  20.507  0.00  0.00    +0.000 OA
ENDROOT
BRANCH   3   7
ATOM      7  C   UNL     1      -2.986  11.680  18.643  0.00  0.00    +0.000 A 
ATOM      8  C   UNL     1      -3.474  11.495  17.331  0.00  0.00    +0.000 A 
ATOM      9  C   UNL     1      -4.797  11.779  16.963  0.00  0.00    +0.000 A 
ATOM     10  C   UNL     1      -5.699  12.218  17.919  0.00  0.00    +0.000 A 
ATOM     11 CL   UNL     1      -7.338  12.503  17.495  0.00  0.00    +0.000 Cl
ATOM     12  C   UNL     1      -5.268  12.424  19.220  0.00  0.00    +0.000 A 
ATOM     13  C   UNL     1      -3.924  12.201  19.557  0.00  0.00    +0.000 A 
ENDBRANCH   3   7
BRANCH   4  14
ATOM     14  C   UNL     1      -1.290  12.597  21.115  0.00  0.00    +0.000 A 
ATOM     15  C   UNL     1      -1.436  13.989  21.229  0.00  0.00    +0.000 A 
ATOM     16  C   UNL     1      -1.977  14.552  22.387  0.00  0.00    +0.000 A 
ATOM     17  C   UNL     1      -2.348  13.726  23.444  0.00  0.00    +0.000 A 
ATOM     18 CL   UNL     1      -3.010  14.415  24.874  0.00  0.00    +0.000 Cl
ATOM     19  C   UNL     1      -2.193  12.343  23.348  0.00  0.00    +0.000 A 
ATOM     20  C   UNL     1      -1.663  11.776  22.184  0.00  0.00    +0.000 A 
ENDBRANCH   4  14
BRANCH   1  21
ATOM     21  C   UNL     1       1.696   9.796  18.279  0.00  0.00    +0.000 C 
ATOM     22  O   UNL     1       2.470  10.259  17.450  0.00  0.00    +0.000 OA
BRANCH  21  27
ATOM     23  C   UNL     1       3.024   6.238  18.677  0.00  0.00    +0.000 A 
ATOM     24  C   UNL     1       2.567   5.947  19.968  0.00  0.00    +0.000 A 
ATOM     25  C   UNL     1       1.774   6.867  20.653  0.00  0.00    +0.000 A 
ATOM     26  C   UNL     1       1.470   8.096  20.067  0.00  0.00    +0.000 A 
ATOM     27  C   UNL     1       1.958   8.421  18.794  0.00  0.00    +0.000 A 
ATOM     28  C   UNL     1       2.694   7.465  18.080  0.00  0.00    +0.000 A 
BRANCH  23  29
ATOM     29  C   UNL     1       3.934   5.254  18.024  0.00  0.00    +0.000 C 
ATOM     30  O   UNL     1       3.566   4.444  17.193  0.00  0.00    +0.000 OA
BRANCH  29  31
ATOM     31  O   UNL     1       5.163   5.326  18.590  0.00  0.00    +0.000 OA
BRANCH  31  33
ATOM     32  C   UNL     1       7.517   5.671  18.361  0.00  0.00    +0.000 C 
ATOM     33  C   UNL     1       6.144   6.058  17.843  0.00  0.00    +0.000 C 
ENDBRANCH  31  33
ENDBRANCH  29  31
ENDBRANCH  23  29
ENDBRANCH  21  27
ENDBRANCH   1  21
BRANCH   2  34
ATOM     34  O   UNL     1      -1.189   9.851  17.129  0.00  0.00    +0.000 OA
ATOM     35  H   UNL     1      -2.088   9.506  17.262  0.00  0.00    +0.000 HD
ENDBRANCH   2  34
TORSDOF 8
ENDMDL
MODEL 4
REMARK VINA RESULT:      -7.8      3.961      8.741
REMARK  Name = 
REMARK  9 active torsions:
REMARK  status: ('A' for Active; 'I' for Inactive)
REMARK    1  A    between atoms: C_1  and  C_2
REMARK    2  A    between atoms: C_2  and  O_3
REMARK    3  A    between atoms: O_3  and  C_4
REMARK    4  A    between atoms: C_4  and  C_6
REMARK    5  A    between atoms: C_10  and  C_11
REMARK    6  A    between atoms: C_11  and  C_13
REMARK    7  A    between atoms: C_14  and  O_15
REMARK    8  A    between atoms: N_16  and  C_17
REMARK    9  A    between atoms: N_24  and  C_25
REMARK                            x       y       z     vdW  Elec       q    Type
REMARK                         _______ _______ _______ _____ _____    ______ ____
ROOT
ATOM      1  C   UNL     1      -2.371  11.998  19.000  0.00  0.00    +0.000 A 
ATOM      2  C   UNL     1      -1.412  12.870  19.356  0.00  0.00    +0.000 A 
ATOM      3  N   UNL     1      -0.124  12.326  19.331  0.00  0.00    +0.000 N 
ATOM      4  N   UNL     1      -0.233  11.077  18.677  0.00  0.00    +0.000 N 
ATOM      5  C   UNL     1      -1.612  10.798  18.549  0.00  0.00    +0.000 A 
ATOM      6  O   UNL     1      -2.127   9.743  18.206  0.00  0.00    +0.000 OA
ENDROOT
BRANCH   3   7
ATOM      7  C   UNL     1       1.113  13.036  19.412  0.00  0.00    +0.000 A 
ATOM      8  C   UNL     1       1.719  13.314  20.657  0.00  0.00    +0.000 A 
ATOM      9  C   UNL     1       2.971  13.936  20.774  0.00  0.00    +0.000 A 
ATOM     10  C   UNL     1       3.686  14.263  19.633  0.00  0.00    +0.000 A 
ATOM     11 CL   UNL     1       5.248  14.963  19.764  0.00  0.00    +0.000 Cl
ATOM     12  C   UNL     1       3.133  14.019  18.387  0.00  0.00    +0.000 A 
ATOM     13  C   UNL     1       1.850  13.458  18.286  0.00  0.00    +0.000 A 
ENDBRANCH   3   7
BRANCH   4  14
ATOM     14  C   UNL     1       0.646   9.983  18.883  0.00  0.00    +0.000 A 
ATOM     15  C   UNL     1       0.705   9.431  20.173  0.00  0.00    +0.000 A 
ATOM     16  C   UNL     1       1.452   8.277  20.416  0.00  0.00    +0.000 A 
ATOM     17  C   UNL     1       2.165   7.688  19.376  0.00  0.00    +0.000 A 
ATOM     18 CL   UNL     1       3.092   6.270  19.673  0.00  0.00    +0.000 Cl
ATOM     19  C   UNL     1       2.128   8.235  18.094  0.00  0.00    +0.000 A 
ATOM     20  C   UNL     1       1.369   9.385  17.845  0.00  0.00    +0.000 A 
ENDBRANCH   4  14
BRANCH   1  21
ATOM     21  C   UNL     1      -3.846  12.130  18.988  0.00  0.00    +0.000 C 
ATOM     22  O   UNL     1      -4.504  11.829  17.999  0.00  0.00    +0.000 OA
BRANCH  21  27
ATOM     23  C   UNL     1      -4.832  13.116  22.544  0.00  0.00    +0.000 A 
ATOM     24  C   UNL     1      -5.865  14.021  22.272  0.00  0.00    +0.000 A 
ATOM     25  C   UNL     1      -6.278  14.236  20.958  0.00  0.00    +0.000 A 
ATOM     26  C   UNL     1      -5.633  13.579  19.909  0.00  0.00    +0.000 A 
ATOM     27  C   UNL     1      -4.567  12.705  20.162  0.00  0.00    +0.000 A 
ATOM     28  C   UNL     1      -4.203  12.437  21.488  0.00  0.00    +0.000 A 
BRANCH  23  29
ATOM     29  C   UNL     1      -4.376  12.985  23.957  0.00  0.00    +0.000 C 
ATOM     30  O   UNL     1      -4.567  11.993  24.638  0.00  0.00    +0.000 OA
BRANCH  29  31
ATOM     31  O   UNL     1      -3.856  14.162  24.378  0.00  0.00    +0.000 OA
BRANCH  31  33
ATOM     32  C   UNL     1      -2.219  15.538  23.310  0.00  0.00    +0.000 C 
ATOM     33  C   UNL     1      -2.443  14.316  24.181  0.00  0.00    +0.000 C 
ENDBRANCH  31  33
ENDBRANCH  29  31
ENDBRANCH  23  29
ENDBRANCH  21  27
ENDBRANCH   1  21
BRANCH   2  34
ATOM     34  O   UNL     1      -1.621  14.188  19.667  0.00  0.00    +0.000 OA
ATOM     35  H   UNL     1      -1.438  14.341  20.610  0.00  0.00    +0.000 HD
ENDBRANCH   2  34
TORSDOF 8
ENDMDL
MODEL 5
REMARK VINA RESULT:      -7.8      3.808      8.576
REMARK  Name = 
REMARK  9 active torsions:
REMARK  status: ('A' for Active; 'I' for Inactive)
REMARK    1  A    between atoms: C_1  and  C_2
REMARK    2  A    between atoms: C_2  and  O_3
REMARK    3  A    between atoms: O_3  and  C_4
REMARK    4  A    between atoms: C_4  and  C_6
REMARK    5  A    between atoms: C_10  and  C_11
REMARK    6  A    between atoms: C_11  and  C_13
REMARK    7  A    between atoms: C_14  and  O_15
REMARK    8  A    between atoms: N_16  and  C_17
REMARK    9  A    between atoms: N_24  and  C_25
REMARK                            x       y       z     vdW  Elec       q    Type
REMARK                         _______ _______ _______ _____ _____    ______ ____
ROOT
ATOM      1  C   UNL     1      -1.999  11.489  17.985  0.00  0.00    +0.000 A 
ATOM      2  C   UNL     1      -1.182  12.370  18.588  0.00  0.00    +0.000 A 
ATOM      3  N   UNL     1       0.085  11.853  18.875  0.00  0.00    +0.000 N 
ATOM      4  N   UNL     1       0.175  10.620  18.190  0.00  0.00    +0.000 N 
ATOM      5  C   UNL     1      -1.121  10.317  17.714  0.00  0.00    +0.000 A 
ATOM      6  O   UNL     1      -1.506   9.260  17.233  0.00  0.00    +0.000 OA
ENDROOT
BRANCH   3   7
ATOM      7  C   UNL     1       1.243  12.586  19.279  0.00  0.00    +0.000 A 
ATOM      8  C   UNL     1       2.141  13.120  18.328  0.00  0.00    +0.000 A 
ATOM      9  C   UNL     1       3.243  13.913  18.682  0.00  0.00    +0.000 A 
ATOM     10  C   UNL     1       3.457  14.240  20.011  0.00  0.00    +0.000 A 
ATOM     11 CL   UNL     1       4.763  15.265  20.448  0.00  0.00    +0.000 Cl
ATOM     12  C   UNL     1       2.610  13.735  20.984  0.00  0.00    +0.000 A 
ATOM     13  C   UNL     1       1.552  12.886  20.621  0.00  0.00    +0.000 A 
ENDBRANCH   3   7
BRANCH   4  14
ATOM     14  C   UNL     1       1.003   9.538  18.588  0.00  0.00    +0.000 A 
ATOM     15  C   UNL     1       0.896   9.093  19.915  0.00  0.00    +0.000 A 
ATOM     16  C   UNL     1       1.587   7.957  20.340  0.00  0.00    +0.000 A 
ATOM     17  C   UNL     1       2.409   7.278  19.444  0.00  0.00    +0.000 A 
ATOM     18 CL   UNL     1       3.267   5.881  19.964  0.00  0.00    +0.000 Cl
ATOM     19  C   UNL     1       2.535   7.719  18.127  0.00  0.00    +0.000 A 
ATOM     20  C   UNL     1       1.834   8.851  17.697  0.00  0.00    +0.000 A 
ENDBRANCH   4  14
BRANCH   1  21
ATOM     21  C   UNL     1      -3.427  11.592  17.606  0.00  0.00    +0.000 C 
ATOM     22  O   UNL     1      -3.765  11.769  16.441  0.00  0.00    +0.000 OA
BRANCH  21  27
ATOM     23  C   UNL     1      -5.470  12.248  20.766  0.00  0.00    +0.000 A 
ATOM     24  C   UNL     1      -6.660  11.590  20.430  0.00  0.00    +0.000 A 
ATOM     25  C   UNL     1      -6.755  10.883  19.233  0.00  0.00    +0.000 A 
ATOM     26  C   UNL     1      -5.676  10.863  18.348  0.00  0.00    +0.000 A 
ATOM     27  C   UNL     1      -4.494  11.555  18.648  0.00  0.00    +0.000 A 
ATOM     28  C   UNL     1      -4.378  12.204  19.885  0.00  0.00    +0.000 A 
BRANCH  23  29
ATOM     29  C   UNL     1      -5.451  13.055  22.018  0.00  0.00    +0.000 C 
ATOM     30  O   UNL     1      -6.028  14.120  22.143  0.00  0.00    +0.000 OA
BRANCH  29  31
ATOM     31  O   UNL     1      -4.604  12.489  22.911  0.00  0.00    +0.000 OA
BRANCH  31  33
ATOM     32  C   UNL     1      -3.494  13.845  24.537  0.00  0.00    +0.000 C 
ATOM     33  C   UNL     1      -4.708  12.980  24.255  0.00  0.00    +0.000 C 
ENDBRANCH  31  33
ENDBRANCH  29  31
ENDBRANCH  23  29
ENDBRANCH  21  27
ENDBRANCH   1  21
BRANCH   2  34
ATOM     34  O   UNL     1      -1.496  13.676  18.863  0.00  0.00    +0.000 OA
ATOM     35  H   UNL     1      -2.351  13.905  18.459  0.00  0.00    +0.000 HD
ENDBRANCH   2  34
TORSDOF 8
ENDMDL
MODEL 6
REMARK VINA RESULT:      -7.8      1.032      1.892
REMARK  Name = 
REMARK  9 active torsions:
REMARK  status: ('A' for Active; 'I' for Inactive)
REMARK    1  A    between atoms: C_1  and  C_2
REMARK    2  A    between atoms: C_2  and  O_3
REMARK    3  A    between atoms: O_3  and  C_4
REMARK    4  A    between atoms: C_4  and  C_6
REMARK    5  A    between atoms: C_10  and  C_11
REMARK    6  A    between atoms: C_11  and  C_13
REMARK    7  A    between atoms: C_14  and  O_15
REMARK    8  A    between atoms: N_16  and  C_17
REMARK    9  A    between atoms: N_24  and  C_25
REMARK                            x       y       z     vdW  Elec       q    Type
REMARK                         _______ _______ _______ _____ _____    ______ ____
ROOT
ATOM      1  C   UNL     1       0.450  10.791  18.631  0.00  0.00    +0.000 A 
ATOM      2  C   UNL     1      -0.820  10.620  18.224  0.00  0.00    +0.000 A 
ATOM      3  N   UNL     1      -1.742  11.404  18.925  0.00  0.00    +0.000 N 
ATOM      4  N   UNL     1      -0.984  12.330  19.679  0.00  0.00    +0.000 N 
ATOM      5  C   UNL     1       0.365  11.918  19.601  0.00  0.00    +0.000 A 
ATOM      6  O   UNL     1       1.308  12.338  20.257  0.00  0.00    +0.000 OA
ENDROOT
BRANCH   3   7
ATOM      7  C   UNL     1      -3.108  11.641  18.581  0.00  0.00    +0.000 A 
ATOM      8  C   UNL     1      -4.027  12.140  19.530  0.00  0.00    +0.000 A 
ATOM      9  C   UNL     1      -5.355  12.462  19.209  0.00  0.00    +0.000 A 
ATOM     10  C   UNL     1      -5.797  12.337  17.902  0.00  0.00    +0.000 A 
ATOM     11 CL   UNL     1      -7.399  12.791  17.485  0.00  0.00    +0.000 Cl
ATOM     12  C   UNL     1      -4.937  11.844  16.934  0.00  0.00    +0.000 A 
ATOM     13  C   UNL     1      -3.632  11.461  17.284  0.00  0.00    +0.000 A 
ENDBRANCH   3   7
BRANCH   4  14
ATOM     14  C   UNL     1      -1.422  12.932  20.886  0.00  0.00    +0.000 A 
ATOM     15  C   UNL     1      -1.551  12.106  22.015  0.00  0.00    +0.000 A 
ATOM     16  C   UNL     1      -1.856  12.653  23.263  0.00  0.00    +0.000 A 
ATOM     17  C   UNL     1      -2.062  14.025  23.379  0.00  0.00    +0.000 A 
ATOM     18 CL   UNL     1      -2.444  14.703  24.913  0.00  0.00    +0.000 Cl
ATOM     19  C   UNL     1      -1.953  14.854  22.263  0.00  0.00    +0.000 A 
ATOM     20  C   UNL     1      -1.634  14.309  21.014  0.00  0.00    +0.000 A 
ENDBRANCH   4  14
BRANCH   1  21
ATOM     21  C   UNL     1       1.697  10.097  18.234  0.00  0.00    +0.000 C 
ATOM     22  O   UNL     1       2.501  10.621  17.472  0.00  0.00    +0.000 OA
BRANCH  21  27
ATOM     23  C   UNL     1       3.063   6.540  18.501  0.00  0.00    +0.000 A 
ATOM     24  C   UNL     1       2.606   6.196  19.779  0.00  0.00    +0.000 A 
ATOM     25  C   UNL     1       1.802   7.081  20.496  0.00  0.00    +0.000 A 
ATOM     26  C   UNL     1       1.485   8.328  19.956  0.00  0.00    +0.000 A 
ATOM     27  C   UNL     1       1.973   8.706  18.697  0.00  0.00    +0.000 A 
ATOM     28  C   UNL     1       2.721   7.786  17.950  0.00  0.00    +0.000 A 
BRANCH  23  29
ATOM     29  C   UNL     1       3.985   5.592  17.813  0.00  0.00    +0.000 C 
ATOM     30  O   UNL     1       3.607   4.616  17.192  0.00  0.00    +0.000 OA
BRANCH  29  31
ATOM     31  O   UNL     1       5.268   5.916  18.101  0.00  0.00    +0.000 OA
BRANCH  31  33
ATOM     32  C   UNL     1       7.284   7.061  17.521  0.00  0.00    +0.000 C 
ATOM     33  C   UNL     1       6.062   6.340  16.984  0.00  0.00    +0.000 C 
ENDBRANCH  31  33
ENDBRANCH  29  31
ENDBRANCH  23  29
ENDBRANCH  21  27
ENDBRANCH   1  21
BRANCH   2  34
ATOM     34  O   UNL     1      -1.215   9.812  17.190  0.00  0.00    +0.000 OA
ATOM     35  H   UNL     1      -2.165   9.928  17.021  0.00  0.00    +0.000 HD
ENDBRANCH   2  34
TORSDOF 8
ENDMDL
MODEL 7
REMARK VINA RESULT:      -7.7      0.841      1.892
REMARK  Name = 
REMARK  9 active torsions:
REMARK  status: ('A' for Active; 'I' for Inactive)
REMARK    1  A    between atoms: C_1  and  C_2
REMARK    2  A    between atoms: C_2  and  O_3
REMARK    3  A    between atoms: O_3  and  C_4
REMARK    4  A    between atoms: C_4  and  C_6
REMARK    5  A    between atoms: C_10  and  C_11
REMARK    6  A    between atoms: C_11  and  C_13
REMARK    7  A    between atoms: C_14  and  O_15
REMARK    8  A    between atoms: N_16  and  C_17
REMARK    9  A    between atoms: N_24  and  C_25
REMARK                            x       y       z     vdW  Elec       q    Type
REMARK                         _______ _______ _______ _____ _____    ______ ____
ROOT
ATOM      1  C   UNL     1       0.553  10.537  18.622  0.00  0.00    +0.000 A 
ATOM      2  C   UNL     1      -0.745  10.467  18.281  0.00  0.00    +0.000 A 
ATOM      3  N   UNL     1      -1.556  11.368  18.980  0.00  0.00    +0.000 N 
ATOM      4  N   UNL     1      -0.681  12.253  19.650  0.00  0.00    +0.000 N 
ATOM      5  C   UNL     1       0.620  11.712  19.534  0.00  0.00    +0.000 A 
ATOM      6  O   UNL     1       1.628  12.073  20.125  0.00  0.00    +0.000 OA
ENDROOT
BRANCH   3   7
ATOM      7  C   UNL     1      -2.910  11.715  18.685  0.00  0.00    +0.000 A 
ATOM      8  C   UNL     1      -3.460  11.497  17.402  0.00  0.00    +0.000 A 
ATOM      9  C   UNL     1      -4.806  11.750  17.098  0.00  0.00    +0.000 A 
ATOM     10  C   UNL     1      -5.667  12.189  18.091  0.00  0.00    +0.000 A 
ATOM     11 CL   UNL     1      -7.330  12.436  17.746  0.00  0.00    +0.000 Cl
ATOM     12  C   UNL     1      -5.175  12.426  19.365  0.00  0.00    +0.000 A 
ATOM     13  C   UNL     1      -3.811  12.235  19.637  0.00  0.00    +0.000 A 
ENDBRANCH   3   7
BRANCH   4  14
ATOM     14  C   UNL     1      -1.002  12.951  20.843  0.00  0.00    +0.000 A 
ATOM     15  C   UNL     1      -1.190  12.192  22.009  0.00  0.00    +0.000 A 
ATOM     16  C   UNL     1      -1.385  12.821  23.240  0.00  0.00    +0.000 A 
ATOM     17  C   UNL     1      -1.421  14.211  23.303  0.00  0.00    +0.000 A 
ATOM     18 CL   UNL     1      -1.667  14.990  24.817  0.00  0.00    +0.000 Cl
ATOM     19  C   UNL     1      -1.251  14.976  22.150  0.00  0.00    +0.000 A 
ATOM     20  C   UNL     1      -1.043  14.347  20.917  0.00  0.00    +0.000 A 
ENDBRANCH   4  14
BRANCH   1  21
ATOM     21  C   UNL     1       1.710   9.711  18.207  0.00  0.00    +0.000 C 
ATOM     22  O   UNL     1       2.520  10.119  17.383  0.00  0.00    +0.000 OA
BRANCH  21  27
ATOM     23  C   UNL     1       2.595   6.008  18.522  0.00  0.00    +0.000 A 
ATOM     24  C   UNL     1       2.368   5.816  19.890  0.00  0.00    +0.000 A 
ATOM     25  C   UNL     1       1.860   6.856  20.667  0.00  0.00    +0.000 A 
ATOM     26  C   UNL     1       1.615   8.102  20.089  0.00  0.00    +0.000 A 
ATOM     27  C   UNL     1       1.881   8.324  18.731  0.00  0.00    +0.000 A 
ATOM     28  C   UNL     1       2.323   7.256  17.938  0.00  0.00    +0.000 A 
BRANCH  23  29
ATOM     29  C   UNL     1       3.215   4.890  17.755  0.00  0.00    +0.000 C 
ATOM     30  O   UNL     1       2.926   3.719  17.919  0.00  0.00    +0.000 OA
BRANCH  29  31
ATOM     31  O   UNL     1       4.211   5.372  16.974  0.00  0.00    +0.000 OA
BRANCH  31  33
ATOM     32  C   UNL     1       6.264   6.362  17.695  0.00  0.00    +0.000 C 
ATOM     33  C   UNL     1       5.542   5.058  17.410  0.00  0.00    +0.000 C 
ENDBRANCH  31  33
ENDBRANCH  29  31
ENDBRANCH  23  29
ENDBRANCH  21  27
ENDBRANCH   1  21
BRANCH   2  34
ATOM     34  O   UNL     1      -1.263   9.652  17.309  0.00  0.00    +0.000 OA
ATOM     35  H   UNL     1      -0.643   8.927  17.117  0.00  0.00    +0.000 HD
ENDBRANCH   2  34
TORSDOF 8
ENDMDL
MODEL 8
REMARK VINA RESULT:      -7.7      3.820      8.881
REMARK  Name = 
REMARK  9 active torsions:
REMARK  status: ('A' for Active; 'I' for Inactive)
REMARK    1  A    between atoms: C_1  and  C_2
REMARK    2  A    between atoms: C_2  and  O_3
REMARK    3  A    between atoms: O_3  and  C_4
REMARK    4  A    between atoms: C_4  and  C_6
REMARK    5  A    between atoms: C_10  and  C_11
REMARK    6  A    between atoms: C_11  and  C_13
REMARK    7  A    between atoms: C_14  and  O_15
REMARK    8  A    between atoms: N_16  and  C_17
REMARK    9  A    between atoms: N_24  and  C_25
REMARK                            x       y       z     vdW  Elec       q    Type
REMARK                         _______ _______ _______ _____ _____    ______ ____
ROOT
ATOM      1  C   UNL     1      -1.569  12.275  21.853  0.00  0.00    +0.000 A 
ATOM      2  C   UNL     1      -0.706  11.245  21.828  0.00  0.00    +0.000 A 
ATOM      3  N   UNL     1      -0.591  10.643  20.570  0.00  0.00    +0.000 N 
ATOM      4  N   UNL     1      -1.247  11.501  19.658  0.00  0.00    +0.000 N 
ATOM      5  C   UNL     1      -1.945  12.462  20.424  0.00  0.00    +0.000 A 
ATOM      6  O   UNL     1      -2.777  13.265  20.027  0.00  0.00    +0.000 OA
ENDROOT
BRANCH   3   7
ATOM      7  C   UNL     1       0.402   9.705  20.153  0.00  0.00    +0.000 A 
ATOM      8  C   UNL     1       0.726   8.579  20.942  0.00  0.00    +0.000 A 
ATOM      9  C   UNL     1       1.635   7.594  20.528  0.00  0.00    +0.000 A 
ATOM     10  C   UNL     1       2.221   7.680  19.276  0.00  0.00    +0.000 A 
ATOM     11 CL   UNL     1       3.282   6.445  18.732  0.00  0.00    +0.000 Cl
ATOM     12  C   UNL     1       1.943   8.769  18.465  0.00  0.00    +0.000 A 
ATOM     13  C   UNL     1       1.085   9.782  18.921  0.00  0.00    +0.000 A 
ENDBRANCH   3   7
BRANCH   4  14
ATOM     14  C   UNL     1      -1.832  11.079  18.436  0.00  0.00    +0.000 A 
ATOM     15  C   UNL     1      -2.647   9.936  18.468  0.00  0.00    +0.000 A 
ATOM     16  C   UNL     1      -3.352   9.537  17.331  0.00  0.00    +0.000 A 
ATOM     17  C   UNL     1      -3.223  10.265  16.151  0.00  0.00    +0.000 A 
ATOM     18 CL   UNL     1      -4.085   9.773  14.747  0.00  0.00    +0.000 Cl
ATOM     19  C   UNL     1      -2.404  11.393  16.103  0.00  0.00    +0.000 A 
ATOM     20  C   UNL     1      -1.706  11.801  17.245  0.00  0.00    +0.000 A 
ENDBRANCH   4  14
BRANCH   1  21
ATOM     21  C   UNL     1      -2.053  13.107  22.979  0.00  0.00    +0.000 C 
ATOM     22  O   UNL     1      -1.359  13.302  23.970  0.00  0.00    +0.000 OA
BRANCH  21  27
ATOM     23  C   UNL     1      -5.849  13.480  23.175  0.00  0.00    +0.000 A 
ATOM     24  C   UNL     1      -5.961  14.875  23.156  0.00  0.00    +0.000 A 
ATOM     25  C   UNL     1      -4.824  15.666  23.000  0.00  0.00    +0.000 A 
ATOM     26  C   UNL     1      -3.567  15.067  22.904  0.00  0.00    +0.000 A 
ATOM     27  C   UNL     1      -3.434  13.673  22.967  0.00  0.00    +0.000 A 
ATOM     28  C   UNL     1      -4.586  12.880  23.051  0.00  0.00    +0.000 A 
BRANCH  23  29
ATOM     29  C   UNL     1      -7.086  12.686  23.425  0.00  0.00    +0.000 C 
ATOM     30  O   UNL     1      -7.870  12.924  24.326  0.00  0.00    +0.000 OA
BRANCH  29  31
ATOM     31  O   UNL     1      -7.115  11.615  22.595  0.00  0.00    +0.000 OA
BRANCH  31  33
ATOM     32  C   UNL     1      -6.989  11.075  20.270  0.00  0.00    +0.000 C 
ATOM     33  C   UNL     1      -7.764  11.831  21.334  0.00  0.00    +0.000 C 
ENDBRANCH  31  33
ENDBRANCH  29  31
ENDBRANCH  23  29
ENDBRANCH  21  27
ENDBRANCH   1  21
BRANCH   2  34
ATOM     34  O   UNL     1       0.051  10.824  22.889  0.00  0.00    +0.000 OA
ATOM     35  H   UNL     1      -0.012  11.464  23.619  0.00  0.00    +0.000 HD
ENDBRANCH   2  34
TORSDOF 8
ENDMDL
MODEL 9
REMARK VINA RESULT:      -7.6      1.115      4.405
REMARK  Name = 
REMARK  9 active torsions:
REMARK  status: ('A' for Active; 'I' for Inactive)
REMARK    1  A    between atoms: C_1  and  C_2
REMARK    2  A    between atoms: C_2  and  O_3
REMARK    3  A    between atoms: O_3  and  C_4
REMARK    4  A    between atoms: C_4  and  C_6
REMARK    5  A    between atoms: C_10  and  C_11
REMARK    6  A    between atoms: C_11  and  C_13
REMARK    7  A    between atoms: C_14  and  O_15
REMARK    8  A    between atoms: N_16  and  C_17
REMARK    9  A    between atoms: N_24  and  C_25
REMARK                            x       y       z     vdW  Elec       q    Type
REMARK                         _______ _______ _______ _____ _____    ______ ____
ROOT
ATOM      1  C   UNL     1       0.436  10.637  18.942  0.00  0.00    +0.000 A 
ATOM      2  C   UNL     1       0.317  11.480  19.982  0.00  0.00    +0.000 A 
ATOM      3  N   UNL     1      -0.981  11.967  20.161  0.00  0.00    +0.000 N 
ATOM      4  N   UNL     1      -1.815  11.195  19.320  0.00  0.00    +0.000 N 
ATOM      5  C   UNL     1      -0.966  10.436  18.483  0.00  0.00    +0.000 A 
ATOM      6  O   UNL     1      -1.286   9.783  17.499  0.00  0.00    +0.000 OA
ENDROOT
BRANCH   3   7
ATOM      7  C   UNL     1      -1.488  12.670  21.298  0.00  0.00    +0.000 A 
ATOM      8  C   UNL     1      -1.963  11.980  22.434  0.00  0.00    +0.000 A 
ATOM      9  C   UNL     1      -2.393  12.635  23.599  0.00  0.00    +0.000 A 
ATOM     10  C   UNL     1      -2.315  14.016  23.681  0.00  0.00    +0.000 A 
ATOM     11 CL   UNL     1      -2.773  14.822  25.126  0.00  0.00    +0.000 Cl
ATOM     12  C   UNL     1      -1.863  14.740  22.590  0.00  0.00    +0.000 A 
ATOM     13  C   UNL     1      -1.502  14.076  21.407  0.00  0.00    +0.000 A 
ENDBRANCH   3   7
BRANCH   4  14
ATOM     14  C   UNL     1      -3.048  11.643  18.780  0.00  0.00    +0.000 A 
ATOM     15  C   UNL     1      -3.282  11.409  17.415  0.00  0.00    +0.000 A 
ATOM     16  C   UNL     1      -4.521  11.712  16.846  0.00  0.00    +0.000 A 
ATOM     17  C   UNL     1      -5.520  12.274  17.635  0.00  0.00    +0.000 A 
ATOM     18 CL   UNL     1      -7.046  12.654  16.938  0.00  0.00    +0.000 Cl
ATOM     19  C   UNL     1      -5.294  12.526  18.989  0.00  0.00    +0.000 A 
ATOM     20  C   UNL     1      -4.057  12.213  19.563  0.00  0.00    +0.000 A 
ENDBRANCH   4  14
BRANCH   1  21
ATOM     21  C   UNL     1       1.629   9.987  18.352  0.00  0.00    +0.000 C 
ATOM     22  O   UNL     1       2.306  10.551  17.501  0.00  0.00    +0.000 OA
BRANCH  21  27
ATOM     23  C   UNL     1       3.226   6.517  18.404  0.00  0.00    +0.000 A 
ATOM     24  C   UNL     1       2.799   6.068  19.659  0.00  0.00    +0.000 A 
ATOM     25  C   UNL     1       1.942   6.853  20.429  0.00  0.00    +0.000 A 
ATOM     26  C   UNL     1       1.542   8.107  19.965  0.00  0.00    +0.000 A 
ATOM     27  C   UNL     1       1.998   8.591  18.731  0.00  0.00    +0.000 A 
ATOM     28  C   UNL     1       2.801   7.768  17.929  0.00  0.00    +0.000 A 
BRANCH  23  29
ATOM     29  C   UNL     1       4.205   5.675  17.659  0.00  0.00    +0.000 C 
ATOM     30  O   UNL     1       3.886   4.737  16.951  0.00  0.00    +0.000 OA
BRANCH  29  31
ATOM     31  O   UNL     1       5.466   6.033  18.001  0.00  0.00    +0.000 OA
BRANCH  31  33
ATOM     32  C   UNL     1       7.445   7.299  17.563  0.00  0.00    +0.000 C 
ATOM     33  C   UNL     1       6.255   6.591  16.941  0.00  0.00    +0.000 C 
ENDBRANCH  31  33
ENDBRANCH  29  31
ENDBRANCH  23  29
ENDBRANCH  21  27
ENDBRANCH   1  21
BRANCH   2  34
ATOM     34  O   UNL     1       1.327  11.814  20.846  0.00  0.00    +0.000 OA
ATOM     35  H   UNL     1       1.762  12.632  20.550  0.00  0.00    +0.000 HD
ENDBRANCH   2  34
TORSDOF 8
ENDMDL
