MODEL 1
REMARK VINA RESULT:      -9.2      0.000      0.000
REMARK  Name = 
REMARK  7 active torsions:
REMARK  status: ('A' for Active; 'I' for Inactive)
REMARK    1  A    between atoms: C_1  and  C_2
REMARK    2  A    between atoms: C_2  and  N_3
REMARK    3  A    between atoms: N_3  and  C_4
REMARK    4  A    between atoms: C_4  and  C_5
REMARK    5  A    between atoms: C_6  and  C_8
REMARK    6  A    between atoms: C_11  and  C_12
REMARK    7  A    between atoms: C_12  and  C_19
REMARK                            x       y       z     vdW  Elec       q    Type
REMARK                         _______ _______ _______ _____ _____    ______ ____
ROOT
ATOM      1  C   UNL     1       3.193   5.905  18.308  0.00  0.00    +0.000 C 
ATOM      2  C   UNL     1       4.303   5.814  17.528  0.00  0.00    +0.000 C 
ATOM      3  C   UNL     1       5.048   6.992  16.908  0.00  0.00    +0.000 C 
ATOM      4  C   UNL     1       6.538   6.968  17.288  0.00  0.00    +0.000 C 
ATOM      5  N   UNL     1       7.197   5.696  16.958  0.00  0.00    +0.000 NA
ATOM      6  C   UNL     1       6.495   4.572  17.589  0.00  0.00    +0.000 C 
ATOM      7  C   UNL     1       5.018   4.513  17.177  0.00  0.00    +0.000 C 
ATOM      8  H   UNL     1       8.159   5.720  17.298  0.00  0.00    +0.000 HD
ENDROOT
BRANCH   1   9
ATOM      9  C   UNL     1       2.628   4.666  18.891  0.00  0.00    +0.000 A 
ATOM     10  C   UNL     1       3.150   4.134  20.079  0.00  0.00    +0.000 A 
ATOM     11  C   UNL     1       2.580   2.994  20.651  0.00  0.00    +0.000 A 
ATOM     12  C   UNL     1       1.488   2.375  20.041  0.00  0.00    +0.000 A 
ATOM     13  C   UNL     1       0.961   2.897  18.861  0.00  0.00    +0.000 A 
ATOM     14  C   UNL     1       1.530   4.035  18.294  0.00  0.00    +0.000 A 
ATOM     15  F   UNL     1       0.987   4.533  17.173  0.00  0.00    +0.000 F 
ENDBRANCH   1   9
BRANCH   1  19
ATOM     16  C   UNL     1       1.306   9.703  19.117  0.00  0.00    +0.000 A 
ATOM     17  C   UNL     1       1.413   8.722  20.108  0.00  0.00    +0.000 A 
ATOM     18  C   UNL     1       2.067   7.512  19.853  0.00  0.00    +0.000 A 
ATOM     19  C   UNL     1       2.560   7.220  18.578  0.00  0.00    +0.000 A 
ATOM     20  C   UNL     1       2.430   8.181  17.569  0.00  0.00    +0.000 A 
ATOM     21  C   UNL     1       1.809   9.414  17.839  0.00  0.00    +0.000 A 
BRANCH  16  23
ATOM     22  N   UNL     1      -0.793  11.131  18.954  0.00  0.00    +0.000 N 
ATOM     23  C   UNL     1       0.565  10.989  19.314  0.00  0.00    +0.000 C 
ATOM     24  O   UNL     1       1.201  11.918  19.823  0.00  0.00    +0.000 OA
BRANCH  22  26
ATOM     25  C   UNL     1      -2.507  12.606  20.012  0.00  0.00    +0.000 C 
ATOM     26  C   UNL     1      -1.348  12.489  19.029  0.00  0.00    +0.000 C 
ENDBRANCH  22  26
BRANCH  22  27
ATOM     27  C   UNL     1      -1.621  10.034  18.437  0.00  0.00    +0.000 C 
ATOM     28  C   UNL     1      -1.975  10.016  16.958  0.00  0.00    +0.000 C 
ENDBRANCH  22  27
ENDBRANCH  16  23
ENDBRANCH   1  19
TORSDOF 5
ENDMDL
MODEL 2
REMARK VINA RESULT:      -8.9      1.856      3.699
REMARK  Name = 
REMARK  7 active torsions:
REMARK  status: ('A' for Active; 'I' for Inactive)
REMARK    1  A    between atoms: C_1  and  C_2
REMARK    2  A    between atoms: C_2  and  N_3
REMARK    3  A    between atoms: N_3  and  C_4
REMARK    4  A    between atoms: C_4  and  C_5
REMARK    5  A    between atoms: C_6  and  C_8
REMARK    6  A    between atoms: C_11  and  C_12
REMARK    7  A    between atoms: C_12  and  C_19
REMARK                            x       y       z     vdW  Elec       q    Type
REMARK                         _______ _______ _______ _____ _____    ______ ____
ROOT
ATOM      1  C   UNL     1       3.525   5.344  18.884  0.00  0.00    +0.000 C 
ATOM      2  C   UNL     1       2.914   4.186  19.253  0.00  0.00    +0.000 C 
ATOM      3  C   UNL     1       1.450   4.050  19.664  0.00  0.00    +0.000 C 
ATOM      4  C   UNL     1       0.734   2.983  18.819  0.00  0.00    +0.000 C 
ATOM      5  N   UNL     1       1.412   1.678  18.843  0.00  0.00    +0.000 NA
ATOM      6  C   UNL     1       2.808   1.814  18.411  0.00  0.00    +0.000 C 
ATOM      7  C   UNL     1       3.583   2.817  19.277  0.00  0.00    +0.000 C 
ATOM      8  H   UNL     1       0.929   1.040  18.210  0.00  0.00    +0.000 HD
ENDROOT
BRANCH   1   9
ATOM      9  C   UNL     1       4.939   5.295  18.446  0.00  0.00    +0.000 A 
ATOM     10  C   UNL     1       5.972   5.632  19.333  0.00  0.00    +0.000 A 
ATOM     11  C   UNL     1       7.306   5.536  18.929  0.00  0.00    +0.000 A 
ATOM     12  C   UNL     1       7.619   5.106  17.638  0.00  0.00    +0.000 A 
ATOM     13  C   UNL     1       6.599   4.767  16.750  0.00  0.00    +0.000 A 
ATOM     14  C   UNL     1       5.270   4.862  17.156  0.00  0.00    +0.000 A 
ATOM     15  F   UNL     1       4.309   4.505  16.292  0.00  0.00    +0.000 F 
ENDBRANCH   1   9
BRANCH   1  19
ATOM     16  C   UNL     1       1.433   9.120  18.937  0.00  0.00    +0.000 A 
ATOM     17  C   UNL     1       2.079   8.667  17.782  0.00  0.00    +0.000 A 
ATOM     18  C   UNL     1       2.715   7.421  17.757  0.00  0.00    +0.000 A 
ATOM     19  C   UNL     1       2.790   6.633  18.910  0.00  0.00    +0.000 A 
ATOM     20  C   UNL     1       2.175   7.092  20.081  0.00  0.00    +0.000 A 
ATOM     21  C   UNL     1       1.500   8.326  20.091  0.00  0.00    +0.000 A 
BRANCH  16  23
ATOM     22  N   UNL     1      -0.462  10.746  18.448  0.00  0.00    +0.000 N 
ATOM     23  C   UNL     1       0.790  10.469  19.039  0.00  0.00    +0.000 C 
ATOM     24  O   UNL     1       1.407  11.325  19.681  0.00  0.00    +0.000 OA
BRANCH  22  26
ATOM     25  C   UNL     1      -1.909  12.449  19.562  0.00  0.00    +0.000 C 
ATOM     26  C   UNL     1      -0.894  12.150  18.465  0.00  0.00    +0.000 C 
ENDBRANCH  22  26
BRANCH  22  27
ATOM     27  C   UNL     1      -1.282   9.741  17.758  0.00  0.00    +0.000 C 
ATOM     28  C   UNL     1      -2.216  10.194  16.647  0.00  0.00    +0.000 C 
ENDBRANCH  22  27
ENDBRANCH  16  23
ENDBRANCH   1  19
TORSDOF 5
ENDMDL
MODEL 3
REMARK VINA RESULT:      -8.8      2.082      3.987
REMARK  Name = 
REMARK  7 active torsions:
REMARK  status: ('A' for Active; 'I' for Inactive)
REMARK    1  A    between atoms: C_1  and  C_2
REMARK    2  A    between atoms: C_2  and  N_3
REMARK    3  A    between atoms: N_3  and  C_4
REMARK    4  A    between atoms: C_4  and  C_5
REMARK    5  A    between atoms: C_6  and  C_8
REMARK    6  A    between atoms: C_11  and  C_12
REMARK    7  A    between atoms: C_12  and  C_19
REMARK                            x       y       z     vdW  Elec       q    Type
REMARK                         _______ _______ _______ _____ _____    ______ ____
ROOT
ATOM      1  C   UNL     1       3.487   5.441  18.495  0.00  0.00    +0.000 C 
ATOM      2  C   UNL     1       3.017   4.233  18.906  0.00  0.00    +0.000 C 
ATOM      3  C   UNL     1       1.683   3.996  19.609  0.00  0.00    +0.000 C 
ATOM      4  C   UNL     1       0.844   2.943  18.864  0.00  0.00    +0.000 C 
ATOM      5  N   UNL     1       1.561   1.677  18.654  0.00  0.00    +0.000 NA
ATOM      6  C   UNL     1       2.825   1.912  17.944  0.00  0.00    +0.000 C 
ATOM      7  C   UNL     1       3.728   2.902  18.692  0.00  0.00    +0.000 C 
ATOM      8  H   UNL     1       0.978   1.053  18.096  0.00  0.00    +0.000 HD
ENDROOT
BRANCH   1   9
ATOM      9  C   UNL     1       4.775   5.493  17.763  0.00  0.00    +0.000 A 
ATOM     10  C   UNL     1       4.799   5.483  16.361  0.00  0.00    +0.000 A 
ATOM     11  C   UNL     1       6.012   5.583  15.677  0.00  0.00    +0.000 A 
ATOM     12  C   UNL     1       7.210   5.691  16.386  0.00  0.00    +0.000 A 
ATOM     13  C   UNL     1       7.196   5.704  17.780  0.00  0.00    +0.000 A 
ATOM     14  C   UNL     1       5.984   5.606  18.459  0.00  0.00    +0.000 A 
ATOM     15  F   UNL     1       5.996   5.648  19.800  0.00  0.00    +0.000 F 
ENDBRANCH   1   9
BRANCH   1  19
ATOM     16  C   UNL     1       1.314   9.092  19.260  0.00  0.00    +0.000 A 
ATOM     17  C   UNL     1       1.861   8.826  18.001  0.00  0.00    +0.000 A 
ATOM     18  C   UNL     1       2.523   7.620  17.746  0.00  0.00    +0.000 A 
ATOM     19  C   UNL     1       2.725   6.685  18.766  0.00  0.00    +0.000 A 
ATOM     20  C   UNL     1       2.212   6.957  20.040  0.00  0.00    +0.000 A 
ATOM     21  C   UNL     1       1.509   8.151  20.282  0.00  0.00    +0.000 A 
BRANCH  16  23
ATOM     22  N   UNL     1      -0.489  10.853  18.912  0.00  0.00    +0.000 N 
ATOM     23  C   UNL     1       0.650  10.389  19.606  0.00  0.00    +0.000 C 
ATOM     24  O   UNL     1       1.142  11.027  20.542  0.00  0.00    +0.000 OA
BRANCH  22  26
ATOM     25  C   UNL     1      -0.395  13.258  18.249  0.00  0.00    +0.000 C 
ATOM     26  C   UNL     1      -0.932  12.218  19.226  0.00  0.00    +0.000 C 
ENDBRANCH  22  26
BRANCH  22  27
ATOM     27  C   UNL     1      -1.172  10.091  17.857  0.00  0.00    +0.000 C 
ATOM     28  C   UNL     1      -2.691  10.088  17.821  0.00  0.00    +0.000 C 
ENDBRANCH  22  27
ENDBRANCH  16  23
ENDBRANCH   1  19
TORSDOF 5
ENDMDL
MODEL 4
REMARK VINA RESULT:      -8.8      0.927      1.310
REMARK  Name = 
REMARK  7 active torsions:
REMARK  status: ('A' for Active; 'I' for Inactive)
REMARK    1  A    between atoms: C_1  and  C_2
REMARK    2  A    between atoms: C_2  and  N_3
REMARK    3  A    between atoms: N_3  and  C_4
REMARK    4  A    between atoms: C_4  and  C_5
REMARK    5  A    between atoms: C_6  and  C_8
REMARK    6  A    between atoms: C_11  and  C_12
REMARK    7  A    between atoms: C_12  and  C_19
REMARK                            x       y       z     vdW  Elec       q    Type
REMARK                         _______ _______ _______ _____ _____    ______ ____
ROOT
ATOM      1  C   UNL     1       3.246   5.862  18.113  0.00  0.00    +0.000 C 
ATOM      2  C   UNL     1       4.369   5.822  17.348  0.00  0.00    +0.000 C 
ATOM      3  C   UNL     1       5.125   7.038  16.820  0.00  0.00    +0.000 C 
ATOM      4  C   UNL     1       6.608   6.987  17.222  0.00  0.00    +0.000 C 
ATOM      5  N   UNL     1       7.272   5.738  16.820  0.00  0.00    +0.000 NA
ATOM      6  C   UNL     1       6.560   4.576  17.364  0.00  0.00    +0.000 C 
ATOM      7  C   UNL     1       5.090   4.547  16.925  0.00  0.00    +0.000 C 
ATOM      8  H   UNL     1       8.228   5.739  17.178  0.00  0.00    +0.000 HD
ENDROOT
BRANCH   1   9
ATOM      9  C   UNL     1       2.671   4.588  18.604  0.00  0.00    +0.000 A 
ATOM     10  C   UNL     1       1.526   4.044  18.003  0.00  0.00    +0.000 A 
ATOM     11  C   UNL     1       1.018   2.818  18.438  0.00  0.00    +0.000 A 
ATOM     12  C   UNL     1       1.646   2.126  19.476  0.00  0.00    +0.000 A 
ATOM     13  C   UNL     1       2.786   2.659  20.077  0.00  0.00    +0.000 A 
ATOM     14  C   UNL     1       3.291   3.881  19.641  0.00  0.00    +0.000 A 
ATOM     15  F   UNL     1       4.404   4.358  20.218  0.00  0.00    +0.000 F 
ENDBRANCH   1   9
BRANCH   1  19
ATOM     16  C   UNL     1       1.347   9.601  19.143  0.00  0.00    +0.000 A 
ATOM     17  C   UNL     1       1.488   8.577  20.085  0.00  0.00    +0.000 A 
ATOM     18  C   UNL     1       2.146   7.386  19.759  0.00  0.00    +0.000 A 
ATOM     19  C   UNL     1       2.609   7.157  18.459  0.00  0.00    +0.000 A 
ATOM     20  C   UNL     1       2.444   8.162  17.499  0.00  0.00    +0.000 A 
ATOM     21  C   UNL     1       1.819   9.375  17.841  0.00  0.00    +0.000 A 
BRANCH  16  23
ATOM     22  N   UNL     1      -0.745  11.043  19.026  0.00  0.00    +0.000 N 
ATOM     23  C   UNL     1       0.600  10.869  19.417  0.00  0.00    +0.000 C 
ATOM     24  O   UNL     1       1.220  11.753  20.018  0.00  0.00    +0.000 OA
BRANCH  22  26
ATOM     25  C   UNL     1      -2.293  12.492  20.344  0.00  0.00    +0.000 C 
ATOM     26  C   UNL     1      -1.303  12.392  19.190  0.00  0.00    +0.000 C 
ENDBRANCH  22  26
BRANCH  22  27
ATOM     27  C   UNL     1      -1.556   9.993  18.396  0.00  0.00    +0.000 C 
ATOM     28  C   UNL     1      -2.049  10.200  16.972  0.00  0.00    +0.000 C 
ENDBRANCH  22  27
ENDBRANCH  16  23
ENDBRANCH   1  19
TORSDOF 5
ENDMDL
MODEL 5
REMARK VINA RESULT:      -8.7      1.007      1.702
REMARK  Name = 
REMARK  7 active torsions:
REMARK  status: ('A' for Active; 'I' for Inactive)
REMARK    1  A    between atoms: C_1  and  C_2
REMARK    2  A    between atoms: C_2  and  N_3
REMARK    3  A    between atoms: N_3  and  C_4
REMARK    4  A    between atoms: C_4  and  C_5
REMARK    5  A    between atoms: C_6  and  C_8
REMARK    6  A    between atoms: C_11  and  C_12
REMARK    7  A    between atoms: C_12  and  C_19
REMARK                            x       y       z     vdW  Elec       q    Type
REMARK                         _______ _______ _______ _____ _____    ______ ____
ROOT
ATOM      1  C   UNL     1       3.236   5.818  18.120  0.00  0.00    +0.000 C 
ATOM      2  C   UNL     1       4.366   5.802  17.364  0.00  0.00    +0.000 C 
ATOM      3  C   UNL     1       5.104   7.034  16.850  0.00  0.00    +0.000 C 
ATOM      4  C   UNL     1       6.585   7.007  17.266  0.00  0.00    +0.000 C 
ATOM      5  N   UNL     1       7.275   5.774  16.862  0.00  0.00    +0.000 NA
ATOM      6  C   UNL     1       6.579   4.596  17.393  0.00  0.00    +0.000 C 
ATOM      7  C   UNL     1       5.114   4.542  16.940  0.00  0.00    +0.000 C 
ATOM      8  H   UNL     1       8.227   5.789  17.228  0.00  0.00    +0.000 HD
ENDROOT
BRANCH   1   9
ATOM      9  C   UNL     1       2.680   4.531  18.599  0.00  0.00    +0.000 A 
ATOM     10  C   UNL     1       1.530   3.987  18.006  0.00  0.00    +0.000 A 
ATOM     11  C   UNL     1       1.040   2.748  18.428  0.00  0.00    +0.000 A 
ATOM     12  C   UNL     1       1.690   2.046  19.445  0.00  0.00    +0.000 A 
ATOM     13  C   UNL     1       2.834   2.578  20.038  0.00  0.00    +0.000 A 
ATOM     14  C   UNL     1       3.321   3.812  19.614  0.00  0.00    +0.000 A 
ATOM     15  F   UNL     1       4.439   4.289  20.182  0.00  0.00    +0.000 F 
ENDBRANCH   1   9
BRANCH   1  19
ATOM     16  C   UNL     1       1.350   9.575  19.106  0.00  0.00    +0.000 A 
ATOM     17  C   UNL     1       1.797   9.308  17.808  0.00  0.00    +0.000 A 
ATOM     18  C   UNL     1       2.364   8.070  17.484  0.00  0.00    +0.000 A 
ATOM     19  C   UNL     1       2.573   7.099  18.468  0.00  0.00    +0.000 A 
ATOM     20  C   UNL     1       2.161   7.368  19.778  0.00  0.00    +0.000 A 
ATOM     21  C   UNL     1       1.552   8.597  20.092  0.00  0.00    +0.000 A 
BRANCH  16  23
ATOM     22  N   UNL     1      -0.561  11.242  19.310  0.00  0.00    +0.000 N 
ATOM     23  C   UNL     1       0.793  10.900  19.524  0.00  0.00    +0.000 C 
ATOM     24  O   UNL     1       1.577  11.676  20.079  0.00  0.00    +0.000 OA
BRANCH  22  26
ATOM     25  C   UNL     1      -0.516  13.602  18.499  0.00  0.00    +0.000 C 
ATOM     26  C   UNL     1      -0.935  12.633  19.598  0.00  0.00    +0.000 C 
ENDBRANCH  22  26
BRANCH  22  27
ATOM     27  C   UNL     1      -1.557  10.322  18.743  0.00  0.00    +0.000 C 
ATOM     28  C   UNL     1      -1.826  10.364  17.247  0.00  0.00    +0.000 C 
ENDBRANCH  22  27
ENDBRANCH  16  23
ENDBRANCH   1  19
TORSDOF 5
ENDMDL
MODEL 6
REMARK VINA RESULT:      -8.6      1.212      1.694
REMARK  Name = 
REMARK  7 active torsions:
REMARK  status: ('A' for Active; 'I' for Inactive)
REMARK    1  A    between atoms: C_1  and  C_2
REMARK    2  A    between atoms: C_2  and  N_3
REMARK    3  A    between atoms: N_3  and  C_4
REMARK    4  A    between atoms: C_4  and  C_5
REMARK    5  A    between atoms: C_6  and  C_8
REMARK    6  A    between atoms: C_11  and  C_12
REMARK    7  A    between atoms: C_12  and  C_19
REMARK                            x       y       z     vdW  Elec       q    Type
REMARK                         _______ _______ _______ _____ _____    ______ ____
ROOT
ATOM      1  C   UNL     1       3.209   5.843  18.217  0.00  0.00    +0.000 C 
ATOM      2  C   UNL     1       4.332   5.869  17.449  0.00  0.00    +0.000 C 
ATOM      3  C   UNL     1       5.016   7.127  16.924  0.00  0.00    +0.000 C 
ATOM      4  C   UNL     1       6.501   7.159  17.324  0.00  0.00    +0.000 C 
ATOM      5  N   UNL     1       7.234   5.952  16.916  0.00  0.00    +0.000 NA
ATOM      6  C   UNL     1       6.589   4.750  17.458  0.00  0.00    +0.000 C 
ATOM      7  C   UNL     1       5.123   4.637  17.021  0.00  0.00    +0.000 C 
ATOM      8  H   UNL     1       8.189   6.006  17.272  0.00  0.00    +0.000 HD
ENDROOT
BRANCH   1   9
ATOM      9  C   UNL     1       2.709   4.537  18.705  0.00  0.00    +0.000 A 
ATOM     10  C   UNL     1       3.333   3.891  19.783  0.00  0.00    +0.000 A 
ATOM     11  C   UNL     1       2.825   2.685  20.270  0.00  0.00    +0.000 A 
ATOM     12  C   UNL     1       1.694   2.112  19.685  0.00  0.00    +0.000 A 
ATOM     13  C   UNL     1       1.066   2.748  18.615  0.00  0.00    +0.000 A 
ATOM     14  C   UNL     1       1.573   3.951  18.132  0.00  0.00    +0.000 A 
ATOM     15  F   UNL     1       0.935   4.556  17.119  0.00  0.00    +0.000 F 
ENDBRANCH   1   9
BRANCH   1  19
ATOM     16  C   UNL     1       1.108   9.466  19.268  0.00  0.00    +0.000 A 
ATOM     17  C   UNL     1       1.478   8.534  20.244  0.00  0.00    +0.000 A 
ATOM     18  C   UNL     1       2.200   7.385  19.903  0.00  0.00    +0.000 A 
ATOM     19  C   UNL     1       2.501   7.099  18.568  0.00  0.00    +0.000 A 
ATOM     20  C   UNL     1       2.106   8.008  17.579  0.00  0.00    +0.000 A 
ATOM     21  C   UNL     1       1.417   9.183  17.929  0.00  0.00    +0.000 A 
BRANCH  16  23
ATOM     22  N   UNL     1       0.822  11.983  19.496  0.00  0.00    +0.000 N 
ATOM     23  C   UNL     1       0.284  10.680  19.566  0.00  0.00    +0.000 C 
ATOM     24  O   UNL     1      -0.899  10.482  19.863  0.00  0.00    +0.000 OA
BRANCH  22  26
ATOM     25  C   UNL     1       0.294  13.492  21.414  0.00  0.00    +0.000 C 
ATOM     26  C   UNL     1      -0.037  13.069  19.987  0.00  0.00    +0.000 C 
ENDBRANCH  22  26
BRANCH  22  27
ATOM     27  C   UNL     1       2.192  12.281  19.056  0.00  0.00    +0.000 C 
ATOM     28  C   UNL     1       2.411  13.391  18.041  0.00  0.00    +0.000 C 
ENDBRANCH  22  27
ENDBRANCH  16  23
ENDBRANCH   1  19
TORSDOF 5
ENDMDL
MODEL 7
REMARK VINA RESULT:      -8.5      1.240      1.974
REMARK  Name = 
REMARK  7 active torsions:
REMARK  status: ('A' for Active; 'I' for Inactive)
REMARK    1  A    between atoms: C_1  and  C_2
REMARK    2  A    between atoms: C_2  and  N_3
REMARK    3  A    between atoms: N_3  and  C_4
REMARK    4  A    between atoms: C_4  and  C_5
REMARK    5  A    between atoms: C_6  and  C_8
REMARK    6  A    between atoms: C_11  and  C_12
REMARK    7  A    between atoms: C_12  and  C_19
REMARK                            x       y       z     vdW  Elec       q    Type
REMARK                         _______ _______ _______ _____ _____    ______ ____
ROOT
ATOM      1  C   UNL     1       3.210   5.810  18.217  0.00  0.00    +0.000 C 
ATOM      2  C   UNL     1       4.334   5.831  17.451  0.00  0.00    +0.000 C 
ATOM      3  C   UNL     1       5.020   7.087  16.921  0.00  0.00    +0.000 C 
ATOM      4  C   UNL     1       6.504   7.120  17.324  0.00  0.00    +0.000 C 
ATOM      5  N   UNL     1       7.237   5.910  16.923  0.00  0.00    +0.000 NA
ATOM      6  C   UNL     1       6.591   4.711  17.469  0.00  0.00    +0.000 C 
ATOM      7  C   UNL     1       5.125   4.598  17.029  0.00  0.00    +0.000 C 
ATOM      8  H   UNL     1       8.191   5.965  17.280  0.00  0.00    +0.000 HD
ENDROOT
BRANCH   1   9
ATOM      9  C   UNL     1       2.708   4.506  18.709  0.00  0.00    +0.000 A 
ATOM     10  C   UNL     1       3.331   3.863  19.789  0.00  0.00    +0.000 A 
ATOM     11  C   UNL     1       2.822   2.659  20.281  0.00  0.00    +0.000 A 
ATOM     12  C   UNL     1       1.690   2.086  19.698  0.00  0.00    +0.000 A 
ATOM     13  C   UNL     1       1.063   2.719  18.625  0.00  0.00    +0.000 A 
ATOM     14  C   UNL     1       1.572   3.920  18.138  0.00  0.00    +0.000 A 
ATOM     15  F   UNL     1       0.934   4.522  17.123  0.00  0.00    +0.000 F 
ENDBRANCH   1   9
BRANCH   1  19
ATOM     16  C   UNL     1       1.188   9.499  19.188  0.00  0.00    +0.000 A 
ATOM     17  C   UNL     1       1.534   9.188  17.869  0.00  0.00    +0.000 A 
ATOM     18  C   UNL     1       2.146   7.970  17.554  0.00  0.00    +0.000 A 
ATOM     19  C   UNL     1       2.502   7.067  18.561  0.00  0.00    +0.000 A 
ATOM     20  C   UNL     1       2.191   7.383  19.889  0.00  0.00    +0.000 A 
ATOM     21  C   UNL     1       1.537   8.590  20.198  0.00  0.00    +0.000 A 
BRANCH  16  23
ATOM     22  N   UNL     1       1.162  12.043  19.208  0.00  0.00    +0.000 N 
ATOM     23  C   UNL     1       0.588  10.811  19.590  0.00  0.00    +0.000 C 
ATOM     24  O   UNL     1      -0.447  10.759  20.263  0.00  0.00    +0.000 OA
BRANCH  22  26
ATOM     25  C   UNL     1      -0.432  13.941  18.917  0.00  0.00    +0.000 C 
ATOM     26  C   UNL     1       0.583  13.248  19.817  0.00  0.00    +0.000 C 
ENDBRANCH  22  26
BRANCH  22  27
ATOM     27  C   UNL     1       2.334  12.163  18.330  0.00  0.00    +0.000 C 
ATOM     28  C   UNL     1       3.086  13.483  18.285  0.00  0.00    +0.000 C 
ENDBRANCH  22  27
ENDBRANCH  16  23
ENDBRANCH   1  19
TORSDOF 5
ENDMDL
MODEL 8
REMARK VINA RESULT:      -8.5      1.099      1.791
REMARK  Name = 
REMARK  7 active torsions:
REMARK  status: ('A' for Active; 'I' for Inactive)
REMARK    1  A    between atoms: C_1  and  C_2
REMARK    2  A    between atoms: C_2  and  N_3
REMARK    3  A    between atoms: N_3  and  C_4
REMARK    4  A    between atoms: C_4  and  C_5
REMARK    5  A    between atoms: C_6  and  C_8
REMARK    6  A    between atoms: C_11  and  C_12
REMARK    7  A    between atoms: C_12  and  C_19
REMARK                            x       y       z     vdW  Elec       q    Type
REMARK                         _______ _______ _______ _____ _____    ______ ____
ROOT
ATOM      1  C   UNL     1       3.230   5.740  18.185  0.00  0.00    +0.000 C 
ATOM      2  C   UNL     1       4.335   5.748  17.393  0.00  0.00    +0.000 C 
ATOM      3  C   UNL     1       5.041   6.996  16.871  0.00  0.00    +0.000 C 
ATOM      4  C   UNL     1       6.535   6.983  17.238  0.00  0.00    +0.000 C 
ATOM      5  N   UNL     1       7.226   5.763  16.796  0.00  0.00    +0.000 NA
ATOM      6  C   UNL     1       6.562   4.570  17.334  0.00  0.00    +0.000 C 
ATOM      7  C   UNL     1       5.084   4.503  16.928  0.00  0.00    +0.000 C 
ATOM      8  H   UNL     1       8.190   5.786  17.132  0.00  0.00    +0.000 HD
ENDROOT
BRANCH   1   9
ATOM      9  C   UNL     1       2.705   4.440  18.664  0.00  0.00    +0.000 A 
ATOM     10  C   UNL     1       3.332   3.764  19.721  0.00  0.00    +0.000 A 
ATOM     11  C   UNL     1       2.803   2.564  20.201  0.00  0.00    +0.000 A 
ATOM     12  C   UNL     1       1.647   2.028  19.630  0.00  0.00    +0.000 A 
ATOM     13  C   UNL     1       1.016   2.694  18.580  0.00  0.00    +0.000 A 
ATOM     14  C   UNL     1       1.545   3.892  18.104  0.00  0.00    +0.000 A 
ATOM     15  F   UNL     1       0.903   4.526  17.112  0.00  0.00    +0.000 F 
ENDBRANCH   1   9
BRANCH   1  19
ATOM     16  C   UNL     1       1.329   9.460  19.276  0.00  0.00    +0.000 A 
ATOM     17  C   UNL     1       1.668   9.183  17.948  0.00  0.00    +0.000 A 
ATOM     18  C   UNL     1       2.240   7.956  17.594  0.00  0.00    +0.000 A 
ATOM     19  C   UNL     1       2.563   7.009  18.570  0.00  0.00    +0.000 A 
ATOM     20  C   UNL     1       2.259   7.290  19.907  0.00  0.00    +0.000 A 
ATOM     21  C   UNL     1       1.645   8.506  20.255  0.00  0.00    +0.000 A 
BRANCH  16  23
ATOM     22  N   UNL     1      -0.134  10.878  20.800  0.00  0.00    +0.000 N 
ATOM     23  C   UNL     1       0.772  10.777  19.721  0.00  0.00    +0.000 C 
ATOM     24  O   UNL     1       1.158  11.775  19.103  0.00  0.00    +0.000 OA
BRANCH  22  26
ATOM     25  C   UNL     1      -2.137  12.316  20.411  0.00  0.00    +0.000 C 
ATOM     26  C   UNL     1      -0.744  12.197  21.016  0.00  0.00    +0.000 C 
ENDBRANCH  22  26
BRANCH  22  27
ATOM     27  C   UNL     1      -0.550   9.739  21.629  0.00  0.00    +0.000 C 
ATOM     28  C   UNL     1      -0.370   9.824  23.136  0.00  0.00    +0.000 C 
ENDBRANCH  22  27
ENDBRANCH  16  23
ENDBRANCH   1  19
TORSDOF 5
ENDMDL
MODEL 9
REMARK VINA RESULT:      -8.4      2.151      3.935
REMARK  Name = 
REMARK  7 active torsions:
REMARK  status: ('A' for Active; 'I' for Inactive)
REMARK    1  A    between atoms: C_1  and  C_2
REMARK    2  A    between atoms: C_2  and  N_3
REMARK    3  A    between atoms: N_3  and  C_4
REMARK    4  A    between atoms: C_4  and  C_5
REMARK    5  A    between atoms: C_6  and  C_8
REMARK    6  A    between atoms: C_11  and  C_12
REMARK    7  A    between atoms: C_12  and  C_19
REMARK                            x       y       z     vdW  Elec       q    Type
REMARK                         _______ _______ _______ _____ _____    ______ ____
ROOT
ATOM      1  C   UNL     1       3.583   5.217  18.897  0.00  0.00    +0.000 C 
ATOM      2  C   UNL     1       3.003   4.025  19.201  0.00  0.00    +0.000 C 
ATOM      3  C   UNL     1       1.553   3.832  19.637  0.00  0.00    +0.000 C 
ATOM      4  C   UNL     1       0.835   2.812  18.739  0.00  0.00    +0.000 C 
ATOM      5  N   UNL     1       1.536   1.522  18.656  0.00  0.00    +0.000 NA
ATOM      6  C   UNL     1       2.917   1.714  18.199  0.00  0.00    +0.000 C 
ATOM      7  C   UNL     1       3.696   2.670  19.113  0.00  0.00    +0.000 C 
ATOM      8  H   UNL     1       1.048   0.919  17.993  0.00  0.00    +0.000 HD
ENDROOT
BRANCH   1   9
ATOM      9  C   UNL     1       4.986   5.226  18.421  0.00  0.00    +0.000 A 
ATOM     10  C   UNL     1       6.035   5.536  19.299  0.00  0.00    +0.000 A 
ATOM     11  C   UNL     1       7.359   5.494  18.857  0.00  0.00    +0.000 A 
ATOM     12  C   UNL     1       7.647   5.145  17.536  0.00  0.00    +0.000 A 
ATOM     13  C   UNL     1       6.612   4.833  16.657  0.00  0.00    +0.000 A 
ATOM     14  C   UNL     1       5.292   4.874  17.101  0.00  0.00    +0.000 A 
ATOM     15  F   UNL     1       4.316   4.544  16.242  0.00  0.00    +0.000 F 
ENDBRANCH   1   9
BRANCH   1  19
ATOM     16  C   UNL     1       1.339   8.881  19.314  0.00  0.00    +0.000 A 
ATOM     17  C   UNL     1       1.591   8.057  20.415  0.00  0.00    +0.000 A 
ATOM     18  C   UNL     1       2.359   6.895  20.283  0.00  0.00    +0.000 A 
ATOM     19  C   UNL     1       2.826   6.486  19.030  0.00  0.00    +0.000 A 
ATOM     20  C   UNL     1       2.552   7.286  17.914  0.00  0.00    +0.000 A 
ATOM     21  C   UNL     1       1.815   8.475  18.058  0.00  0.00    +0.000 A 
BRANCH  16  23
ATOM     22  N   UNL     1       0.926  11.364  18.941  0.00  0.00    +0.000 N 
ATOM     23  C   UNL     1       0.474  10.102  19.385  0.00  0.00    +0.000 C 
ATOM     24  O   UNL     1      -0.663   9.944  19.840  0.00  0.00    +0.000 OA
BRANCH  22  26
ATOM     25  C   UNL     1      -0.843  12.890  18.060  0.00  0.00    +0.000 C 
ATOM     26  C   UNL     1       0.052  12.508  19.234  0.00  0.00    +0.000 C 
ENDBRANCH  22  26
BRANCH  22  27
ATOM     27  C   UNL     1       2.230  11.589  18.304  0.00  0.00    +0.000 C 
ATOM     28  C   UNL     1       2.803  12.997  18.281  0.00  0.00    +0.000 C 
ENDBRANCH  22  27
ENDBRANCH  16  23
ENDBRANCH   1  19
TORSDOF 5
ENDMDL
