MODEL 1
REMARK VINA RESULT:      -8.1      0.000      0.000
REMARK  Name = 
REMARK  8 active torsions:
REMARK  status: ('A' for Active; 'I' for Inactive)
REMARK    1  A    between atoms: C_1  and  O_2
REMARK    2  A    between atoms: O_2  and  C_3
REMARK    3  A    between atoms: C_8  and  N_9
REMARK    4  A    between atoms: C_10  and  C_11
REMARK    5  A    between atoms: C_13  and  C_14
REMARK    6  A    between atoms: C_21  and  O_22
REMARK    7  A    between atoms: O_22  and  C_23
REMARK    8  A    between atoms: C_23  and  C_24
REMARK                            x       y       z     vdW  Elec       q    Type
REMARK                         _______ _______ _______ _____ _____    ______ ____
ROOT
ATOM      1  C   UNL     1       2.517   6.314  19.688  0.00  0.00    +0.000 A 
ATOM      2  N   UNL     1       3.067   6.594  18.432  0.00  0.00    +0.000 NA
ATOM      3  C   UNL     1       3.742   5.508  18.114  0.00  0.00    +0.000 A 
ATOM      4  O   UNL     1       3.639   4.512  19.041  0.00  0.00    +0.000 OA
ATOM      5  C   UNL     1       2.873   5.021  20.053  0.00  0.00    +0.000 A 
ENDROOT
BRANCH   3   6
ATOM      6  C   UNL     1       4.630   5.228  16.979  0.00  0.00    +0.000 A 
ATOM      7  C   UNL     1       5.047   3.918  16.705  0.00  0.00    +0.000 A 
ATOM      8  C   UNL     1       5.838   3.634  15.584  0.00  0.00    +0.000 A 
ATOM      9  C   UNL     1       6.222   4.656  14.721  0.00  0.00    +0.000 A 
ATOM     10  C   UNL     1       5.835   5.966  14.983  0.00  0.00    +0.000 A 
ATOM     11  C   UNL     1       5.049   6.249  16.105  0.00  0.00    +0.000 A 
ENDBRANCH   3   6
BRANCH   1  13
ATOM     12  N   UNL     1       1.427   8.452  20.010  0.00  0.00    +0.000 NA
ATOM     13  C   UNL     1       1.754   7.276  20.459  0.00  0.00    +0.000 C 
BRANCH  12  19
ATOM     14  C   UNL     1      -0.015  10.433  20.548  0.00  0.00    +0.000 A 
ATOM     15  C   UNL     1      -0.787  11.123  21.495  0.00  0.00    +0.000 A 
ATOM     16  C   UNL     1      -0.792  10.719  22.829  0.00  0.00    +0.000 A 
ATOM     17  C   UNL     1      -0.042   9.615  23.220  0.00  0.00    +0.000 A 
ATOM     18  C   UNL     1       0.687   8.890  22.269  0.00  0.00    +0.000 A 
ATOM     19  C   UNL     1       0.694   9.264  20.919  0.00  0.00    +0.000 A 
BRANCH  14  21
ATOM     20  C   UNL     1      -1.216  10.764  18.545  0.00  0.00    +0.000 C 
ATOM     21  O   UNL     1       0.031  10.817  19.228  0.00  0.00    +0.000 OA
ENDBRANCH  14  21
ENDBRANCH  12  19
ENDBRANCH   1  13
BRANCH   5  22
ATOM     22  O   UNL     1       2.745   4.137  21.019  0.00  0.00    +0.000 OA
BRANCH  22  23
ATOM     23  C   UNL     1       1.728   3.294  21.235  0.00  0.00    +0.000 C 
ATOM     24  C   UNL     1       0.813   3.277  20.049  0.00  0.00    +0.000 C 
ATOM     25  O   UNL     1       1.511   2.621  22.229  0.00  0.00    +0.000 OA
ENDBRANCH  22  23
ENDBRANCH   5  22
TORSDOF 6
ENDMDL
MODEL 2
REMARK VINA RESULT:      -8.0      1.656      7.653
REMARK  Name = 
REMARK  8 active torsions:
REMARK  status: ('A' for Active; 'I' for Inactive)
REMARK    1  A    between atoms: C_1  and  O_2
REMARK    2  A    between atoms: O_2  and  C_3
REMARK    3  A    between atoms: C_8  and  N_9
REMARK    4  A    between atoms: C_10  and  C_11
REMARK    5  A    between atoms: C_13  and  C_14
REMARK    6  A    between atoms: C_21  and  O_22
REMARK    7  A    between atoms: O_22  and  C_23
REMARK    8  A    between atoms: C_23  and  C_24
REMARK                            x       y       z     vdW  Elec       q    Type
REMARK                         _______ _______ _______ _____ _____    ______ ____
ROOT
ATOM      1  C   UNL     1       2.434   6.503  19.609  0.00  0.00    +0.000 A 
ATOM      2  N   UNL     1       2.215   7.862  19.862  0.00  0.00    +0.000 NA
ATOM      3  C   UNL     1       1.254   7.883  20.763  0.00  0.00    +0.000 A 
ATOM      4  O   UNL     1       0.856   6.641  21.163  0.00  0.00    +0.000 OA
ATOM      5  C   UNL     1       1.591   5.756  20.424  0.00  0.00    +0.000 A 
ENDROOT
BRANCH   3   6
ATOM      6  C   UNL     1       0.506   9.005  21.342  0.00  0.00    +0.000 A 
ATOM      7  C   UNL     1       0.048   8.951  22.666  0.00  0.00    +0.000 A 
ATOM      8  C   UNL     1      -0.607  10.045  23.246  0.00  0.00    +0.000 A 
ATOM      9  C   UNL     1      -0.812  11.210  22.511  0.00  0.00    +0.000 A 
ATOM     10  C   UNL     1      -0.383  11.279  21.190  0.00  0.00    +0.000 A 
ATOM     11  C   UNL     1       0.268  10.185  20.610  0.00  0.00    +0.000 A 
ENDBRANCH   3   6
BRANCH   1  13
ATOM     12  N   UNL     1       4.436   5.340  18.902  0.00  0.00    +0.000 NA
ATOM     13  C   UNL     1       3.364   6.016  18.609  0.00  0.00    +0.000 C 
BRANCH  12  19
ATOM     14  C   UNL     1       6.644   4.817  17.833  0.00  0.00    +0.000 A 
ATOM     15  C   UNL     1       7.344   4.353  16.709  0.00  0.00    +0.000 A 
ATOM     16  C   UNL     1       6.674   4.118  15.510  0.00  0.00    +0.000 A 
ATOM     17  C   UNL     1       5.302   4.328  15.432  0.00  0.00    +0.000 A 
ATOM     18  C   UNL     1       4.590   4.738  16.565  0.00  0.00    +0.000 A 
ATOM     19  C   UNL     1       5.236   4.964  17.787  0.00  0.00    +0.000 A 
BRANCH  14  21
ATOM     20  C   UNL     1       8.006   6.302  19.059  0.00  0.00    +0.000 C 
ATOM     21  O   UNL     1       7.277   5.081  19.026  0.00  0.00    +0.000 OA
ENDBRANCH  14  21
ENDBRANCH  12  19
ENDBRANCH   1  13
BRANCH   5  22
ATOM     22  O   UNL     1       1.251   4.519  20.718  0.00  0.00    +0.000 OA
BRANCH  22  23
ATOM     23  C   UNL     1       2.044   3.521  21.125  0.00  0.00    +0.000 C 
ATOM     24  C   UNL     1       2.385   2.630  19.970  0.00  0.00    +0.000 C 
ATOM     25  O   UNL     1       2.453   3.303  22.254  0.00  0.00    +0.000 OA
ENDBRANCH  22  23
ENDBRANCH   5  22
TORSDOF 6
ENDMDL
MODEL 3
REMARK VINA RESULT:      -8.0      1.645      7.732
REMARK  Name = 
REMARK  8 active torsions:
REMARK  status: ('A' for Active; 'I' for Inactive)
REMARK    1  A    between atoms: C_1  and  O_2
REMARK    2  A    between atoms: O_2  and  C_3
REMARK    3  A    between atoms: C_8  and  N_9
REMARK    4  A    between atoms: C_10  and  C_11
REMARK    5  A    between atoms: C_13  and  C_14
REMARK    6  A    between atoms: C_21  and  O_22
REMARK    7  A    between atoms: O_22  and  C_23
REMARK    8  A    between atoms: C_23  and  C_24
REMARK                            x       y       z     vdW  Elec       q    Type
REMARK                         _______ _______ _______ _____ _____    ______ ____
ROOT
ATOM      1  C   UNL     1       2.564   6.820  19.498  0.00  0.00    +0.000 A 
ATOM      2  N   UNL     1       2.171   8.159  19.595  0.00  0.00    +0.000 NA
ATOM      3  C   UNL     1       1.328   8.188  20.608  0.00  0.00    +0.000 A 
ATOM      4  O   UNL     1       1.173   6.979  21.220  0.00  0.00    +0.000 OA
ATOM      5  C   UNL     1       1.944   6.099  20.512  0.00  0.00    +0.000 A 
ENDROOT
BRANCH   3   6
ATOM      6  C   UNL     1       0.491   9.275  21.128  0.00  0.00    +0.000 A 
ATOM      7  C   UNL     1       0.008  10.276  20.273  0.00  0.00    +0.000 A 
ATOM      8  C   UNL     1      -0.848  11.278  20.750  0.00  0.00    +0.000 A 
ATOM      9  C   UNL     1      -1.234  11.292  22.088  0.00  0.00    +0.000 A 
ATOM     10  C   UNL     1      -0.752  10.319  22.958  0.00  0.00    +0.000 A 
ATOM     11  C   UNL     1       0.106   9.321  22.482  0.00  0.00    +0.000 A 
ENDBRANCH   3   6
BRANCH   1  13
ATOM     12  N   UNL     1       4.671   5.970  18.663  0.00  0.00    +0.000 NA
ATOM     13  C   UNL     1       3.435   6.315  18.455  0.00  0.00    +0.000 C 
BRANCH  12  19
ATOM     14  C   UNL     1       6.623   4.848  17.556  0.00  0.00    +0.000 A 
ATOM     15  C   UNL     1       7.202   4.354  16.378  0.00  0.00    +0.000 A 
ATOM     16  C   UNL     1       6.600   4.592  15.144  0.00  0.00    +0.000 A 
ATOM     17  C   UNL     1       5.410   5.309  15.081  0.00  0.00    +0.000 A 
ATOM     18  C   UNL     1       4.800   5.758  16.258  0.00  0.00    +0.000 A 
ATOM     19  C   UNL     1       5.374   5.516  17.513  0.00  0.00    +0.000 A 
BRANCH  14  21
ATOM     20  C   UNL     1       7.998   5.734  19.256  0.00  0.00    +0.000 C 
ATOM     21  O   UNL     1       7.201   4.651  18.789  0.00  0.00    +0.000 OA
ENDBRANCH  14  21
ENDBRANCH  12  19
ENDBRANCH   1  13
BRANCH   5  22
ATOM     22  O   UNL     1       1.832   4.886  21.012  0.00  0.00    +0.000 OA
BRANCH  22  23
ATOM     23  C   UNL     1       1.374   3.785  20.406  0.00  0.00    +0.000 C 
ATOM     24  C   UNL     1       1.386   2.629  21.360  0.00  0.00    +0.000 C 
ATOM     25  O   UNL     1       0.999   3.666  19.251  0.00  0.00    +0.000 OA
ENDBRANCH  22  23
ENDBRANCH   5  22
TORSDOF 6
ENDMDL
MODEL 4
REMARK VINA RESULT:      -7.9      0.694      1.024
REMARK  Name = 
REMARK  8 active torsions:
REMARK  status: ('A' for Active; 'I' for Inactive)
REMARK    1  A    between atoms: C_1  and  O_2
REMARK    2  A    between atoms: O_2  and  C_3
REMARK    3  A    between atoms: C_8  and  N_9
REMARK    4  A    between atoms: C_10  and  C_11
REMARK    5  A    between atoms: C_13  and  C_14
REMARK    6  A    between atoms: C_21  and  O_22
REMARK    7  A    between atoms: O_22  and  C_23
REMARK    8  A    between atoms: C_23  and  C_24
REMARK                            x       y       z     vdW  Elec       q    Type
REMARK                         _______ _______ _______ _____ _____    ______ ____
ROOT
ATOM      1  C   UNL     1       2.609   6.337  19.789  0.00  0.00    +0.000 A 
ATOM      2  N   UNL     1       3.266   6.619  18.586  0.00  0.00    +0.000 NA
ATOM      3  C   UNL     1       3.946   5.524  18.313  0.00  0.00    +0.000 A 
ATOM      4  O   UNL     1       3.749   4.522  19.217  0.00  0.00    +0.000 OA
ATOM      5  C   UNL     1       2.911   5.035  20.168  0.00  0.00    +0.000 A 
ENDROOT
BRANCH   3   6
ATOM      6  C   UNL     1       4.920   5.239  17.252  0.00  0.00    +0.000 A 
ATOM      7  C   UNL     1       6.123   5.954  17.177  0.00  0.00    +0.000 A 
ATOM      8  C   UNL     1       7.087   5.640  16.209  0.00  0.00    +0.000 A 
ATOM      9  C   UNL     1       6.860   4.607  15.303  0.00  0.00    +0.000 A 
ATOM     10  C   UNL     1       5.665   3.897  15.348  0.00  0.00    +0.000 A 
ATOM     11  C   UNL     1       4.702   4.212  16.312  0.00  0.00    +0.000 A 
ENDBRANCH   3   6
BRANCH   1  13
ATOM     12  N   UNL     1       1.487   8.470  20.020  0.00  0.00    +0.000 NA
ATOM     13  C   UNL     1       1.802   7.306  20.505  0.00  0.00    +0.000 C 
BRANCH  12  19
ATOM     14  C   UNL     1       0.040  10.471  20.461  0.00  0.00    +0.000 A 
ATOM     15  C   UNL     1      -0.785  11.171  21.354  0.00  0.00    +0.000 A 
ATOM     16  C   UNL     1      -0.890  10.765  22.683  0.00  0.00    +0.000 A 
ATOM     17  C   UNL     1      -0.186   9.649  23.122  0.00  0.00    +0.000 A 
ATOM     18  C   UNL     1       0.597   8.915  22.223  0.00  0.00    +0.000 A 
ATOM     19  C   UNL     1       0.705   9.292  20.878  0.00  0.00    +0.000 A 
BRANCH  14  21
ATOM     20  C   UNL     1       0.277  12.263  18.946  0.00  0.00    +0.000 C 
ATOM     21  O   UNL     1       0.185  10.858  19.149  0.00  0.00    +0.000 OA
ENDBRANCH  14  21
ENDBRANCH  12  19
ENDBRANCH   1  13
BRANCH   5  22
ATOM     22  O   UNL     1       2.688   4.144  21.111  0.00  0.00    +0.000 OA
BRANCH  22  23
ATOM     23  C   UNL     1       1.661   3.291  21.212  0.00  0.00    +0.000 C 
ATOM     24  C   UNL     1       0.826   3.340  19.969  0.00  0.00    +0.000 C 
ATOM     25  O   UNL     1       1.381   2.564  22.151  0.00  0.00    +0.000 OA
ENDBRANCH  22  23
ENDBRANCH   5  22
TORSDOF 6
ENDMDL
MODEL 5
REMARK VINA RESULT:      -7.8      1.427      7.676
REMARK  Name = 
REMARK  8 active torsions:
REMARK  status: ('A' for Active; 'I' for Inactive)
REMARK    1  A    between atoms: C_1  and  O_2
REMARK    2  A    between atoms: O_2  and  C_3
REMARK    3  A    between atoms: C_8  and  N_9
REMARK    4  A    between atoms: C_10  and  C_11
REMARK    5  A    between atoms: C_13  and  C_14
REMARK    6  A    between atoms: C_21  and  O_22
REMARK    7  A    between atoms: O_22  and  C_23
REMARK    8  A    between atoms: C_23  and  C_24
REMARK                            x       y       z     vdW  Elec       q    Type
REMARK                         _______ _______ _______ _____ _____    ______ ____
ROOT
ATOM      1  C   UNL     1       2.290   6.894  19.517  0.00  0.00    +0.000 A 
ATOM      2  N   UNL     1       1.896   8.234  19.600  0.00  0.00    +0.000 NA
ATOM      3  C   UNL     1       1.211   8.312  20.723  0.00  0.00    +0.000 A 
ATOM      4  O   UNL     1       1.164   7.136  21.414  0.00  0.00    +0.000 OA
ATOM      5  C   UNL     1       1.835   6.224  20.647  0.00  0.00    +0.000 A 
ENDROOT
BRANCH   3   6
ATOM      6  C   UNL     1       0.443   9.419  21.304  0.00  0.00    +0.000 A 
ATOM      7  C   UNL     1       0.160  10.566  20.548  0.00  0.00    +0.000 A 
ATOM      8  C   UNL     1      -0.630  11.597  21.073  0.00  0.00    +0.000 A 
ATOM      9  C   UNL     1      -1.150  11.495  22.361  0.00  0.00    +0.000 A 
ATOM     10  C   UNL     1      -0.867  10.375  23.136  0.00  0.00    +0.000 A 
ATOM     11  C   UNL     1      -0.074   9.348  22.612  0.00  0.00    +0.000 A 
ENDBRANCH   3   6
BRANCH   1  13
ATOM     12  N   UNL     1       4.237   5.926  18.452  0.00  0.00    +0.000 NA
ATOM     13  C   UNL     1       3.006   6.340  18.384  0.00  0.00    +0.000 C 
BRANCH  12  19
ATOM     14  C   UNL     1       5.002   4.061  16.960  0.00  0.00    +0.000 A 
ATOM     15  C   UNL     1       5.452   3.655  15.695  0.00  0.00    +0.000 A 
ATOM     16  C   UNL     1       5.769   4.603  14.723  0.00  0.00    +0.000 A 
ATOM     17  C   UNL     1       5.620   5.957  15.003  0.00  0.00    +0.000 A 
ATOM     18  C   UNL     1       5.120   6.365  16.245  0.00  0.00    +0.000 A 
ATOM     19  C   UNL     1       4.777   5.432  17.232  0.00  0.00    +0.000 A 
BRANCH  14  21
ATOM     20  C   UNL     1       3.452   2.491  17.796  0.00  0.00    +0.000 C 
ATOM     21  O   UNL     1       4.702   3.154  17.950  0.00  0.00    +0.000 OA
ENDBRANCH  14  21
ENDBRANCH  12  19
ENDBRANCH   1  13
BRANCH   5  22
ATOM     22  O   UNL     1       1.815   5.040  21.220  0.00  0.00    +0.000 OA
BRANCH  22  23
ATOM     23  C   UNL     1       1.348   3.890  20.719  0.00  0.00    +0.000 C 
ATOM     24  C   UNL     1       1.728   2.747  21.610  0.00  0.00    +0.000 C 
ATOM     25  O   UNL     1       0.712   3.725  19.691  0.00  0.00    +0.000 OA
ENDBRANCH  22  23
ENDBRANCH   5  22
TORSDOF 6
ENDMDL
MODEL 6
REMARK VINA RESULT:      -7.8      1.619      7.604
REMARK  Name = 
REMARK  8 active torsions:
REMARK  status: ('A' for Active; 'I' for Inactive)
REMARK    1  A    between atoms: C_1  and  O_2
REMARK    2  A    between atoms: O_2  and  C_3
REMARK    3  A    between atoms: C_8  and  N_9
REMARK    4  A    between atoms: C_10  and  C_11
REMARK    5  A    between atoms: C_13  and  C_14
REMARK    6  A    between atoms: C_21  and  O_22
REMARK    7  A    between atoms: O_22  and  C_23
REMARK    8  A    between atoms: C_23  and  C_24
REMARK                            x       y       z     vdW  Elec       q    Type
REMARK                         _______ _______ _______ _____ _____    ______ ____
ROOT
ATOM      1  C   UNL     1       2.413   6.439  19.615  0.00  0.00    +0.000 A 
ATOM      2  N   UNL     1       2.223   7.807  19.836  0.00  0.00    +0.000 NA
ATOM      3  C   UNL     1       1.293   7.869  20.768  0.00  0.00    +0.000 A 
ATOM      4  O   UNL     1       0.891   6.645  21.216  0.00  0.00    +0.000 OA
ATOM      5  C   UNL     1       1.587   5.728  20.478  0.00  0.00    +0.000 A 
ENDROOT
BRANCH   3   6
ATOM      6  C   UNL     1       0.581   9.018  21.339  0.00  0.00    +0.000 A 
ATOM      7  C   UNL     1       0.222  10.108  20.534  0.00  0.00    +0.000 A 
ATOM      8  C   UNL     1      -0.517  11.177  21.058  0.00  0.00    +0.000 A 
ATOM      9  C   UNL     1      -0.907  11.171  22.394  0.00  0.00    +0.000 A 
ATOM     10  C   UNL     1      -0.546  10.109  23.216  0.00  0.00    +0.000 A 
ATOM     11  C   UNL     1       0.195   9.043  22.693  0.00  0.00    +0.000 A 
ENDBRANCH   3   6
BRANCH   1  13
ATOM     12  N   UNL     1       4.577   5.736  18.786  0.00  0.00    +0.000 NA
ATOM     13  C   UNL     1       3.302   5.909  18.599  0.00  0.00    +0.000 C 
BRANCH  12  19
ATOM     14  C   UNL     1       6.678   5.407  17.455  0.00  0.00    +0.000 A 
ATOM     15  C   UNL     1       7.316   4.789  16.370  0.00  0.00    +0.000 A 
ATOM     16  C   UNL     1       6.576   4.064  15.438  0.00  0.00    +0.000 A 
ATOM     17  C   UNL     1       5.200   3.937  15.594  0.00  0.00    +0.000 A 
ATOM     18  C   UNL     1       4.565   4.506  16.705  0.00  0.00    +0.000 A 
ATOM     19  C   UNL     1       5.289   5.225  17.666  0.00  0.00    +0.000 A 
BRANCH  14  21
ATOM     20  C   UNL     1       7.761   7.445  17.940  0.00  0.00    +0.000 C 
ATOM     21  O   UNL     1       7.373   6.149  18.381  0.00  0.00    +0.000 OA
ENDBRANCH  14  21
ENDBRANCH  12  19
ENDBRANCH   1  13
BRANCH   5  22
ATOM     22  O   UNL     1       1.239   4.505  20.817  0.00  0.00    +0.000 OA
BRANCH  22  23
ATOM     23  C   UNL     1       2.030   3.507  21.228  0.00  0.00    +0.000 C 
ATOM     24  C   UNL     1       2.415   2.643  20.067  0.00  0.00    +0.000 C 
ATOM     25  O   UNL     1       2.408   3.270  22.364  0.00  0.00    +0.000 OA
ENDBRANCH  22  23
ENDBRANCH   5  22
TORSDOF 6
ENDMDL
MODEL 7
REMARK VINA RESULT:      -7.8      1.517      7.603
REMARK  Name = 
REMARK  8 active torsions:
REMARK  status: ('A' for Active; 'I' for Inactive)
REMARK    1  A    between atoms: C_1  and  O_2
REMARK    2  A    between atoms: O_2  and  C_3
REMARK    3  A    between atoms: C_8  and  N_9
REMARK    4  A    between atoms: C_10  and  C_11
REMARK    5  A    between atoms: C_13  and  C_14
REMARK    6  A    between atoms: C_21  and  O_22
REMARK    7  A    between atoms: O_22  and  C_23
REMARK    8  A    between atoms: C_23  and  C_24
REMARK                            x       y       z     vdW  Elec       q    Type
REMARK                         _______ _______ _______ _____ _____    ______ ____
ROOT
ATOM      1  C   UNL     1       2.407   6.944  19.610  0.00  0.00    +0.000 A 
ATOM      2  N   UNL     1       1.987   8.277  19.690  0.00  0.00    +0.000 NA
ATOM      3  C   UNL     1       1.160   8.306  20.715  0.00  0.00    +0.000 A 
ATOM      4  O   UNL     1       1.041   7.105  21.352  0.00  0.00    +0.000 OA
ATOM      5  C   UNL     1       1.820   6.229  20.647  0.00  0.00    +0.000 A 
ENDROOT
BRANCH   3   6
ATOM      6  C   UNL     1       0.307   9.383  21.230  0.00  0.00    +0.000 A 
ATOM      7  C   UNL     1      -0.127   9.375  22.563  0.00  0.00    +0.000 A 
ATOM      8  C   UNL     1      -0.885  10.435  23.080  0.00  0.00    +0.000 A 
ATOM      9  C   UNL     1      -1.218  11.517  22.271  0.00  0.00    +0.000 A 
ATOM     10  C   UNL     1      -0.814  11.538  20.940  0.00  0.00    +0.000 A 
ATOM     11  C   UNL     1      -0.061  10.478  20.424  0.00  0.00    +0.000 A 
ENDBRANCH   3   6
BRANCH   1  13
ATOM     12  N   UNL     1       4.271   5.638  18.786  0.00  0.00    +0.000 NA
ATOM     13  C   UNL     1       3.272   6.440  18.562  0.00  0.00    +0.000 C 
BRANCH  12  19
ATOM     14  C   UNL     1       4.636   4.240  16.736  0.00  0.00    +0.000 A 
ATOM     15  C   UNL     1       5.385   4.001  15.575  0.00  0.00    +0.000 A 
ATOM     16  C   UNL     1       6.562   4.709  15.337  0.00  0.00    +0.000 A 
ATOM     17  C   UNL     1       6.986   5.670  16.249  0.00  0.00    +0.000 A 
ATOM     18  C   UNL     1       6.214   5.950  17.382  0.00  0.00    +0.000 A 
ATOM     19  C   UNL     1       5.018   5.266  17.634  0.00  0.00    +0.000 A 
BRANCH  14  21
ATOM     20  C   UNL     1       3.669   2.351  17.767  0.00  0.00    +0.000 C 
ATOM     21  O   UNL     1       3.482   3.544  17.014  0.00  0.00    +0.000 OA
ENDBRANCH  14  21
ENDBRANCH  12  19
ENDBRANCH   1  13
BRANCH   5  22
ATOM     22  O   UNL     1       1.742   5.024  21.170  0.00  0.00    +0.000 OA
BRANCH  22  23
ATOM     23  C   UNL     1       1.408   3.881  20.560  0.00  0.00    +0.000 C 
ATOM     24  C   UNL     1       1.770   2.710  21.423  0.00  0.00    +0.000 C 
ATOM     25  O   UNL     1       0.895   3.740  19.462  0.00  0.00    +0.000 OA
ENDBRANCH  22  23
ENDBRANCH   5  22
TORSDOF 6
ENDMDL
MODEL 8
REMARK VINA RESULT:      -7.7      1.542      7.620
REMARK  Name = 
REMARK  8 active torsions:
REMARK  status: ('A' for Active; 'I' for Inactive)
REMARK    1  A    between atoms: C_1  and  O_2
REMARK    2  A    between atoms: O_2  and  C_3
REMARK    3  A    between atoms: C_8  and  N_9
REMARK    4  A    between atoms: C_10  and  C_11
REMARK    5  A    between atoms: C_13  and  C_14
REMARK    6  A    between atoms: C_21  and  O_22
REMARK    7  A    between atoms: O_22  and  C_23
REMARK    8  A    between atoms: C_23  and  C_24
REMARK                            x       y       z     vdW  Elec       q    Type
REMARK                         _______ _______ _______ _____ _____    ______ ____
ROOT
ATOM      1  C   UNL     1       3.130   6.483  18.842  0.00  0.00    +0.000 A 
ATOM      2  N   UNL     1       2.565   7.750  19.023  0.00  0.00    +0.000 NA
ATOM      3  C   UNL     1       1.871   7.650  20.139  0.00  0.00    +0.000 A 
ATOM      4  O   UNL     1       1.976   6.428  20.736  0.00  0.00    +0.000 OA
ATOM      5  C   UNL     1       2.763   5.674  19.911  0.00  0.00    +0.000 A 
ENDROOT
BRANCH   3   6
ATOM      6  C   UNL     1       0.964   8.600  20.793  0.00  0.00    +0.000 A 
ATOM      7  C   UNL     1       0.732   8.531  22.174  0.00  0.00    +0.000 A 
ATOM      8  C   UNL     1      -0.079   9.476  22.815  0.00  0.00    +0.000 A 
ATOM      9  C   UNL     1      -0.670  10.504  22.085  0.00  0.00    +0.000 A 
ATOM     10  C   UNL     1      -0.469  10.581  20.710  0.00  0.00    +0.000 A 
ATOM     11  C   UNL     1       0.338   9.634  20.070  0.00  0.00    +0.000 A 
ENDBRANCH   3   6
BRANCH   1  13
ATOM     12  N   UNL     1       4.854   5.216  17.709  0.00  0.00    +0.000 NA
ATOM     13  C   UNL     1       3.916   6.116  17.680  0.00  0.00    +0.000 C 
BRANCH  12  19
ATOM     14  C   UNL     1       6.885   5.346  16.242  0.00  0.00    +0.000 A 
ATOM     15  C   UNL     1       7.497   5.020  15.023  0.00  0.00    +0.000 A 
ATOM     16  C   UNL     1       6.755   4.441  13.995  0.00  0.00    +0.000 A 
ATOM     17  C   UNL     1       5.405   4.168  14.186  0.00  0.00    +0.000 A 
ATOM     18  C   UNL     1       4.802   4.441  15.419  0.00  0.00    +0.000 A 
ATOM     19  C   UNL     1       5.530   5.007  16.474  0.00  0.00    +0.000 A 
BRANCH  14  21
ATOM     20  C   UNL     1       7.525   7.361  17.288  0.00  0.00    +0.000 C 
ATOM     21  O   UNL     1       7.581   5.939  17.270  0.00  0.00    +0.000 OA
ENDBRANCH  14  21
ENDBRANCH  12  19
ENDBRANCH   1  13
BRANCH   5  22
ATOM     22  O   UNL     1       2.895   4.456  20.391  0.00  0.00    +0.000 OA
BRANCH  22  23
ATOM     23  C   UNL     1       1.976   3.714  21.021  0.00  0.00    +0.000 C 
ATOM     24  C   UNL     1       0.845   3.395  20.091  0.00  0.00    +0.000 C 
ATOM     25  O   UNL     1       1.988   3.331  22.180  0.00  0.00    +0.000 OA
ENDBRANCH  22  23
ENDBRANCH   5  22
TORSDOF 6
ENDMDL
MODEL 9
REMARK VINA RESULT:      -7.7      0.992      1.074
REMARK  Name = 
REMARK  8 active torsions:
REMARK  status: ('A' for Active; 'I' for Inactive)
REMARK    1  A    between atoms: C_1  and  O_2
REMARK    2  A    between atoms: O_2  and  C_3
REMARK    3  A    between atoms: C_8  and  N_9
REMARK    4  A    between atoms: C_10  and  C_11
REMARK    5  A    between atoms: C_13  and  C_14
REMARK    6  A    between atoms: C_21  and  O_22
REMARK    7  A    between atoms: O_22  and  C_23
REMARK    8  A    between atoms: C_23  and  C_24
REMARK                            x       y       z     vdW  Elec       q    Type
REMARK                         _______ _______ _______ _____ _____    ______ ____
ROOT
ATOM      1  C   UNL     1       2.210   6.384  19.500  0.00  0.00    +0.000 A 
ATOM      2  N   UNL     1       3.273   6.732  18.660  0.00  0.00    +0.000 NA
ATOM      3  C   UNL     1       3.697   5.587  18.164  0.00  0.00    +0.000 A 
ATOM      4  O   UNL     1       2.962   4.513  18.573  0.00  0.00    +0.000 OA
ATOM      5  C   UNL     1       2.022   5.008  19.434  0.00  0.00    +0.000 A 
ENDROOT
BRANCH   3   6
ATOM      6  C   UNL     1       4.854   5.278  17.317  0.00  0.00    +0.000 A 
ATOM      7  C   UNL     1       4.801   4.227  16.390  0.00  0.00    +0.000 A 
ATOM      8  C   UNL     1       5.877   3.970  15.531  0.00  0.00    +0.000 A 
ATOM      9  C   UNL     1       7.021   4.761  15.585  0.00  0.00    +0.000 A 
ATOM     10  C   UNL     1       7.104   5.798  16.509  0.00  0.00    +0.000 A 
ATOM     11  C   UNL     1       6.031   6.051  17.370  0.00  0.00    +0.000 A 
ENDBRANCH   3   6
BRANCH   1  13
ATOM     12  N   UNL     1       1.443   8.611  20.057  0.00  0.00    +0.000 NA
ATOM     13  C   UNL     1       1.493   7.339  20.321  0.00  0.00    +0.000 C 
BRANCH  12  19
ATOM     14  C   UNL     1       0.054  10.609  20.668  0.00  0.00    +0.000 A 
ATOM     15  C   UNL     1      -0.726  11.269  21.629  0.00  0.00    +0.000 A 
ATOM     16  C   UNL     1      -0.794  10.785  22.934  0.00  0.00    +0.000 A 
ATOM     17  C   UNL     1      -0.099   9.632  23.281  0.00  0.00    +0.000 A 
ATOM     18  C   UNL     1       0.638   8.939  22.313  0.00  0.00    +0.000 A 
ATOM     19  C   UNL     1       0.708   9.394  20.990  0.00  0.00    +0.000 A 
BRANCH  14  21
ATOM     20  C   UNL     1      -1.070  11.433  18.765  0.00  0.00    +0.000 C 
ATOM     21  O   UNL     1       0.163  11.071  19.377  0.00  0.00    +0.000 OA
ENDBRANCH  14  21
ENDBRANCH  12  19
ENDBRANCH   1  13
BRANCH   5  22
ATOM     22  O   UNL     1       1.280   4.032  19.912  0.00  0.00    +0.000 OA
BRANCH  22  23
ATOM     23  C   UNL     1       1.656   2.785  20.219  0.00  0.00    +0.000 C 
ATOM     24  C   UNL     1       2.118   2.721  21.643  0.00  0.00    +0.000 C 
ATOM     25  O   UNL     1       1.661   1.803  19.494  0.00  0.00    +0.000 OA
ENDBRANCH  22  23
ENDBRANCH   5  22
TORSDOF 6
ENDMDL
