MODEL 1
REMARK VINA RESULT:      -8.5      0.000      0.000
REMARK  Name = 
REMARK  6 active torsions:
REMARK  status: ('A' for Active; 'I' for Inactive)
REMARK    1  A    between atoms: C_2  and  C_3
REMARK    2  A    between atoms: C_2  and  C_12
REMARK    3  A    between atoms: C_4  and  C_5
REMARK    4  A    between atoms: C_15  and  N_16
REMARK    5  A    between atoms: N_16  and  S_17
REMARK    6  A    between atoms: S_17  and  C_20
REMARK                            x       y       z     vdW  Elec       q    Type
REMARK                         _______ _______ _______ _____ _____    ______ ____
ROOT
ATOM      1  C   UNL     1       6.376   5.644  17.670  0.00  0.00    +0.000 A 
ATOM      2  C   UNL     1       6.216   5.393  19.040  0.00  0.00    +0.000 A 
ATOM      3  C   UNL     1       5.265   4.463  19.480  0.00  0.00    +0.000 A 
ATOM      4  C   UNL     1       4.477   3.782  18.553  0.00  0.00    +0.000 A 
ATOM      5  C   UNL     1       4.641   4.016  17.189  0.00  0.00    +0.000 A 
ATOM      6  C   UNL     1       5.590   4.941  16.747  0.00  0.00    +0.000 A 
ENDROOT
BRANCH   1   8
ATOM      7  O   UNL     1       7.852   6.449  16.012  0.00  0.00    +0.000 OA
ATOM      8  C   UNL     1       7.395   6.595  17.141  0.00  0.00    +0.000 C 
BRANCH   8   9
ATOM      9  C   UNL     1       7.804   7.730  18.013  0.00  0.00    +0.000 C 
ATOM     10  C   UNL     1       8.221   8.877  17.457  0.00  0.00    +0.000 C 
BRANCH  10  11
ATOM     11  C   UNL     1       8.658   9.998  18.285  0.00  0.00    +0.000 A 
ATOM     12  C   UNL     1       8.636  11.300  17.769  0.00  0.00    +0.000 A 
ATOM     13  C   UNL     1       9.088  12.370  18.544  0.00  0.00    +0.000 A 
ATOM     14  C   UNL     1       9.558  12.133  19.830  0.00  0.00    +0.000 A 
ATOM     15  F   UNL     1      10.000  13.159  20.569  0.00  0.00    +0.000 F 
ATOM     16  C   UNL     1       9.578  10.848  20.360  0.00  0.00    +0.000 A 
ATOM     17  C   UNL     1       9.128   9.776  19.586  0.00  0.00    +0.000 A 
ENDBRANCH  10  11
ENDBRANCH   8   9
ENDBRANCH   1   8
BRANCH   4  18
ATOM     18  N   UNL     1       3.517   2.821  18.963  0.00  0.00    +0.000 N 
ATOM     19  H   UNL     1       3.772   2.174  19.708  0.00  0.00    +0.000 HD
BRANCH  18  20
ATOM     20  S   UNL     1       1.891   3.262  19.040  0.00  0.00    +0.000 S 
ATOM     21  O   UNL     1       1.350   3.013  17.720  0.00  0.00    +0.000 OA
ATOM     22  O   UNL     1       1.292   2.656  20.211  0.00  0.00    +0.000 OA
BRANCH  20  23
ATOM     23  C   UNL     1       1.956   5.021  19.278  0.00  0.00    +0.000 A 
ATOM     24  C   UNL     1       2.108   5.877  18.183  0.00  0.00    +0.000 A 
ATOM     25  C   UNL     1       2.118   7.259  18.389  0.00  0.00    +0.000 A 
ATOM     26  C   UNL     1       1.967   7.775  19.679  0.00  0.00    +0.000 A 
ATOM     27  C   UNL     1       1.799   6.916  20.766  0.00  0.00    +0.000 A 
ATOM     28  C   UNL     1       1.786   5.537  20.567  0.00  0.00    +0.000 A 
ENDBRANCH  20  23
ENDBRANCH  18  20
ENDBRANCH   4  18
TORSDOF 6
ENDMDL
MODEL 2
REMARK VINA RESULT:      -8.5      0.215      1.622
REMARK  Name = 
REMARK  6 active torsions:
REMARK  status: ('A' for Active; 'I' for Inactive)
REMARK    1  A    between atoms: C_2  and  C_3
REMARK    2  A    between atoms: C_2  and  C_12
REMARK    3  A    between atoms: C_4  and  C_5
REMARK    4  A    between atoms: C_15  and  N_16
REMARK    5  A    between atoms: N_16  and  S_17
REMARK    6  A    between atoms: S_17  and  C_20
REMARK                            x       y       z     vdW  Elec       q    Type
REMARK                         _______ _______ _______ _____ _____    ______ ____
ROOT
ATOM      1  C   UNL     1       6.439   5.556  17.615  0.00  0.00    +0.000 A 
ATOM      2  C   UNL     1       5.709   4.681  16.798  0.00  0.00    +0.000 A 
ATOM      3  C   UNL     1       4.774   3.803  17.364  0.00  0.00    +0.000 A 
ATOM      4  C   UNL     1       4.566   3.803  18.743  0.00  0.00    +0.000 A 
ATOM      5  C   UNL     1       5.277   4.681  19.558  0.00  0.00    +0.000 A 
ATOM      6  C   UNL     1       6.208   5.558  18.997  0.00  0.00    +0.000 A 
ENDROOT
BRANCH   1   8
ATOM      7  O   UNL     1       7.806   6.442  15.906  0.00  0.00    +0.000 OA
ATOM      8  C   UNL     1       7.420   6.536  17.067  0.00  0.00    +0.000 C 
BRANCH   8   9
ATOM      9  C   UNL     1       7.878   7.634  17.960  0.00  0.00    +0.000 C 
ATOM     10  C   UNL     1       8.164   8.836  17.441  0.00  0.00    +0.000 C 
BRANCH  10  11
ATOM     11  C   UNL     1       8.646   9.925  18.288  0.00  0.00    +0.000 A 
ATOM     12  C   UNL     1       9.044   9.664  19.606  0.00  0.00    +0.000 A 
ATOM     13  C   UNL     1       9.469  10.708  20.430  0.00  0.00    +0.000 A 
ATOM     14  C   UNL     1       9.494  12.006  19.933  0.00  0.00    +0.000 A 
ATOM     15  F   UNL     1       9.893  13.007  20.727  0.00  0.00    +0.000 F 
ATOM     16  C   UNL     1       9.111  12.279  18.625  0.00  0.00    +0.000 A 
ATOM     17  C   UNL     1       8.684  11.237  17.799  0.00  0.00    +0.000 A 
ENDBRANCH  10  11
ENDBRANCH   8   9
ENDBRANCH   1   8
BRANCH   4  18
ATOM     18  N   UNL     1       3.614   2.941  19.346  0.00  0.00    +0.000 N 
ATOM     19  H   UNL     1       3.850   2.515  20.241  0.00  0.00    +0.000 HD
BRANCH  18  20
ATOM     20  S   UNL     1       1.975   3.323  19.243  0.00  0.00    +0.000 S 
ATOM     21  O   UNL     1       1.559   2.927  17.913  0.00  0.00    +0.000 OA
ATOM     22  O   UNL     1       1.295   2.810  20.414  0.00  0.00    +0.000 OA
BRANCH  20  23
ATOM     23  C   UNL     1       1.964   5.097  19.309  0.00  0.00    +0.000 A 
ATOM     24  C   UNL     1       1.817   5.760  20.531  0.00  0.00    +0.000 A 
ATOM     25  C   UNL     1       1.850   7.156  20.563  0.00  0.00    +0.000 A 
ATOM     26  C   UNL     1       2.039   7.879  19.383  0.00  0.00    +0.000 A 
ATOM     27  C   UNL     1       2.203   7.212  18.167  0.00  0.00    +0.000 A 
ATOM     28  C   UNL     1       2.174   5.820  18.129  0.00  0.00    +0.000 A 
ENDBRANCH  20  23
ENDBRANCH  18  20
ENDBRANCH   4  18
TORSDOF 6
ENDMDL
MODEL 3
REMARK VINA RESULT:      -8.1      4.731      7.256
REMARK  Name = 
REMARK  6 active torsions:
REMARK  status: ('A' for Active; 'I' for Inactive)
REMARK    1  A    between atoms: C_2  and  C_3
REMARK    2  A    between atoms: C_2  and  C_12
REMARK    3  A    between atoms: C_4  and  C_5
REMARK    4  A    between atoms: C_15  and  N_16
REMARK    5  A    between atoms: N_16  and  S_17
REMARK    6  A    between atoms: S_17  and  C_20
REMARK                            x       y       z     vdW  Elec       q    Type
REMARK                         _______ _______ _______ _____ _____    ______ ____
ROOT
ATOM      1  C   UNL     1       3.024   4.399  19.670  0.00  0.00    +0.000 A 
ATOM      2  C   UNL     1       2.535   3.737  18.534  0.00  0.00    +0.000 A 
ATOM      3  C   UNL     1       3.377   3.496  17.441  0.00  0.00    +0.000 A 
ATOM      4  C   UNL     1       4.708   3.911  17.484  0.00  0.00    +0.000 A 
ATOM      5  C   UNL     1       5.204   4.556  18.615  0.00  0.00    +0.000 A 
ATOM      6  C   UNL     1       4.367   4.796  19.707  0.00  0.00    +0.000 A 
ENDROOT
BRANCH   1   8
ATOM      7  O   UNL     1       2.049   3.781  21.729  0.00  0.00    +0.000 OA
ATOM      8  C   UNL     1       2.184   4.651  20.876  0.00  0.00    +0.000 C 
BRANCH   8   9
ATOM      9  C   UNL     1       1.555   5.992  21.015  0.00  0.00    +0.000 C 
ATOM     10  C   UNL     1       1.971   7.004  20.241  0.00  0.00    +0.000 C 
BRANCH  10  11
ATOM     11  C   UNL     1       1.394   8.340  20.375  0.00  0.00    +0.000 A 
ATOM     12  C   UNL     1       1.230   9.149  19.243  0.00  0.00    +0.000 A 
ATOM     13  C   UNL     1       0.714  10.441  19.373  0.00  0.00    +0.000 A 
ATOM     14  C   UNL     1       0.365  10.915  20.632  0.00  0.00    +0.000 A 
ATOM     15  F   UNL     1      -0.121  12.157  20.756  0.00  0.00    +0.000 F 
ATOM     16  C   UNL     1       0.514  10.121  21.763  0.00  0.00    +0.000 A 
ATOM     17  C   UNL     1       1.030   8.830  21.636  0.00  0.00    +0.000 A 
ENDBRANCH  10  11
ENDBRANCH   8   9
ENDBRANCH   1   8
BRANCH   4  18
ATOM     18  N   UNL     1       5.593   3.667  16.402  0.00  0.00    +0.000 N 
ATOM     19  H   UNL     1       5.241   3.146  15.600  0.00  0.00    +0.000 HD
BRANCH  18  20
ATOM     20  S   UNL     1       6.684   4.869  15.943  0.00  0.00    +0.000 S 
ATOM     21  O   UNL     1       6.011   6.128  16.188  0.00  0.00    +0.000 OA
ATOM     22  O   UNL     1       7.973   4.591  16.539  0.00  0.00    +0.000 OA
BRANCH  20  23
ATOM     23  C   UNL     1       6.810   4.655  14.184  0.00  0.00    +0.000 A 
ATOM     24  C   UNL     1       7.671   5.460  13.433  0.00  0.00    +0.000 A 
ATOM     25  C   UNL     1       7.783   5.248  12.057  0.00  0.00    +0.000 A 
ATOM     26  C   UNL     1       7.046   4.232  11.443  0.00  0.00    +0.000 A 
ATOM     27  C   UNL     1       6.200   3.420  12.201  0.00  0.00    +0.000 A 
ATOM     28  C   UNL     1       6.086   3.624  13.574  0.00  0.00    +0.000 A 
ENDBRANCH  20  23
ENDBRANCH  18  20
ENDBRANCH   4  18
TORSDOF 6
ENDMDL
MODEL 4
REMARK VINA RESULT:      -8.1      4.740      7.263
REMARK  Name = 
REMARK  6 active torsions:
REMARK  status: ('A' for Active; 'I' for Inactive)
REMARK    1  A    between atoms: C_2  and  C_3
REMARK    2  A    between atoms: C_2  and  C_12
REMARK    3  A    between atoms: C_4  and  C_5
REMARK    4  A    between atoms: C_15  and  N_16
REMARK    5  A    between atoms: N_16  and  S_17
REMARK    6  A    between atoms: S_17  and  C_20
REMARK                            x       y       z     vdW  Elec       q    Type
REMARK                         _______ _______ _______ _____ _____    ______ ____
ROOT
ATOM      1  C   UNL     1       2.826   4.369  19.569  0.00  0.00    +0.000 A 
ATOM      2  C   UNL     1       2.445   4.000  18.272  0.00  0.00    +0.000 A 
ATOM      3  C   UNL     1       3.416   3.817  17.278  0.00  0.00    +0.000 A 
ATOM      4  C   UNL     1       4.765   4.000  17.581  0.00  0.00    +0.000 A 
ATOM      5  C   UNL     1       5.150   4.353  18.873  0.00  0.00    +0.000 A 
ATOM      6  C   UNL     1       4.185   4.533  19.866  0.00  0.00    +0.000 A 
ENDROOT
BRANCH   1   8
ATOM      7  O   UNL     1       1.477   3.576  21.338  0.00  0.00    +0.000 OA
ATOM      8  C   UNL     1       1.841   4.543  20.676  0.00  0.00    +0.000 C 
BRANCH   8   9
ATOM      9  C   UNL     1       1.352   5.919  20.961  0.00  0.00    +0.000 C 
ATOM     10  C   UNL     1       1.776   6.943  20.208  0.00  0.00    +0.000 C 
BRANCH  10  11
ATOM     11  C   UNL     1       1.338   8.310  20.482  0.00  0.00    +0.000 A 
ATOM     12  C   UNL     1       1.245   9.238  19.436  0.00  0.00    +0.000 A 
ATOM     13  C   UNL     1       0.862  10.555  19.700  0.00  0.00    +0.000 A 
ATOM     14  C   UNL     1       0.575  10.937  21.005  0.00  0.00    +0.000 A 
ATOM     15  F   UNL     1       0.218  12.202  21.257  0.00  0.00    +0.000 F 
ATOM     16  C   UNL     1       0.655  10.025  22.051  0.00  0.00    +0.000 A 
ATOM     17  C   UNL     1       1.038   8.708  21.791  0.00  0.00    +0.000 A 
ENDBRANCH  10  11
ENDBRANCH   8   9
ENDBRANCH   1   8
BRANCH   4  18
ATOM     18  N   UNL     1       5.775   3.806  16.604  0.00  0.00    +0.000 N 
ATOM     19  H   UNL     1       5.695   3.002  15.982  0.00  0.00    +0.000 HD
BRANCH  18  20
ATOM     20  S   UNL     1       6.428   5.147  15.817  0.00  0.00    +0.000 S 
ATOM     21  O   UNL     1       5.398   6.166  15.849  0.00  0.00    +0.000 OA
ATOM     22  O   UNL     1       7.748   5.412  16.350  0.00  0.00    +0.000 OA
BRANCH  20  23
ATOM     23  C   UNL     1       6.592   4.595  14.137  0.00  0.00    +0.000 A 
ATOM     24  C   UNL     1       5.723   3.628  13.621  0.00  0.00    +0.000 A 
ATOM     25  C   UNL     1       5.846   3.238  12.286  0.00  0.00    +0.000 A 
ATOM     26  C   UNL     1       6.824   3.817  11.474  0.00  0.00    +0.000 A 
ATOM     27  C   UNL     1       7.679   4.793  11.989  0.00  0.00    +0.000 A 
ATOM     28  C   UNL     1       7.559   5.190  13.320  0.00  0.00    +0.000 A 
ENDBRANCH  20  23
ENDBRANCH  18  20
ENDBRANCH   4  18
TORSDOF 6
ENDMDL
MODEL 5
REMARK VINA RESULT:      -8.1      3.596      7.120
REMARK  Name = 
REMARK  6 active torsions:
REMARK  status: ('A' for Active; 'I' for Inactive)
REMARK    1  A    between atoms: C_2  and  C_3
REMARK    2  A    between atoms: C_2  and  C_12
REMARK    3  A    between atoms: C_4  and  C_5
REMARK    4  A    between atoms: C_15  and  N_16
REMARK    5  A    between atoms: N_16  and  S_17
REMARK    6  A    between atoms: S_17  and  C_20
REMARK                            x       y       z     vdW  Elec       q    Type
REMARK                         _______ _______ _______ _____ _____    ______ ____
ROOT
ATOM      1  C   UNL     1       2.906   6.024  18.801  0.00  0.00    +0.000 A 
ATOM      2  C   UNL     1       3.190   4.740  18.314  0.00  0.00    +0.000 A 
ATOM      3  C   UNL     1       3.935   4.581  17.138  0.00  0.00    +0.000 A 
ATOM      4  C   UNL     1       4.398   5.703  16.451  0.00  0.00    +0.000 A 
ATOM      5  C   UNL     1       4.131   6.981  16.937  0.00  0.00    +0.000 A 
ATOM      6  C   UNL     1       3.391   7.143  18.111  0.00  0.00    +0.000 A 
ENDROOT
BRANCH   1   8
ATOM      7  O   UNL     1       2.015   5.347  20.880  0.00  0.00    +0.000 OA
ATOM      8  C   UNL     1       2.149   6.254  20.065  0.00  0.00    +0.000 C 
BRANCH   8   9
ATOM      9  C   UNL     1       1.600   7.615  20.308  0.00  0.00    +0.000 C 
ATOM     10  C   UNL     1       1.007   7.893  21.477  0.00  0.00    +0.000 C 
BRANCH  10  11
ATOM     11  C   UNL     1       0.431   9.211  21.734  0.00  0.00    +0.000 A 
ATOM     12  C   UNL     1       0.794  10.302  20.933  0.00  0.00    +0.000 A 
ATOM     13  C   UNL     1       0.275  11.571  21.199  0.00  0.00    +0.000 A 
ATOM     14  C   UNL     1      -0.603  11.742  22.262  0.00  0.00    +0.000 A 
ATOM     15  F   UNL     1      -1.093  12.961  22.522  0.00  0.00    +0.000 F 
ATOM     16  C   UNL     1      -0.979  10.668  23.060  0.00  0.00    +0.000 A 
ATOM     17  C   UNL     1      -0.461   9.399  22.798  0.00  0.00    +0.000 A 
ENDBRANCH  10  11
ENDBRANCH   8   9
ENDBRANCH   1   8
BRANCH   4  18
ATOM     18  N   UNL     1       5.170   5.578  15.267  0.00  0.00    +0.000 N 
ATOM     19  H   UNL     1       5.091   6.309  14.561  0.00  0.00    +0.000 HD
BRANCH  18  20
ATOM     20  S   UNL     1       6.739   4.968  15.368  0.00  0.00    +0.000 S 
ATOM     21  O   UNL     1       6.596   3.540  15.567  0.00  0.00    +0.000 OA
ATOM     22  O   UNL     1       7.520   5.486  14.264  0.00  0.00    +0.000 OA
BRANCH  20  23
ATOM     23  C   UNL     1       7.353   5.668  16.880  0.00  0.00    +0.000 A 
ATOM     24  C   UNL     1       7.573   7.045  16.984  0.00  0.00    +0.000 A 
ATOM     25  C   UNL     1       8.020   7.578  18.195  0.00  0.00    +0.000 A 
ATOM     26  C   UNL     1       8.235   6.740  19.293  0.00  0.00    +0.000 A 
ATOM     27  C   UNL     1       7.997   5.369  19.188  0.00  0.00    +0.000 A 
ATOM     28  C   UNL     1       7.549   4.830  17.983  0.00  0.00    +0.000 A 
ENDBRANCH  20  23
ENDBRANCH  18  20
ENDBRANCH   4  18
TORSDOF 6
ENDMDL
MODEL 6
REMARK VINA RESULT:      -8.1      4.925      7.415
REMARK  Name = 
REMARK  6 active torsions:
REMARK  status: ('A' for Active; 'I' for Inactive)
REMARK    1  A    between atoms: C_2  and  C_3
REMARK    2  A    between atoms: C_2  and  C_12
REMARK    3  A    between atoms: C_4  and  C_5
REMARK    4  A    between atoms: C_15  and  N_16
REMARK    5  A    between atoms: N_16  and  S_17
REMARK    6  A    between atoms: S_17  and  C_20
REMARK                            x       y       z     vdW  Elec       q    Type
REMARK                         _______ _______ _______ _____ _____    ______ ____
ROOT
ATOM      1  C   UNL     1       2.847   4.312  19.648  0.00  0.00    +0.000 A 
ATOM      2  C   UNL     1       4.217   4.215  19.927  0.00  0.00    +0.000 A 
ATOM      3  C   UNL     1       5.134   3.986  18.892  0.00  0.00    +0.000 A 
ATOM      4  C   UNL     1       4.682   3.859  17.579  0.00  0.00    +0.000 A 
ATOM      5  C   UNL     1       3.323   3.970  17.293  0.00  0.00    +0.000 A 
ATOM      6  C   UNL     1       2.407   4.200  18.322  0.00  0.00    +0.000 A 
ENDROOT
BRANCH   1   8
ATOM      7  O   UNL     1       1.599   3.758  21.574  0.00  0.00    +0.000 OA
ATOM      8  C   UNL     1       1.830   4.590  20.702  0.00  0.00    +0.000 C 
BRANCH   8   9
ATOM      9  C   UNL     1       1.143   5.909  20.674  0.00  0.00    +0.000 C 
ATOM     10  C   UNL     1       1.866   7.036  20.740  0.00  0.00    +0.000 C 
BRANCH  10  11
ATOM     11  C   UNL     1       1.218   8.346  20.745  0.00  0.00    +0.000 A 
ATOM     12  C   UNL     1       0.618   8.825  21.917  0.00  0.00    +0.000 A 
ATOM     13  C   UNL     1      -0.035  10.060  21.916  0.00  0.00    +0.000 A 
ATOM     14  C   UNL     1      -0.083  10.808  20.746  0.00  0.00    +0.000 A 
ATOM     15  F   UNL     1      -0.717  11.987  20.744  0.00  0.00    +0.000 F 
ATOM     16  C   UNL     1       0.516  10.350  19.578  0.00  0.00    +0.000 A 
ATOM     17  C   UNL     1       1.168   9.115  19.575  0.00  0.00    +0.000 A 
ENDBRANCH  10  11
ENDBRANCH   8   9
ENDBRANCH   1   8
BRANCH   4  18
ATOM     18  N   UNL     1       5.584   3.645  16.505  0.00  0.00    +0.000 N 
ATOM     19  H   UNL     1       5.339   2.949  15.802  0.00  0.00    +0.000 HD
BRANCH  18  20
ATOM     20  S   UNL     1       6.390   4.964  15.831  0.00  0.00    +0.000 S 
ATOM     21  O   UNL     1       5.459   6.073  15.898  0.00  0.00    +0.000 OA
ATOM     22  O   UNL     1       7.707   5.067  16.423  0.00  0.00    +0.000 OA
BRANCH  20  23
ATOM     23  C   UNL     1       6.566   4.506  14.124  0.00  0.00    +0.000 A 
ATOM     24  C   UNL     1       5.668   3.610  13.535  0.00  0.00    +0.000 A 
ATOM     25  C   UNL     1       5.803   3.295  12.182  0.00  0.00    +0.000 A 
ATOM     26  C   UNL     1       6.822   3.878  11.424  0.00  0.00    +0.000 A 
ATOM     27  C   UNL     1       7.705   4.785  12.013  0.00  0.00    +0.000 A 
ATOM     28  C   UNL     1       7.574   5.107  13.363  0.00  0.00    +0.000 A 
ENDBRANCH  20  23
ENDBRANCH  18  20
ENDBRANCH   4  18
TORSDOF 6
ENDMDL
MODEL 7
REMARK VINA RESULT:      -7.9      5.574      8.326
REMARK  Name = 
REMARK  6 active torsions:
REMARK  status: ('A' for Active; 'I' for Inactive)
REMARK    1  A    between atoms: C_2  and  C_3
REMARK    2  A    between atoms: C_2  and  C_12
REMARK    3  A    between atoms: C_4  and  C_5
REMARK    4  A    between atoms: C_15  and  N_16
REMARK    5  A    between atoms: N_16  and  S_17
REMARK    6  A    between atoms: S_17  and  C_20
REMARK                            x       y       z     vdW  Elec       q    Type
REMARK                         _______ _______ _______ _____ _____    ______ ____
ROOT
ATOM      1  C   UNL     1       1.345   8.982  19.875  0.00  0.00    +0.000 A 
ATOM      2  C   UNL     1       1.625   7.812  20.595  0.00  0.00    +0.000 A 
ATOM      3  C   UNL     1       2.254   6.730  19.966  0.00  0.00    +0.000 A 
ATOM      4  C   UNL     1       2.608   6.818  18.619  0.00  0.00    +0.000 A 
ATOM      5  C   UNL     1       2.346   7.984  17.902  0.00  0.00    +0.000 A 
ATOM      6  C   UNL     1       1.721   9.065  18.527  0.00  0.00    +0.000 A 
ENDROOT
BRANCH   1   8
ATOM      7  O   UNL     1       1.278  10.779  21.405  0.00  0.00    +0.000 OA
ATOM      8  C   UNL     1       0.710  10.177  20.500  0.00  0.00    +0.000 C 
BRANCH   8   9
ATOM      9  C   UNL     1      -0.606  10.623  19.967  0.00  0.00    +0.000 C 
ATOM     10  C   UNL     1      -0.999  10.222  18.749  0.00  0.00    +0.000 C 
BRANCH  10  11
ATOM     11  C   UNL     1      -2.271  10.668  18.185  0.00  0.00    +0.000 A 
ATOM     12  C   UNL     1      -2.635  10.282  16.888  0.00  0.00    +0.000 A 
ATOM     13  C   UNL     1      -3.833  10.737  16.332  0.00  0.00    +0.000 A 
ATOM     14  C   UNL     1      -4.659  11.572  17.074  0.00  0.00    +0.000 A 
ATOM     15  F   UNL     1      -5.803  12.015  16.536  0.00  0.00    +0.000 F 
ATOM     16  C   UNL     1      -4.316  11.956  18.365  0.00  0.00    +0.000 A 
ATOM     17  C   UNL     1      -3.118  11.504  18.924  0.00  0.00    +0.000 A 
ENDBRANCH  10  11
ENDBRANCH   8   9
ENDBRANCH   1   8
BRANCH   4  18
ATOM     18  N   UNL     1       3.263   5.749  17.956  0.00  0.00    +0.000 N 
ATOM     19  H   UNL     1       4.240   5.569  18.182  0.00  0.00    +0.000 HD
BRANCH  18  20
ATOM     20  S   UNL     1       2.414   4.323  17.654  0.00  0.00    +0.000 S 
ATOM     21  O   UNL     1       1.075   4.732  17.280  0.00  0.00    +0.000 OA
ATOM     22  O   UNL     1       3.201   3.480  16.780  0.00  0.00    +0.000 OA
BRANCH  20  23
ATOM     23  C   UNL     1       2.320   3.558  19.254  0.00  0.00    +0.000 A 
ATOM     24  C   UNL     1       3.476   3.083  19.881  0.00  0.00    +0.000 A 
ATOM     25  C   UNL     1       3.383   2.520  21.155  0.00  0.00    +0.000 A 
ATOM     26  C   UNL     1       2.145   2.442  21.798  0.00  0.00    +0.000 A 
ATOM     27  C   UNL     1       0.996   2.934  21.175  0.00  0.00    +0.000 A 
ATOM     28  C   UNL     1       1.082   3.499  19.904  0.00  0.00    +0.000 A 
ENDBRANCH  20  23
ENDBRANCH  18  20
ENDBRANCH   4  18
TORSDOF 6
ENDMDL
MODEL 8
REMARK VINA RESULT:      -7.9      5.247      8.623
REMARK  Name = 
REMARK  6 active torsions:
REMARK  status: ('A' for Active; 'I' for Inactive)
REMARK    1  A    between atoms: C_2  and  C_3
REMARK    2  A    between atoms: C_2  and  C_12
REMARK    3  A    between atoms: C_4  and  C_5
REMARK    4  A    between atoms: C_15  and  N_16
REMARK    5  A    between atoms: N_16  and  S_17
REMARK    6  A    between atoms: S_17  and  C_20
REMARK                            x       y       z     vdW  Elec       q    Type
REMARK                         _______ _______ _______ _____ _____    ______ ____
ROOT
ATOM      1  C   UNL     1       1.595   8.484  19.412  0.00  0.00    +0.000 A 
ATOM      2  C   UNL     1       2.194   8.183  18.181  0.00  0.00    +0.000 A 
ATOM      3  C   UNL     1       2.783   6.929  17.971  0.00  0.00    +0.000 A 
ATOM      4  C   UNL     1       2.769   5.975  18.988  0.00  0.00    +0.000 A 
ATOM      5  C   UNL     1       2.161   6.263  20.208  0.00  0.00    +0.000 A 
ATOM      6  C   UNL     1       1.572   7.511  20.420  0.00  0.00    +0.000 A 
ENDROOT
BRANCH   1   8
ATOM      7  O   UNL     1       1.393  10.570  20.499  0.00  0.00    +0.000 OA
ATOM      8  C   UNL     1       0.922   9.788  19.680  0.00  0.00    +0.000 C 
BRANCH   8   9
ATOM      9  C   UNL     1      -0.305  10.109  18.903  0.00  0.00    +0.000 C 
ATOM     10  C   UNL     1      -1.196  10.979  19.399  0.00  0.00    +0.000 C 
BRANCH  10  11
ATOM     11  C   UNL     1      -2.426  11.292  18.674  0.00  0.00    +0.000 A 
ATOM     12  C   UNL     1      -3.462  11.981  19.318  0.00  0.00    +0.000 A 
ATOM     13  C   UNL     1      -4.653  12.249  18.639  0.00  0.00    +0.000 A 
ATOM     14  C   UNL     1      -4.801  11.828  17.324  0.00  0.00    +0.000 A 
ATOM     15  F   UNL     1      -5.947  12.077  16.677  0.00  0.00    +0.000 F 
ATOM     16  C   UNL     1      -3.779  11.151  16.669  0.00  0.00    +0.000 A 
ATOM     17  C   UNL     1      -2.587  10.881  17.345  0.00  0.00    +0.000 A 
ENDBRANCH  10  11
ENDBRANCH   8   9
ENDBRANCH   1   8
BRANCH   4  18
ATOM     18  N   UNL     1       3.339   4.689  18.803  0.00  0.00    +0.000 N 
ATOM     19  H   UNL     1       2.978   4.107  18.049  0.00  0.00    +0.000 HD
BRANCH  18  20
ATOM     20  S   UNL     1       5.000   4.487  19.015  0.00  0.00    +0.000 S 
ATOM     21  O   UNL     1       5.462   5.683  19.689  0.00  0.00    +0.000 OA
ATOM     22  O   UNL     1       5.249   3.177  19.579  0.00  0.00    +0.000 OA
BRANCH  20  23
ATOM     23  C   UNL     1       5.630   4.523  17.355  0.00  0.00    +0.000 A 
ATOM     24  C   UNL     1       6.981   4.795  17.116  0.00  0.00    +0.000 A 
ATOM     25  C   UNL     1       7.462   4.780  15.805  0.00  0.00    +0.000 A 
ATOM     26  C   UNL     1       6.600   4.486  14.746  0.00  0.00    +0.000 A 
ATOM     27  C   UNL     1       5.256   4.198  14.991  0.00  0.00    +0.000 A 
ATOM     28  C   UNL     1       4.770   4.209  16.297  0.00  0.00    +0.000 A 
ENDBRANCH  20  23
ENDBRANCH  18  20
ENDBRANCH   4  18
TORSDOF 6
ENDMDL
MODEL 9
REMARK VINA RESULT:      -7.9      5.611      8.967
REMARK  Name = 
REMARK  6 active torsions:
REMARK  status: ('A' for Active; 'I' for Inactive)
REMARK    1  A    between atoms: C_2  and  C_3
REMARK    2  A    between atoms: C_2  and  C_12
REMARK    3  A    between atoms: C_4  and  C_5
REMARK    4  A    between atoms: C_15  and  N_16
REMARK    5  A    between atoms: N_16  and  S_17
REMARK    6  A    between atoms: S_17  and  C_20
REMARK                            x       y       z     vdW  Elec       q    Type
REMARK                         _______ _______ _______ _____ _____    ______ ____
ROOT
ATOM      1  C   UNL     1       1.198   9.407  19.071  0.00  0.00    +0.000 A 
ATOM      2  C   UNL     1       1.080   8.781  20.320  0.00  0.00    +0.000 A 
ATOM      3  C   UNL     1       1.759   7.582  20.575  0.00  0.00    +0.000 A 
ATOM      4  C   UNL     1       2.557   7.010  19.584  0.00  0.00    +0.000 A 
ATOM      5  C   UNL     1       2.689   7.635  18.345  0.00  0.00    +0.000 A 
ATOM      6  C   UNL     1       2.016   8.831  18.089  0.00  0.00    +0.000 A 
ENDROOT
BRANCH   1   8
ATOM      7  O   UNL     1       1.176  11.743  18.729  0.00  0.00    +0.000 OA
ATOM      8  C   UNL     1       0.528  10.701  18.754  0.00  0.00    +0.000 C 
BRANCH   8   9
ATOM      9  C   UNL     1      -0.926  10.673  18.443  0.00  0.00    +0.000 C 
ATOM     10  C   UNL     1      -1.671  11.768  18.650  0.00  0.00    +0.000 C 
BRANCH  10  11
ATOM     11  C   UNL     1      -3.107  11.762  18.382  0.00  0.00    +0.000 A 
ATOM     12  C   UNL     1      -4.006  12.179  19.374  0.00  0.00    +0.000 A 
ATOM     13  C   UNL     1      -5.381  12.139  19.135  0.00  0.00    +0.000 A 
ATOM     14  C   UNL     1      -5.850  11.684  17.909  0.00  0.00    +0.000 A 
ATOM     15  F   UNL     1      -7.170  11.638  17.685  0.00  0.00    +0.000 F 
ATOM     16  C   UNL     1      -4.971  11.276  16.912  0.00  0.00    +0.000 A 
ATOM     17  C   UNL     1      -3.596  11.314  17.148  0.00  0.00    +0.000 A 
ENDBRANCH  10  11
ENDBRANCH   8   9
ENDBRANCH   1   8
BRANCH   4  18
ATOM     18  N   UNL     1       3.272   5.807  19.814  0.00  0.00    +0.000 N 
ATOM     19  H   UNL     1       3.370   5.482  20.775  0.00  0.00    +0.000 HD
BRANCH  18  20
ATOM     20  S   UNL     1       3.099   4.526  18.731  0.00  0.00    +0.000 S 
ATOM     21  O   UNL     1       3.070   3.325  19.540  0.00  0.00    +0.000 OA
ATOM     22  O   UNL     1       2.021   4.825  17.812  0.00  0.00    +0.000 OA
BRANCH  20  23
ATOM     23  C   UNL     1       4.632   4.540  17.835  0.00  0.00    +0.000 A 
ATOM     24  C   UNL     1       5.820   4.915  18.470  0.00  0.00    +0.000 A 
ATOM     25  C   UNL     1       7.020   4.881  17.756  0.00  0.00    +0.000 A 
ATOM     26  C   UNL     1       7.029   4.467  16.421  0.00  0.00    +0.000 A 
ATOM     27  C   UNL     1       5.843   4.078  15.797  0.00  0.00    +0.000 A 
ATOM     28  C   UNL     1       4.643   4.107  16.504  0.00  0.00    +0.000 A 
ENDBRANCH  20  23
ENDBRANCH  18  20
ENDBRANCH   4  18
TORSDOF 6
ENDMDL
