MODEL 1
REMARK VINA RESULT:      -7.8      0.000      0.000
REMARK  Name = 
REMARK  6 active torsions:
REMARK  status: ('A' for Active; 'I' for Inactive)
REMARK    1  A    between atoms: C_1  and  C_2
REMARK    2  A    between atoms: C_2  and  N_3
REMARK    3  A    between atoms: C_10  and  C_11
REMARK    4  A    between atoms: N_13  and  C_14
REMARK    5  A    between atoms: C_14  and  C_15
REMARK    6  A    between atoms: C_20  and  C_21
REMARK                            x       y       z     vdW  Elec       q    Type
REMARK                         _______ _______ _______ _____ _____    ______ ____
ROOT
ATOM      1  N   UNL     1       1.782   4.179  18.985  0.00  0.00    +0.000 N 
ATOM      2  C   UNL     1       1.769   2.968  18.169  0.00  0.00    +0.000 C 
ATOM      3  C   UNL     1       3.164   2.363  18.108  0.00  0.00    +0.000 C 
ATOM      4  S   UNL     1       4.367   3.483  17.311  0.00  0.00    +0.000 S 
ATOM      5  C   UNL     1       3.643   5.091  17.679  0.00  0.00    +0.000 A 
ATOM      6  C   UNL     1       4.322   6.205  17.160  0.00  0.00    +0.000 A 
ATOM      7  C   UNL     1       3.831   7.501  17.346  0.00  0.00    +0.000 A 
ATOM      8  C   UNL     1       2.651   7.699  18.069  0.00  0.00    +0.000 A 
ATOM      9  C   UNL     1       1.989   6.591  18.612  0.00  0.00    +0.000 A 
ATOM     10  C   UNL     1       2.465   5.272  18.440  0.00  0.00    +0.000 A 
ENDROOT
BRANCH   8  11
ATOM     11  C   UNL     1       2.043   9.064  18.210  0.00  0.00    +0.000 C 
ATOM     12  O   UNL     1       2.434   9.982  17.501  0.00  0.00    +0.000 OA
ATOM     13  N   UNL     1       1.047   9.198  19.155  0.00  0.00    +0.000 N 
ATOM     14  H   UNL     1       0.661   8.377  19.593  0.00  0.00    +0.000 HD
BRANCH  13  15
ATOM     15  C   UNL     1       0.392  10.463  19.458  0.00  0.00    +0.000 C 
BRANCH  15  16
ATOM     16  C   UNL     1      -0.919  10.631  18.709  0.00  0.00    +0.000 A 
ATOM     17  C   UNL     1      -1.131   9.821  17.576  0.00  0.00    +0.000 A 
ATOM     18  C   UNL     1      -2.327   9.865  16.857  0.00  0.00    +0.000 A 
ATOM     19  C   UNL     1      -3.345  10.720  17.261  0.00  0.00    +0.000 A 
ATOM     20  C   UNL     1      -3.163  11.527  18.380  0.00  0.00    +0.000 A 
ATOM     21  C   UNL     1      -1.959  11.502  19.116  0.00  0.00    +0.000 A 
ATOM     22  C   UNL     1      -1.869  12.386  20.329  0.00  0.00    +0.000 C 
ENDBRANCH  15  16
ENDBRANCH  13  15
ENDBRANCH   8  11
BRANCH   1  24
ATOM     23  C   UNL     1       1.513   3.269  21.296  0.00  0.00    +0.000 C 
ATOM     24  C   UNL     1       1.085   4.301  20.262  0.00  0.00    +0.000 C 
ENDBRANCH   1  24
TORSDOF 4
ENDMDL
MODEL 2
REMARK VINA RESULT:      -7.8      1.502      2.356
REMARK  Name = 
REMARK  6 active torsions:
REMARK  status: ('A' for Active; 'I' for Inactive)
REMARK    1  A    between atoms: C_1  and  C_2
REMARK    2  A    between atoms: C_2  and  N_3
REMARK    3  A    between atoms: C_10  and  C_11
REMARK    4  A    between atoms: N_13  and  C_14
REMARK    5  A    between atoms: C_14  and  C_15
REMARK    6  A    between atoms: C_20  and  C_21
REMARK                            x       y       z     vdW  Elec       q    Type
REMARK                         _______ _______ _______ _____ _____    ______ ____
ROOT
ATOM      1  N   UNL     1       1.839   4.078  19.075  0.00  0.00    +0.000 N 
ATOM      2  C   UNL     1       1.813   2.834  18.310  0.00  0.00    +0.000 C 
ATOM      3  C   UNL     1       3.207   2.224  18.257  0.00  0.00    +0.000 C 
ATOM      4  S   UNL     1       4.402   3.306  17.400  0.00  0.00    +0.000 S 
ATOM      5  C   UNL     1       3.685   4.930  17.708  0.00  0.00    +0.000 A 
ATOM      6  C   UNL     1       4.360   6.019  17.134  0.00  0.00    +0.000 A 
ATOM      7  C   UNL     1       3.874   7.323  17.272  0.00  0.00    +0.000 A 
ATOM      8  C   UNL     1       2.703   7.554  18.001  0.00  0.00    +0.000 A 
ATOM      9  C   UNL     1       2.045   6.472  18.598  0.00  0.00    +0.000 A 
ATOM     10  C   UNL     1       2.517   5.146  18.476  0.00  0.00    +0.000 A 
ENDROOT
BRANCH   8  11
ATOM     11  C   UNL     1       2.099   8.925  18.092  0.00  0.00    +0.000 C 
ATOM     12  O   UNL     1       2.575   9.846  17.440  0.00  0.00    +0.000 OA
ATOM     13  N   UNL     1       1.009   9.062  18.925  0.00  0.00    +0.000 N 
ATOM     14  H   UNL     1       0.568   8.242  19.309  0.00  0.00    +0.000 HD
BRANCH  13  15
ATOM     15  C   UNL     1       0.339  10.333  19.171  0.00  0.00    +0.000 C 
BRANCH  15  16
ATOM     16  C   UNL     1      -0.211  10.433  20.585  0.00  0.00    +0.000 A 
ATOM     17  C   UNL     1      -0.006   9.335  21.444  0.00  0.00    +0.000 A 
ATOM     18  C   UNL     1      -0.425   9.358  22.774  0.00  0.00    +0.000 A 
ATOM     19  C   UNL     1      -1.057  10.488  23.280  0.00  0.00    +0.000 A 
ATOM     20  C   UNL     1      -1.266  11.588  22.454  0.00  0.00    +0.000 A 
ATOM     21  C   UNL     1      -0.855  11.581  21.104  0.00  0.00    +0.000 A 
ATOM     22  C   UNL     1      -1.096  12.829  20.300  0.00  0.00    +0.000 C 
ENDBRANCH  15  16
ENDBRANCH  13  15
ENDBRANCH   8  11
BRANCH   1  24
ATOM     23  C   UNL     1       1.577   3.250  21.417  0.00  0.00    +0.000 C 
ATOM     24  C   UNL     1       1.158   4.256  20.354  0.00  0.00    +0.000 C 
ENDBRANCH   1  24
TORSDOF 4
ENDMDL
MODEL 3
REMARK VINA RESULT:      -7.7      1.125      1.157
REMARK  Name = 
REMARK  6 active torsions:
REMARK  status: ('A' for Active; 'I' for Inactive)
REMARK    1  A    between atoms: C_1  and  C_2
REMARK    2  A    between atoms: C_2  and  N_3
REMARK    3  A    between atoms: C_10  and  C_11
REMARK    4  A    between atoms: N_13  and  C_14
REMARK    5  A    between atoms: C_14  and  C_15
REMARK    6  A    between atoms: C_20  and  C_21
REMARK                            x       y       z     vdW  Elec       q    Type
REMARK                         _______ _______ _______ _____ _____    ______ ____
ROOT
ATOM      1  N   UNL     1       2.481   3.947  19.810  0.00  0.00    +0.000 N 
ATOM      2  C   UNL     1       2.399   2.821  18.884  0.00  0.00    +0.000 C 
ATOM      3  C   UNL     1       3.756   2.576  18.237  0.00  0.00    +0.000 C 
ATOM      4  S   UNL     1       4.309   4.000  17.236  0.00  0.00    +0.000 S 
ATOM      5  C   UNL     1       3.475   5.359  18.072  0.00  0.00    +0.000 A 
ATOM      6  C   UNL     1       3.663   6.634  17.515  0.00  0.00    +0.000 A 
ATOM      7  C   UNL     1       3.032   7.759  18.054  0.00  0.00    +0.000 A 
ATOM      8  C   UNL     1       2.205   7.621  19.174  0.00  0.00    +0.000 A 
ATOM      9  C   UNL     1       2.039   6.355  19.748  0.00  0.00    +0.000 A 
ATOM     10  C   UNL     1       2.668   5.204  19.224  0.00  0.00    +0.000 A 
ENDROOT
BRANCH   8  11
ATOM     11  C   UNL     1       1.437   8.787  19.724  0.00  0.00    +0.000 C 
ATOM     12  O   UNL     1       1.288   8.904  20.934  0.00  0.00    +0.000 OA
ATOM     13  N   UNL     1       0.940   9.684  18.802  0.00  0.00    +0.000 N 
ATOM     14  H   UNL     1       1.228   9.622  17.839  0.00  0.00    +0.000 HD
BRANCH  13  15
ATOM     15  C   UNL     1       0.126  10.838  19.162  0.00  0.00    +0.000 C 
BRANCH  15  16
ATOM     16  C   UNL     1      -1.227  10.831  18.468  0.00  0.00    +0.000 A 
ATOM     17  C   UNL     1      -1.400   9.948  17.385  0.00  0.00    +0.000 A 
ATOM     18  C   UNL     1      -2.622   9.831  16.723  0.00  0.00    +0.000 A 
ATOM     19  C   UNL     1      -3.708  10.594  17.136  0.00  0.00    +0.000 A 
ATOM     20  C   UNL     1      -3.564  11.471  18.207  0.00  0.00    +0.000 A 
ATOM     21  C   UNL     1      -2.334  11.608  18.885  0.00  0.00    +0.000 A 
ATOM     22  C   UNL     1      -2.287  12.556  20.050  0.00  0.00    +0.000 C 
ENDBRANCH  15  16
ENDBRANCH  13  15
ENDBRANCH   8  11
BRANCH   1  24
ATOM     23  C   UNL     1       1.549   2.574  21.678  0.00  0.00    +0.000 C 
ATOM     24  C   UNL     1       2.318   3.819  21.255  0.00  0.00    +0.000 C 
ENDBRANCH   1  24
TORSDOF 4
ENDMDL
MODEL 4
REMARK VINA RESULT:      -7.7      2.682      4.180
REMARK  Name = 
REMARK  6 active torsions:
REMARK  status: ('A' for Active; 'I' for Inactive)
REMARK    1  A    between atoms: C_1  and  C_2
REMARK    2  A    between atoms: C_2  and  N_3
REMARK    3  A    between atoms: C_10  and  C_11
REMARK    4  A    between atoms: N_13  and  C_14
REMARK    5  A    between atoms: C_14  and  C_15
REMARK    6  A    between atoms: C_20  and  C_21
REMARK                            x       y       z     vdW  Elec       q    Type
REMARK                         _______ _______ _______ _____ _____    ______ ____
ROOT
ATOM      1  N   UNL     1       6.227   6.089  17.345  0.00  0.00    +0.000 N 
ATOM      2  C   UNL     1       7.304   5.172  16.981  0.00  0.00    +0.000 C 
ATOM      3  C   UNL     1       7.046   4.584  15.601  0.00  0.00    +0.000 C 
ATOM      4  S   UNL     1       5.514   3.593  15.548  0.00  0.00    +0.000 S 
ATOM      5  C   UNL     1       4.545   4.380  16.846  0.00  0.00    +0.000 A 
ATOM      6  C   UNL     1       3.283   3.818  17.100  0.00  0.00    +0.000 A 
ATOM      7  C   UNL     1       2.459   4.319  18.112  0.00  0.00    +0.000 A 
ATOM      8  C   UNL     1       2.888   5.406  18.882  0.00  0.00    +0.000 A 
ATOM      9  C   UNL     1       4.133   5.985  18.611  0.00  0.00    +0.000 A 
ATOM     10  C   UNL     1       4.983   5.499  17.592  0.00  0.00    +0.000 A 
ENDROOT
BRANCH   8  11
ATOM     11  C   UNL     1       2.074   5.911  20.037  0.00  0.00    +0.000 C 
ATOM     12  O   UNL     1       1.454   5.122  20.739  0.00  0.00    +0.000 OA
ATOM     13  N   UNL     1       2.084   7.274  20.244  0.00  0.00    +0.000 N 
ATOM     14  H   UNL     1       2.734   7.853  19.737  0.00  0.00    +0.000 HD
BRANCH  13  15
ATOM     15  C   UNL     1       1.305   7.935  21.284  0.00  0.00    +0.000 C 
BRANCH  15  16
ATOM     16  C   UNL     1       0.652   9.216  20.792  0.00  0.00    +0.000 A 
ATOM     17  C   UNL     1       0.795   9.540  19.428  0.00  0.00    +0.000 A 
ATOM     18  C   UNL     1       0.185  10.665  18.874  0.00  0.00    +0.000 A 
ATOM     19  C   UNL     1      -0.593  11.494  19.674  0.00  0.00    +0.000 A 
ATOM     20  C   UNL     1      -0.755  11.194  21.023  0.00  0.00    +0.000 A 
ATOM     21  C   UNL     1      -0.140  10.064  21.603  0.00  0.00    +0.000 A 
ATOM     22  C   UNL     1      -0.401   9.805  23.061  0.00  0.00    +0.000 C 
ENDBRANCH  15  16
ENDBRANCH  13  15
ENDBRANCH   8  11
BRANCH   1  24
ATOM     23  C   UNL     1       7.870   7.948  17.640  0.00  0.00    +0.000 C 
ATOM     24  C   UNL     1       6.413   7.528  17.512  0.00  0.00    +0.000 C 
ENDBRANCH   1  24
TORSDOF 4
ENDMDL
MODEL 5
REMARK VINA RESULT:      -7.6      2.796      7.692
REMARK  Name = 
REMARK  6 active torsions:
REMARK  status: ('A' for Active; 'I' for Inactive)
REMARK    1  A    between atoms: C_1  and  C_2
REMARK    2  A    between atoms: C_2  and  N_3
REMARK    3  A    between atoms: C_10  and  C_11
REMARK    4  A    between atoms: N_13  and  C_14
REMARK    5  A    between atoms: C_14  and  C_15
REMARK    6  A    between atoms: C_20  and  C_21
REMARK                            x       y       z     vdW  Elec       q    Type
REMARK                         _______ _______ _______ _____ _____    ______ ____
ROOT
ATOM      1  N   UNL     1      -2.618  10.379  17.222  0.00  0.00    +0.000 N 
ATOM      2  C   UNL     1      -3.906  10.530  17.893  0.00  0.00    +0.000 C 
ATOM      3  C   UNL     1      -4.053  11.948  18.428  0.00  0.00    +0.000 C 
ATOM      4  S   UNL     1      -2.791  12.344  19.687  0.00  0.00    +0.000 S 
ATOM      5  C   UNL     1      -1.444  11.260  19.183  0.00  0.00    +0.000 A 
ATOM      6  C   UNL     1      -0.295  11.289  19.990  0.00  0.00    +0.000 A 
ATOM      7  C   UNL     1       0.798  10.460  19.721  0.00  0.00    +0.000 A 
ATOM      8  C   UNL     1       0.758   9.592  18.625  0.00  0.00    +0.000 A 
ATOM      9  C   UNL     1      -0.376   9.582  17.803  0.00  0.00    +0.000 A 
ATOM     10  C   UNL     1      -1.492  10.411  18.052  0.00  0.00    +0.000 A 
ENDROOT
BRANCH   8  11
ATOM     11  C   UNL     1       1.871   8.621  18.358  0.00  0.00    +0.000 C 
ATOM     12  O   UNL     1       2.513   8.699  17.318  0.00  0.00    +0.000 OA
ATOM     13  N   UNL     1       2.110   7.679  19.336  0.00  0.00    +0.000 N 
ATOM     14  H   UNL     1       1.659   7.763  20.232  0.00  0.00    +0.000 HD
BRANCH  13  15
ATOM     15  C   UNL     1       3.114   6.629  19.212  0.00  0.00    +0.000 C 
BRANCH  15  16
ATOM     16  C   UNL     1       2.502   5.238  19.226  0.00  0.00    +0.000 A 
ATOM     17  C   UNL     1       1.551   4.954  20.225  0.00  0.00    +0.000 A 
ATOM     18  C   UNL     1       0.894   3.724  20.282  0.00  0.00    +0.000 A 
ATOM     19  C   UNL     1       1.172   2.747  19.333  0.00  0.00    +0.000 A 
ATOM     20  C   UNL     1       2.104   3.006  18.332  0.00  0.00    +0.000 A 
ATOM     21  C   UNL     1       2.782   4.241  18.261  0.00  0.00    +0.000 A 
ATOM     22  C   UNL     1       3.747   4.437  17.125  0.00  0.00    +0.000 C 
ENDBRANCH  15  16
ENDBRANCH  13  15
ENDBRANCH   8  11
BRANCH   1  24
ATOM     23  C   UNL     1      -3.739  10.431  14.990  0.00  0.00    +0.000 C 
ATOM     24  C   UNL     1      -2.476  10.142  15.788  0.00  0.00    +0.000 C 
ENDBRANCH   1  24
TORSDOF 4
ENDMDL
MODEL 6
REMARK VINA RESULT:      -7.5      3.194      8.065
REMARK  Name = 
REMARK  6 active torsions:
REMARK  status: ('A' for Active; 'I' for Inactive)
REMARK    1  A    between atoms: C_1  and  C_2
REMARK    2  A    between atoms: C_2  and  N_3
REMARK    3  A    between atoms: C_10  and  C_11
REMARK    4  A    between atoms: N_13  and  C_14
REMARK    5  A    between atoms: C_14  and  C_15
REMARK    6  A    between atoms: C_20  and  C_21
REMARK                            x       y       z     vdW  Elec       q    Type
REMARK                         _______ _______ _______ _____ _____    ______ ____
ROOT
ATOM      1  N   UNL     1      -0.814  12.237  20.040  0.00  0.00    +0.000 N 
ATOM      2  C   UNL     1      -2.171  12.538  20.488  0.00  0.00    +0.000 C 
ATOM      3  C   UNL     1      -2.156  12.967  21.949  0.00  0.00    +0.000 C 
ATOM      4  S   UNL     1      -1.554  11.641  23.051  0.00  0.00    +0.000 S 
ATOM      5  C   UNL     1      -0.477  10.724  21.936  0.00  0.00    +0.000 A 
ATOM      6  C   UNL     1       0.136   9.581  22.474  0.00  0.00    +0.000 A 
ATOM      7  C   UNL     1       0.960   8.766  21.691  0.00  0.00    +0.000 A 
ATOM      8  C   UNL     1       1.191   9.097  20.351  0.00  0.00    +0.000 A 
ATOM      9  C   UNL     1       0.603  10.252  19.822  0.00  0.00    +0.000 A 
ATOM     10  C   UNL     1      -0.231  11.092  20.592  0.00  0.00    +0.000 A 
ENDROOT
BRANCH   8  11
ATOM     11  C   UNL     1       1.992   8.199  19.455  0.00  0.00    +0.000 C 
ATOM     12  O   UNL     1       2.197   8.523  18.291  0.00  0.00    +0.000 OA
ATOM     13  N   UNL     1       2.468   7.034  20.019  0.00  0.00    +0.000 N 
ATOM     14  H   UNL     1       2.404   6.898  21.015  0.00  0.00    +0.000 HD
BRANCH  13  15
ATOM     15  C   UNL     1       3.213   6.026  19.275  0.00  0.00    +0.000 C 
BRANCH  15  16
ATOM     16  C   UNL     1       2.465   4.707  19.178  0.00  0.00    +0.000 A 
ATOM     17  C   UNL     1       1.469   4.449  20.140  0.00  0.00    +0.000 A 
ATOM     18  C   UNL     1       0.692   3.291  20.097  0.00  0.00    +0.000 A 
ATOM     19  C   UNL     1       0.890   2.362  19.083  0.00  0.00    +0.000 A 
ATOM     20  C   UNL     1       1.864   2.596  18.117  0.00  0.00    +0.000 A 
ATOM     21  C   UNL     1       2.665   3.758  18.146  0.00  0.00    +0.000 A 
ATOM     22  C   UNL     1       3.668   3.937  17.041  0.00  0.00    +0.000 C 
ENDBRANCH  15  16
ENDBRANCH  13  15
ENDBRANCH   8  11
BRANCH   1  24
ATOM     23  C   UNL     1      -0.201  14.524  19.242  0.00  0.00    +0.000 C 
ATOM     24  C   UNL     1      -0.103  13.019  19.033  0.00  0.00    +0.000 C 
ENDBRANCH   1  24
TORSDOF 4
ENDMDL
MODEL 7
REMARK VINA RESULT:      -7.4      2.926      7.786
REMARK  Name = 
REMARK  6 active torsions:
REMARK  status: ('A' for Active; 'I' for Inactive)
REMARK    1  A    between atoms: C_1  and  C_2
REMARK    2  A    between atoms: C_2  and  N_3
REMARK    3  A    between atoms: C_10  and  C_11
REMARK    4  A    between atoms: N_13  and  C_14
REMARK    5  A    between atoms: C_14  and  C_15
REMARK    6  A    between atoms: C_20  and  C_21
REMARK                            x       y       z     vdW  Elec       q    Type
REMARK                         _______ _______ _______ _____ _____    ______ ____
ROOT
ATOM      1  N   UNL     1      -2.472  11.140  17.916  0.00  0.00    +0.000 N 
ATOM      2  C   UNL     1      -3.735  11.314  18.629  0.00  0.00    +0.000 C 
ATOM      3  C   UNL     1      -3.702  12.599  19.444  0.00  0.00    +0.000 C 
ATOM      4  S   UNL     1      -2.408  12.568  20.732  0.00  0.00    +0.000 S 
ATOM      5  C   UNL     1      -1.208  11.446  19.992  0.00  0.00    +0.000 A 
ATOM      6  C   UNL     1      -0.070  11.165  20.765  0.00  0.00    +0.000 A 
ATOM      7  C   UNL     1       0.909  10.276  20.312  0.00  0.00    +0.000 A 
ATOM      8  C   UNL     1       0.765   9.661  19.064  0.00  0.00    +0.000 A 
ATOM      9  C   UNL     1      -0.355   9.963  18.280  0.00  0.00    +0.000 A 
ATOM     10  C   UNL     1      -1.358  10.859  18.713  0.00  0.00    +0.000 A 
ENDROOT
BRANCH   8  11
ATOM     11  C   UNL     1       1.746   8.632  18.584  0.00  0.00    +0.000 C 
ATOM     12  O   UNL     1       2.285   8.765  17.492  0.00  0.00    +0.000 OA
ATOM     13  N   UNL     1       1.989   7.574  19.433  0.00  0.00    +0.000 N 
ATOM     14  H   UNL     1       1.640   7.600  20.377  0.00  0.00    +0.000 HD
BRANCH  13  15
ATOM     15  C   UNL     1       2.869   6.460  19.099  0.00  0.00    +0.000 C 
BRANCH  15  16
ATOM     16  C   UNL     1       2.347   5.133  19.625  0.00  0.00    +0.000 A 
ATOM     17  C   UNL     1       2.502   4.869  21.000  0.00  0.00    +0.000 A 
ATOM     18  C   UNL     1       2.006   3.703  21.583  0.00  0.00    +0.000 A 
ATOM     19  C   UNL     1       1.334   2.772  20.801  0.00  0.00    +0.000 A 
ATOM     20  C   UNL     1       1.162   3.010  19.441  0.00  0.00    +0.000 A 
ATOM     21  C   UNL     1       1.663   4.181  18.832  0.00  0.00    +0.000 A 
ATOM     22  C   UNL     1       1.400   4.364  17.363  0.00  0.00    +0.000 C 
ENDBRANCH  15  16
ENDBRANCH  13  15
ENDBRANCH   8  11
BRANCH   1  24
ATOM     23  C   UNL     1      -3.077  10.047  15.752  0.00  0.00    +0.000 C 
ATOM     24  C   UNL     1      -2.353  11.183  16.462  0.00  0.00    +0.000 C 
ENDBRANCH   1  24
TORSDOF 4
ENDMDL
MODEL 8
REMARK VINA RESULT:      -7.3      1.730      2.724
REMARK  Name = 
REMARK  6 active torsions:
REMARK  status: ('A' for Active; 'I' for Inactive)
REMARK    1  A    between atoms: C_1  and  C_2
REMARK    2  A    between atoms: C_2  and  N_3
REMARK    3  A    between atoms: C_10  and  C_11
REMARK    4  A    between atoms: N_13  and  C_14
REMARK    5  A    between atoms: C_14  and  C_15
REMARK    6  A    between atoms: C_20  and  C_21
REMARK                            x       y       z     vdW  Elec       q    Type
REMARK                         _______ _______ _______ _____ _____    ______ ____
ROOT
ATOM      1  N   UNL     1       1.812   3.955  19.079  0.00  0.00    +0.000 N 
ATOM      2  C   UNL     1       1.791   2.702  18.329  0.00  0.00    +0.000 C 
ATOM      3  C   UNL     1       3.176   2.069  18.330  0.00  0.00    +0.000 C 
ATOM      4  S   UNL     1       4.416   3.121  17.500  0.00  0.00    +0.000 S 
ATOM      5  C   UNL     1       3.716   4.760  17.765  0.00  0.00    +0.000 A 
ATOM      6  C   UNL     1       4.427   5.831  17.201  0.00  0.00    +0.000 A 
ATOM      7  C   UNL     1       3.958   7.145  17.307  0.00  0.00    +0.000 A 
ATOM      8  C   UNL     1       2.767   7.403  17.994  0.00  0.00    +0.000 A 
ATOM      9  C   UNL     1       2.072   6.339  18.581  0.00  0.00    +0.000 A 
ATOM     10  C   UNL     1       2.526   5.004  18.491  0.00  0.00    +0.000 A 
ENDROOT
BRANCH   8  11
ATOM     11  C   UNL     1       2.183   8.784  18.048  0.00  0.00    +0.000 C 
ATOM     12  O   UNL     1       2.458   9.598  17.175  0.00  0.00    +0.000 OA
ATOM     13  N   UNL     1       1.343   9.054  19.107  0.00  0.00    +0.000 N 
ATOM     14  H   UNL     1       1.030   8.304  19.702  0.00  0.00    +0.000 HD
BRANCH  13  15
ATOM     15  C   UNL     1       0.737  10.359  19.341  0.00  0.00    +0.000 C 
BRANCH  15  16
ATOM     16  C   UNL     1       0.125  10.473  20.728  0.00  0.00    +0.000 A 
ATOM     17  C   UNL     1      -0.736  11.561  20.974  0.00  0.00    +0.000 A 
ATOM     18  C   UNL     1      -1.388  11.717  22.197  0.00  0.00    +0.000 A 
ATOM     19  C   UNL     1      -1.198  10.780  23.206  0.00  0.00    +0.000 A 
ATOM     20  C   UNL     1      -0.357   9.694  22.987  0.00  0.00    +0.000 A 
ATOM     21  C   UNL     1       0.316   9.522  21.759  0.00  0.00    +0.000 A 
ATOM     22  C   UNL     1       1.178   8.299  21.606  0.00  0.00    +0.000 C 
ENDBRANCH  15  16
ENDBRANCH  13  15
ENDBRANCH   8  11
BRANCH   1  24
ATOM     23  C   UNL     1       1.623   3.324  21.489  0.00  0.00    +0.000 C 
ATOM     24  C   UNL     1       1.091   4.159  20.333  0.00  0.00    +0.000 C 
ENDBRANCH   1  24
TORSDOF 4
ENDMDL
MODEL 9
REMARK VINA RESULT:      -7.3      1.723      2.902
REMARK  Name = 
REMARK  6 active torsions:
REMARK  status: ('A' for Active; 'I' for Inactive)
REMARK    1  A    between atoms: C_1  and  C_2
REMARK    2  A    between atoms: C_2  and  N_3
REMARK    3  A    between atoms: C_10  and  C_11
REMARK    4  A    between atoms: N_13  and  C_14
REMARK    5  A    between atoms: C_14  and  C_15
REMARK    6  A    between atoms: C_20  and  C_21
REMARK                            x       y       z     vdW  Elec       q    Type
REMARK                         _______ _______ _______ _____ _____    ______ ____
ROOT
ATOM      1  N   UNL     1       5.073   5.962  17.160  0.00  0.00    +0.000 N 
ATOM      2  C   UNL     1       6.148   5.252  17.849  0.00  0.00    +0.000 C 
ATOM      3  C   UNL     1       5.661   3.884  18.305  0.00  0.00    +0.000 C 
ATOM      4  S   UNL     1       4.295   4.004  19.511  0.00  0.00    +0.000 S 
ATOM      5  C   UNL     1       3.553   5.576  19.042  0.00  0.00    +0.000 A 
ATOM      6  C   UNL     1       2.464   6.000  19.820  0.00  0.00    +0.000 A 
ATOM      7  C   UNL     1       1.834   7.224  19.575  0.00  0.00    +0.000 A 
ATOM      8  C   UNL     1       2.284   8.040  18.532  0.00  0.00    +0.000 A 
ATOM      9  C   UNL     1       3.352   7.606  17.737  0.00  0.00    +0.000 A 
ATOM     10  C   UNL     1       4.003   6.373  17.962  0.00  0.00    +0.000 A 
ENDROOT
BRANCH   8  11
ATOM     11  C   UNL     1       1.696   9.401  18.298  0.00  0.00    +0.000 C 
ATOM     12  O   UNL     1       2.176  10.134  17.441  0.00  0.00    +0.000 OA
ATOM     13  N   UNL     1       0.615   9.745  19.081  0.00  0.00    +0.000 N 
ATOM     14  H   UNL     1       0.169   9.046  19.653  0.00  0.00    +0.000 HD
BRANCH  13  15
ATOM     15  C   UNL     1      -0.039  11.046  19.022  0.00  0.00    +0.000 C 
BRANCH  15  16
ATOM     16  C   UNL     1      -1.419  10.972  18.391  0.00  0.00    +0.000 A 
ATOM     17  C   UNL     1      -1.601  10.071  17.324  0.00  0.00    +0.000 A 
ATOM     18  C   UNL     1      -2.846   9.893  16.719  0.00  0.00    +0.000 A 
ATOM     19  C   UNL     1      -3.945  10.613  17.174  0.00  0.00    +0.000 A 
ATOM     20  C   UNL     1      -3.793  11.506  18.230  0.00  0.00    +0.000 A 
ATOM     21  C   UNL     1      -2.541  11.704  18.851  0.00  0.00    +0.000 A 
ATOM     22  C   UNL     1      -2.484  12.666  20.005  0.00  0.00    +0.000 C 
ENDBRANCH  15  16
ENDBRANCH  13  15
ENDBRANCH   8  11
BRANCH   1  24
ATOM     23  C   UNL     1       5.785   5.245  14.875  0.00  0.00    +0.000 C 
ATOM     24  C   UNL     1       5.108   6.299  15.739  0.00  0.00    +0.000 C 
ENDBRANCH   1  24
TORSDOF 4
ENDMDL
