MODEL 1
REMARK VINA RESULT:      -8.3      0.000      0.000
REMARK  Name = 
REMARK  4 active torsions:
REMARK  status: ('A' for Active; 'I' for Inactive)
REMARK    1  A    between atoms: C_2  and  C_5
REMARK    2  A    between atoms: N_3  and  O_4
REMARK    3  A    between atoms: C_8  and  C_9
REMARK    4  A    between atoms: C_9  and  N_10
REMARK                            x       y       z     vdW  Elec       q    Type
REMARK                         _______ _______ _______ _____ _____    ______ ____
ROOT
ATOM      1  C   UNL     1       5.818   5.256  18.423  0.00  0.00    +0.000 C 
ENDROOT
BRANCH   1   2
ATOM      2  N   UNL     1       4.437   5.372  18.923  0.00  0.00    +0.000 N 
ATOM      3  C   UNL     1       3.647   4.471  19.614  0.00  0.00    +0.000 A 
ATOM      4  C   UNL     1       2.556   5.185  20.098  0.00  0.00    +0.000 A 
ATOM      5  C   UNL     1       2.694   6.526  19.681  0.00  0.00    +0.000 A 
ATOM      6  C   UNL     1       1.874   7.654  19.861  0.00  0.00    +0.000 A 
ATOM      7  C   UNL     1       1.793   8.574  18.823  0.00  0.00    +0.000 A 
ATOM      8  C   UNL     1       2.582   8.415  17.685  0.00  0.00    +0.000 A 
ATOM      9  C   UNL     1       3.580   7.425  17.610  0.00  0.00    +0.000 A 
ATOM     10  C   UNL     1       3.635   6.488  18.655  0.00  0.00    +0.000 A 
ATOM     11  C   UNL     1       1.294   4.625  20.659  0.00  0.00    +0.000 C 
ATOM     12  S   UNL     1       0.933   3.015  19.884  0.00  0.00    +0.000 S 
ATOM     13  C   UNL     1       2.557   2.241  20.184  0.00  0.00    +0.000 C 
ATOM     14  C   UNL     1       3.795   2.983  19.634  0.00  0.00    +0.000 C 
ENDBRANCH   1   2
BRANCH   1  18
ATOM     15  C   UNL     1       6.343   4.107  14.248  0.00  0.00    +0.000 A 
ATOM     16  C   UNL     1       5.232   3.673  14.980  0.00  0.00    +0.000 A 
ATOM     17  C   UNL     1       5.077   4.026  16.326  0.00  0.00    +0.000 A 
ATOM     18  C   UNL     1       6.034   4.837  16.978  0.00  0.00    +0.000 A 
ATOM     19  C   UNL     1       7.122   5.303  16.224  0.00  0.00    +0.000 A 
ATOM     20  C   UNL     1       7.280   4.942  14.870  0.00  0.00    +0.000 A 
BRANCH  15  22
ATOM     21  O   UNL     1       7.056   4.315  11.986  0.00  0.00    +0.000 OA
ATOM     22  C   UNL     1       6.482   3.653  12.841  0.00  0.00    +0.000 C 
ATOM     23  N   UNL     1       5.844   2.460  12.535  0.00  0.00    +0.000 N 
ATOM     24  H   UNL     1       5.101   2.085  13.110  0.00  0.00    +0.000 HD
BRANCH  23  25
ATOM     25  O   UNL     1       5.767   2.141  11.155  0.00  0.00    +0.000 OA
ATOM     26  H   UNL     1       6.657   2.421  10.830  0.00  0.00    +0.000 HD
ENDBRANCH  23  25
ENDBRANCH  15  22
ENDBRANCH   1  18
TORSDOF 4
ENDMDL
MODEL 2
REMARK VINA RESULT:      -8.2      0.377      1.041
REMARK  Name = 
REMARK  4 active torsions:
REMARK  status: ('A' for Active; 'I' for Inactive)
REMARK    1  A    between atoms: C_2  and  C_5
REMARK    2  A    between atoms: N_3  and  O_4
REMARK    3  A    between atoms: C_8  and  C_9
REMARK    4  A    between atoms: C_9  and  N_10
REMARK                            x       y       z     vdW  Elec       q    Type
REMARK                         _______ _______ _______ _____ _____    ______ ____
ROOT
ATOM      1  C   UNL     1       5.681   5.803  18.118  0.00  0.00    +0.000 C 
ENDROOT
BRANCH   1   2
ATOM      2  N   UNL     1       4.340   5.792  18.729  0.00  0.00    +0.000 N 
ATOM      3  C   UNL     1       3.678   4.809  19.442  0.00  0.00    +0.000 A 
ATOM      4  C   UNL     1       2.580   5.417  20.038  0.00  0.00    +0.000 A 
ATOM      5  C   UNL     1       2.582   6.779  19.668  0.00  0.00    +0.000 A 
ATOM      6  C   UNL     1       1.697   7.832  19.958  0.00  0.00    +0.000 A 
ATOM      7  C   UNL     1       1.464   8.779  18.967  0.00  0.00    +0.000 A 
ATOM      8  C   UNL     1       2.168   8.723  17.766  0.00  0.00    +0.000 A 
ATOM      9  C   UNL     1       3.228   7.817  17.573  0.00  0.00    +0.000 A 
ATOM     10  C   UNL     1       3.437   6.851  18.571  0.00  0.00    +0.000 A 
ATOM     11  C   UNL     1       1.413   4.741  20.673  0.00  0.00    +0.000 C 
ATOM     12  S   UNL     1       1.113   3.136  19.861  0.00  0.00    +0.000 S 
ATOM     13  C   UNL     1       2.809   2.482  20.002  0.00  0.00    +0.000 C 
ATOM     14  C   UNL     1       3.939   3.337  19.388  0.00  0.00    +0.000 C 
ENDBRANCH   1   2
BRANCH   1  18
ATOM     15  C   UNL     1       6.223   4.128  14.128  0.00  0.00    +0.000 A 
ATOM     16  C   UNL     1       7.280   4.760  14.793  0.00  0.00    +0.000 A 
ATOM     17  C   UNL     1       7.097   5.316  16.065  0.00  0.00    +0.000 A 
ATOM     18  C   UNL     1       5.844   5.244  16.714  0.00  0.00    +0.000 A 
ATOM     19  C   UNL     1       4.802   4.570  16.058  0.00  0.00    +0.000 A 
ATOM     20  C   UNL     1       4.986   4.016  14.774  0.00  0.00    +0.000 A 
BRANCH  15  22
ATOM     21  O   UNL     1       7.090   4.234  11.913  0.00  0.00    +0.000 OA
ATOM     22  C   UNL     1       6.462   3.609  12.757  0.00  0.00    +0.000 C 
ATOM     23  N   UNL     1       5.852   2.398  12.465  0.00  0.00    +0.000 N 
ATOM     24  H   UNL     1       5.072   2.045  13.004  0.00  0.00    +0.000 HD
BRANCH  23  25
ATOM     25  O   UNL     1       5.872   2.013  11.100  0.00  0.00    +0.000 OA
ATOM     26  H   UNL     1       6.514   1.261  11.109  0.00  0.00    +0.000 HD
ENDBRANCH  23  25
ENDBRANCH  15  22
ENDBRANCH   1  18
TORSDOF 4
ENDMDL
MODEL 3
REMARK VINA RESULT:      -8.2      5.219      8.178
REMARK  Name = 
REMARK  4 active torsions:
REMARK  status: ('A' for Active; 'I' for Inactive)
REMARK    1  A    between atoms: C_2  and  C_5
REMARK    2  A    between atoms: N_3  and  O_4
REMARK    3  A    between atoms: C_8  and  C_9
REMARK    4  A    between atoms: C_9  and  N_10
REMARK                            x       y       z     vdW  Elec       q    Type
REMARK                         _______ _______ _______ _____ _____    ______ ____
ROOT
ATOM      1  C   UNL     1       2.516   7.696  17.744  0.00  0.00    +0.000 C 
ENDROOT
BRANCH   1   2
ATOM      2  N   UNL     1       3.336   6.494  17.980  0.00  0.00    +0.000 N 
ATOM      3  C   UNL     1       4.707   6.312  17.939  0.00  0.00    +0.000 A 
ATOM      4  C   UNL     1       4.965   5.081  18.529  0.00  0.00    +0.000 A 
ATOM      5  C   UNL     1       3.731   4.518  18.919  0.00  0.00    +0.000 A 
ATOM      6  C   UNL     1       3.409   3.291  19.525  0.00  0.00    +0.000 A 
ATOM      7  C   UNL     1       2.232   2.662  19.138  0.00  0.00    +0.000 A 
ATOM      8  C   UNL     1       1.364   3.290  18.247  0.00  0.00    +0.000 A 
ATOM      9  C   UNL     1       1.565   4.620  17.832  0.00  0.00    +0.000 A 
ATOM     10  C   UNL     1       2.770   5.235  18.211  0.00  0.00    +0.000 A 
ATOM     11  C   UNL     1       6.240   4.310  18.479  0.00  0.00    +0.000 C 
ATOM     12  S   UNL     1       7.114   4.662  16.918  0.00  0.00    +0.000 S 
ATOM     13  C   UNL     1       7.083   6.482  17.038  0.00  0.00    +0.000 C 
ATOM     14  C   UNL     1       5.698   7.146  17.191  0.00  0.00    +0.000 C 
ENDBRANCH   1   2
BRANCH   1  18
ATOM     15  C   UNL     1       0.633   9.574  21.200  0.00  0.00    +0.000 A 
ATOM     16  C   UNL     1       1.295   8.347  21.320  0.00  0.00    +0.000 A 
ATOM     17  C   UNL     1       1.880   7.736  20.204  0.00  0.00    +0.000 A 
ATOM     18  C   UNL     1       1.825   8.347  18.931  0.00  0.00    +0.000 A 
ATOM     19  C   UNL     1       1.197   9.598  18.829  0.00  0.00    +0.000 A 
ATOM     20  C   UNL     1       0.603  10.210  19.952  0.00  0.00    +0.000 A 
BRANCH  15  22
ATOM     21  O   UNL     1       0.280   9.802  23.544  0.00  0.00    +0.000 OA
ATOM     22  C   UNL     1      -0.018  10.145  22.407  0.00  0.00    +0.000 C 
ATOM     23  N   UNL     1      -1.051  11.037  22.160  0.00  0.00    +0.000 N 
ATOM     24  H   UNL     1      -1.531  11.070  21.271  0.00  0.00    +0.000 HD
BRANCH  23  25
ATOM     25  O   UNL     1      -1.831  11.402  23.287  0.00  0.00    +0.000 OA
ATOM     26  H   UNL     1      -2.351  12.167  22.938  0.00  0.00    +0.000 HD
ENDBRANCH  23  25
ENDBRANCH  15  22
ENDBRANCH   1  18
TORSDOF 4
ENDMDL
MODEL 4
REMARK VINA RESULT:      -7.9      4.561      7.448
REMARK  Name = 
REMARK  4 active torsions:
REMARK  status: ('A' for Active; 'I' for Inactive)
REMARK    1  A    between atoms: C_2  and  C_5
REMARK    2  A    between atoms: N_3  and  O_4
REMARK    3  A    between atoms: C_8  and  C_9
REMARK    4  A    between atoms: C_9  and  N_10
REMARK                            x       y       z     vdW  Elec       q    Type
REMARK                         _______ _______ _______ _____ _____    ______ ____
ROOT
ATOM      1  C   UNL     1       3.176   6.570  19.925  0.00  0.00    +0.000 C 
ENDROOT
BRANCH   1   2
ATOM      2  N   UNL     1       3.552   5.547  18.934  0.00  0.00    +0.000 N 
ATOM      3  C   UNL     1       4.570   5.525  17.998  0.00  0.00    +0.000 A 
ATOM      4  C   UNL     1       4.660   4.217  17.535  0.00  0.00    +0.000 A 
ATOM      5  C   UNL     1       3.677   3.452  18.198  0.00  0.00    +0.000 A 
ATOM      6  C   UNL     1       3.311   2.099  18.092  0.00  0.00    +0.000 A 
ATOM      7  C   UNL     1       1.965   1.775  18.220  0.00  0.00    +0.000 A 
ATOM      8  C   UNL     1       1.036   2.764  18.540  0.00  0.00    +0.000 A 
ATOM      9  C   UNL     1       1.434   4.068  18.887  0.00  0.00    +0.000 A 
ATOM     10  C   UNL     1       2.793   4.388  18.731  0.00  0.00    +0.000 A 
ATOM     11  C   UNL     1       5.402   3.738  16.334  0.00  0.00    +0.000 C 
ATOM     12  S   UNL     1       5.445   5.051  15.071  0.00  0.00    +0.000 S 
ATOM     13  C   UNL     1       6.085   6.383  16.140  0.00  0.00    +0.000 C 
ATOM     14  C   UNL     1       5.271   6.708  17.411  0.00  0.00    +0.000 C 
ENDBRANCH   1   2
BRANCH   1  18
ATOM     15  C   UNL     1       0.429   9.765  18.799  0.00  0.00    +0.000 A 
ATOM     16  C   UNL     1       0.531   9.338  20.127  0.00  0.00    +0.000 A 
ATOM     17  C   UNL     1       1.398   8.298  20.482  0.00  0.00    +0.000 A 
ATOM     18  C   UNL     1       2.199   7.658  19.510  0.00  0.00    +0.000 A 
ATOM     19  C   UNL     1       2.122   8.122  18.187  0.00  0.00    +0.000 A 
ATOM     20  C   UNL     1       1.244   9.166  17.830  0.00  0.00    +0.000 A 
BRANCH  15  22
ATOM     21  O   UNL     1      -1.760  10.644  18.474  0.00  0.00    +0.000 OA
ATOM     22  C   UNL     1      -0.550  10.833  18.474  0.00  0.00    +0.000 C 
ATOM     23  N   UNL     1      -0.001  12.046  18.084  0.00  0.00    +0.000 N 
ATOM     24  H   UNL     1       0.951  12.121  17.750  0.00  0.00    +0.000 HD
BRANCH  23  25
ATOM     25  O   UNL     1      -0.912  12.989  17.546  0.00  0.00    +0.000 OA
ATOM     26  H   UNL     1      -1.492  13.180  18.323  0.00  0.00    +0.000 HD
ENDBRANCH  23  25
ENDBRANCH  15  22
ENDBRANCH   1  18
TORSDOF 4
ENDMDL
MODEL 5
REMARK VINA RESULT:      -7.8      5.138      8.058
REMARK  Name = 
REMARK  4 active torsions:
REMARK  status: ('A' for Active; 'I' for Inactive)
REMARK    1  A    between atoms: C_2  and  C_5
REMARK    2  A    between atoms: N_3  and  O_4
REMARK    3  A    between atoms: C_8  and  C_9
REMARK    4  A    between atoms: C_9  and  N_10
REMARK                            x       y       z     vdW  Elec       q    Type
REMARK                         _______ _______ _______ _____ _____    ______ ____
ROOT
ATOM      1  C   UNL     1       2.437   7.474  17.457  0.00  0.00    +0.000 C 
ENDROOT
BRANCH   1   2
ATOM      2  N   UNL     1       3.299   6.350  17.864  0.00  0.00    +0.000 N 
ATOM      3  C   UNL     1       4.676   6.245  17.934  0.00  0.00    +0.000 A 
ATOM      4  C   UNL     1       4.954   5.091  18.657  0.00  0.00    +0.000 A 
ATOM      5  C   UNL     1       3.726   4.496  19.016  0.00  0.00    +0.000 A 
ATOM      6  C   UNL     1       3.424   3.314  19.715  0.00  0.00    +0.000 A 
ATOM      7  C   UNL     1       2.312   2.584  19.312  0.00  0.00    +0.000 A 
ATOM      8  C   UNL     1       1.480   3.074  18.307  0.00  0.00    +0.000 A 
ATOM      9  C   UNL     1       1.643   4.369  17.779  0.00  0.00    +0.000 A 
ATOM     10  C   UNL     1       2.783   5.087  18.178  0.00  0.00    +0.000 A 
ATOM     11  C   UNL     1       6.268   4.394  18.769  0.00  0.00    +0.000 C 
ATOM     12  S   UNL     1       7.233   4.650  17.244  0.00  0.00    +0.000 S 
ATOM     13  C   UNL     1       7.100   6.468  17.184  0.00  0.00    +0.000 C 
ATOM     14  C   UNL     1       5.674   7.062  17.177  0.00  0.00    +0.000 C 
ENDBRANCH   1   2
BRANCH   1  18
ATOM     15  C   UNL     1       0.754  10.105  20.502  0.00  0.00    +0.000 A 
ATOM     16  C   UNL     1       0.782  10.486  19.156  0.00  0.00    +0.000 A 
ATOM     17  C   UNL     1       1.342   9.649  18.184  0.00  0.00    +0.000 A 
ATOM     18  C   UNL     1       1.886   8.392  18.536  0.00  0.00    +0.000 A 
ATOM     19  C   UNL     1       1.814   7.999  19.881  0.00  0.00    +0.000 A 
ATOM     20  C   UNL     1       1.255   8.846  20.860  0.00  0.00    +0.000 A 
BRANCH  15  22
ATOM     21  O   UNL     1       0.601  12.211  21.602  0.00  0.00    +0.000 OA
ATOM     22  C   UNL     1       0.200  11.059  21.495  0.00  0.00    +0.000 C 
ATOM     23  N   UNL     1      -0.752  10.535  22.358  0.00  0.00    +0.000 N 
ATOM     24  H   UNL     1      -0.844   9.540  22.515  0.00  0.00    +0.000 HD
BRANCH  23  25
ATOM     25  O   UNL     1      -1.110  11.361  23.453  0.00  0.00    +0.000 OA
ATOM     26  H   UNL     1      -0.751  12.239  23.174  0.00  0.00    +0.000 HD
ENDBRANCH  23  25
ENDBRANCH  15  22
ENDBRANCH   1  18
TORSDOF 4
ENDMDL
MODEL 6
REMARK VINA RESULT:      -7.8      4.723      7.514
REMARK  Name = 
REMARK  4 active torsions:
REMARK  status: ('A' for Active; 'I' for Inactive)
REMARK    1  A    between atoms: C_2  and  C_5
REMARK    2  A    between atoms: N_3  and  O_4
REMARK    3  A    between atoms: C_8  and  C_9
REMARK    4  A    between atoms: C_9  and  N_10
REMARK                            x       y       z     vdW  Elec       q    Type
REMARK                         _______ _______ _______ _____ _____    ______ ____
ROOT
ATOM      1  C   UNL     1       3.172   7.431  17.178  0.00  0.00    +0.000 C 
ENDROOT
BRANCH   1   2
ATOM      2  N   UNL     1       3.699   6.071  17.389  0.00  0.00    +0.000 N 
ATOM      3  C   UNL     1       3.046   4.860  17.535  0.00  0.00    +0.000 A 
ATOM      4  C   UNL     1       4.010   3.868  17.404  0.00  0.00    +0.000 A 
ATOM      5  C   UNL     1       5.255   4.495  17.187  0.00  0.00    +0.000 A 
ATOM      6  C   UNL     1       6.551   3.978  17.021  0.00  0.00    +0.000 A 
ATOM      7  C   UNL     1       7.614   4.695  17.559  0.00  0.00    +0.000 A 
ATOM      8  C   UNL     1       7.390   5.934  18.156  0.00  0.00    +0.000 A 
ATOM      9  C   UNL     1       6.132   6.563  18.103  0.00  0.00    +0.000 A 
ATOM     10  C   UNL     1       5.062   5.818  17.578  0.00  0.00    +0.000 A 
ATOM     11  C   UNL     1       3.868   2.425  17.754  0.00  0.00    +0.000 C 
ATOM     12  S   UNL     1       2.688   2.238  19.132  0.00  0.00    +0.000 S 
ATOM     13  C   UNL     1       1.321   3.200  18.403  0.00  0.00    +0.000 C 
ATOM     14  C   UNL     1       1.636   4.654  17.989  0.00  0.00    +0.000 C 
ENDBRANCH   1   2
BRANCH   1  18
ATOM     15  C   UNL     1       0.791   9.235  20.356  0.00  0.00    +0.000 A 
ATOM     16  C   UNL     1       1.581   8.107  20.601  0.00  0.00    +0.000 A 
ATOM     17  C   UNL     1       2.327   7.517  19.573  0.00  0.00    +0.000 A 
ATOM     18  C   UNL     1       2.310   8.052  18.265  0.00  0.00    +0.000 A 
ATOM     19  C   UNL     1       1.549   9.209  18.039  0.00  0.00    +0.000 A 
ATOM     20  C   UNL     1       0.793   9.799  19.074  0.00  0.00    +0.000 A 
BRANCH  15  22
ATOM     21  O   UNL     1      -0.769  10.743  21.336  0.00  0.00    +0.000 OA
ATOM     22  C   UNL     1      -0.023   9.782  21.471  0.00  0.00    +0.000 C 
ATOM     23  N   UNL     1       0.179   9.182  22.706  0.00  0.00    +0.000 N 
ATOM     24  H   UNL     1       1.010   8.643  22.911  0.00  0.00    +0.000 HD
BRANCH  23  25
ATOM     25  O   UNL     1      -0.406   9.845  23.814  0.00  0.00    +0.000 OA
ATOM     26  H   UNL     1       0.389  10.102  24.343  0.00  0.00    +0.000 HD
ENDBRANCH  23  25
ENDBRANCH  15  22
ENDBRANCH   1  18
TORSDOF 4
ENDMDL
MODEL 7
REMARK VINA RESULT:      -7.7      4.854      7.695
REMARK  Name = 
REMARK  4 active torsions:
REMARK  status: ('A' for Active; 'I' for Inactive)
REMARK    1  A    between atoms: C_2  and  C_5
REMARK    2  A    between atoms: N_3  and  O_4
REMARK    3  A    between atoms: C_8  and  C_9
REMARK    4  A    between atoms: C_9  and  N_10
REMARK                            x       y       z     vdW  Elec       q    Type
REMARK                         _______ _______ _______ _____ _____    ______ ____
ROOT
ATOM      1  C   UNL     1       2.733   7.415  17.459  0.00  0.00    +0.000 C 
ENDROOT
BRANCH   1   2
ATOM      2  N   UNL     1       3.340   6.075  17.536  0.00  0.00    +0.000 N 
ATOM      3  C   UNL     1       2.763   4.829  17.705  0.00  0.00    +0.000 A 
ATOM      4  C   UNL     1       3.744   3.890  17.408  0.00  0.00    +0.000 A 
ATOM      5  C   UNL     1       4.923   4.585  17.066  0.00  0.00    +0.000 A 
ATOM      6  C   UNL     1       6.208   4.138  16.714  0.00  0.00    +0.000 A 
ATOM      7  C   UNL     1       7.299   4.881  17.148  0.00  0.00    +0.000 A 
ATOM      8  C   UNL     1       7.101   6.082  17.827  0.00  0.00    +0.000 A 
ATOM      9  C   UNL     1       5.821   6.652  17.962  0.00  0.00    +0.000 A 
ATOM     10  C   UNL     1       4.726   5.880  17.541  0.00  0.00    +0.000 A 
ATOM     11  C   UNL     1       3.708   2.429  17.703  0.00  0.00    +0.000 C 
ATOM     12  S   UNL     1       2.724   2.127  19.208  0.00  0.00    +0.000 S 
ATOM     13  C   UNL     1       1.235   3.052  18.703  0.00  0.00    +0.000 C 
ATOM     14  C   UNL     1       1.433   4.536  18.322  0.00  0.00    +0.000 C 
ENDBRANCH   1   2
BRANCH   1  18
ATOM     15  C   UNL     1       0.960   9.150  21.046  0.00  0.00    +0.000 A 
ATOM     16  C   UNL     1       0.859   9.796  19.809  0.00  0.00    +0.000 A 
ATOM     17  C   UNL     1       1.448   9.247  18.663  0.00  0.00    +0.000 A 
ATOM     18  C   UNL     1       2.151   8.022  18.725  0.00  0.00    +0.000 A 
ATOM     19  C   UNL     1       2.210   7.360  19.961  0.00  0.00    +0.000 A 
ATOM     20  C   UNL     1       1.621   7.917  21.115  0.00  0.00    +0.000 A 
BRANCH  15  22
ATOM     21  O   UNL     1       0.764   9.602  23.376  0.00  0.00    +0.000 OA
ATOM     22  C   UNL     1       0.365   9.809  22.237  0.00  0.00    +0.000 C 
ATOM     23  N   UNL     1      -0.735  10.615  21.983  0.00  0.00    +0.000 N 
ATOM     24  H   UNL     1      -1.279  10.530  21.135  0.00  0.00    +0.000 HD
BRANCH  23  25
ATOM     25  O   UNL     1      -1.452  11.053  23.125  0.00  0.00    +0.000 OA
ATOM     26  H   UNL     1      -2.095  11.692  22.731  0.00  0.00    +0.000 HD
ENDBRANCH  23  25
ENDBRANCH  15  22
ENDBRANCH   1  18
TORSDOF 4
ENDMDL
MODEL 8
REMARK VINA RESULT:      -7.7      4.401      7.111
REMARK  Name = 
REMARK  4 active torsions:
REMARK  status: ('A' for Active; 'I' for Inactive)
REMARK    1  A    between atoms: C_2  and  C_5
REMARK    2  A    between atoms: N_3  and  O_4
REMARK    3  A    between atoms: C_8  and  C_9
REMARK    4  A    between atoms: C_9  and  N_10
REMARK                            x       y       z     vdW  Elec       q    Type
REMARK                         _______ _______ _______ _____ _____    ______ ____
ROOT
ATOM      1  C   UNL     1       3.199   6.803  19.897  0.00  0.00    +0.000 C 
ENDROOT
BRANCH   1   2
ATOM      2  N   UNL     1       3.317   5.591  19.068  0.00  0.00    +0.000 N 
ATOM      3  C   UNL     1       2.433   4.548  18.858  0.00  0.00    +0.000 A 
ATOM      4  C   UNL     1       2.911   3.831  17.768  0.00  0.00    +0.000 A 
ATOM      5  C   UNL     1       4.101   4.450  17.327  0.00  0.00    +0.000 A 
ATOM      6  C   UNL     1       5.000   4.128  16.296  0.00  0.00    +0.000 A 
ATOM      7  C   UNL     1       6.353   4.359  16.515  0.00  0.00    +0.000 A 
ATOM      8  C   UNL     1       6.775   4.980  17.689  0.00  0.00    +0.000 A 
ATOM      9  C   UNL     1       5.858   5.524  18.608  0.00  0.00    +0.000 A 
ATOM     10  C   UNL     1       4.496   5.262  18.387  0.00  0.00    +0.000 A 
ATOM     11  C   UNL     1       2.478   2.475  17.324  0.00  0.00    +0.000 C 
ATOM     12  S   UNL     1       1.934   1.499  18.764  0.00  0.00    +0.000 S 
ATOM     13  C   UNL     1       0.762   2.719  19.445  0.00  0.00    +0.000 C 
ATOM     14  C   UNL     1       1.324   4.121  19.765  0.00  0.00    +0.000 C 
ENDBRANCH   1   2
BRANCH   1  18
ATOM     15  C   UNL     1       0.345   9.915  18.806  0.00  0.00    +0.000 A 
ATOM     16  C   UNL     1       0.462   9.478  20.130  0.00  0.00    +0.000 A 
ATOM     17  C   UNL     1       1.364   8.464  20.474  0.00  0.00    +0.000 A 
ATOM     18  C   UNL     1       2.186   7.862  19.494  0.00  0.00    +0.000 A 
ATOM     19  C   UNL     1       2.092   8.337  18.176  0.00  0.00    +0.000 A 
ATOM     20  C   UNL     1       1.180   9.355  17.831  0.00  0.00    +0.000 A 
BRANCH  15  22
ATOM     21  O   UNL     1      -1.874  10.747  18.571  0.00  0.00    +0.000 OA
ATOM     22  C   UNL     1      -0.670  10.953  18.492  0.00  0.00    +0.000 C 
ATOM     23  N   UNL     1      -0.165  12.156  18.021  0.00  0.00    +0.000 N 
ATOM     24  H   UNL     1       0.765  12.232  17.629  0.00  0.00    +0.000 HD
BRANCH  23  25
ATOM     25  O   UNL     1      -1.122  13.061  17.496  0.00  0.00    +0.000 OA
ATOM     26  H   UNL     1      -0.558  13.835  17.248  0.00  0.00    +0.000 HD
ENDBRANCH  23  25
ENDBRANCH  15  22
ENDBRANCH   1  18
TORSDOF 4
ENDMDL
MODEL 9
REMARK VINA RESULT:      -7.5      5.561      8.357
REMARK  Name = 
REMARK  4 active torsions:
REMARK  status: ('A' for Active; 'I' for Inactive)
REMARK    1  A    between atoms: C_2  and  C_5
REMARK    2  A    between atoms: N_3  and  O_4
REMARK    3  A    between atoms: C_8  and  C_9
REMARK    4  A    between atoms: C_9  and  N_10
REMARK                            x       y       z     vdW  Elec       q    Type
REMARK                         _______ _______ _______ _____ _____    ______ ____
ROOT
ATOM      1  C   UNL     1       0.674  11.309  18.824  0.00  0.00    +0.000 C 
ENDROOT
BRANCH   1   2
ATOM      2  N   UNL     1      -0.677  11.592  19.339  0.00  0.00    +0.000 N 
ATOM      3  C   UNL     1      -1.091  12.257  20.479  0.00  0.00    +0.000 A 
ATOM      4  C   UNL     1      -2.451  12.501  20.329  0.00  0.00    +0.000 A 
ATOM      5  C   UNL     1      -2.855  11.967  19.088  0.00  0.00    +0.000 A 
ATOM      6  C   UNL     1      -4.109  11.906  18.455  0.00  0.00    +0.000 A 
ATOM      7  C   UNL     1      -4.408  10.773  17.707  0.00  0.00    +0.000 A 
ATOM      8  C   UNL     1      -3.445   9.783  17.522  0.00  0.00    +0.000 A 
ATOM      9  C   UNL     1      -2.115   9.958  17.947  0.00  0.00    +0.000 A 
ATOM     10  C   UNL     1      -1.832  11.095  18.723  0.00  0.00    +0.000 A 
ATOM     11  C   UNL     1      -3.408  12.935  21.388  0.00  0.00    +0.000 C 
ATOM     12  S   UNL     1      -2.870  12.293  23.007  0.00  0.00    +0.000 S 
ATOM     13  C   UNL     1      -1.152  12.903  22.942  0.00  0.00    +0.000 C 
ATOM     14  C   UNL     1      -0.301  12.458  21.733  0.00  0.00    +0.000 C 
ENDBRANCH   1   2
BRANCH   1  18
ATOM     15  C   UNL     1       2.234   7.283  19.444  0.00  0.00    +0.000 A 
ATOM     16  C   UNL     1       1.572   7.965  20.472  0.00  0.00    +0.000 A 
ATOM     17  C   UNL     1       1.092   9.266  20.276  0.00  0.00    +0.000 A 
ATOM     18  C   UNL     1       1.254   9.920  19.034  0.00  0.00    +0.000 A 
ATOM     19  C   UNL     1       1.879   9.211  17.996  0.00  0.00    +0.000 A 
ATOM     20  C   UNL     1       2.368   7.904  18.195  0.00  0.00    +0.000 A 
BRANCH  15  22
ATOM     21  O   UNL     1       3.513   5.336  18.955  0.00  0.00    +0.000 OA
ATOM     22  C   UNL     1       2.772   5.929  19.728  0.00  0.00    +0.000 C 
ATOM     23  N   UNL     1       2.311   5.338  20.896  0.00  0.00    +0.000 N 
ATOM     24  H   UNL     1       1.464   5.646  21.355  0.00  0.00    +0.000 HD
BRANCH  23  25
ATOM     25  O   UNL     1       2.625   3.965  21.055  0.00  0.00    +0.000 OA
ATOM     26  H   UNL     1       3.612   3.986  21.116  0.00  0.00    +0.000 HD
ENDBRANCH  23  25
ENDBRANCH  15  22
ENDBRANCH   1  18
TORSDOF 4
ENDMDL
