MODEL 1
REMARK VINA RESULT:      -6.1      0.000      0.000
REMARK  Name = 
REMARK  6 active torsions:
REMARK  status: ('A' for Active; 'I' for Inactive)
REMARK    1  A    between atoms: C_1  and  N_2
REMARK    2  A    between atoms: N_2  and  C_3
REMARK    3  A    between atoms: N_2  and  N_4
REMARK    4  A    between atoms: C_5  and  N_6
REMARK    5  A    between atoms: C_7  and  C_8
REMARK    6  A    between atoms: C_10  and  C_11
REMARK                            x       y       z     vdW  Elec       q    Type
REMARK                         _______ _______ _______ _____ _____    ______ ____
ROOT
ATOM      1  N   UNL     1      -4.274  12.394  19.546  0.00  0.00    +0.000 N 
ATOM      2  C   UNL     1      -3.689  12.719  20.805  0.00  0.00    +0.000 C 
ATOM      3  C   UNL     1      -2.374  12.429  21.013  0.00  0.00    +0.000 C 
ATOM      4  C   UNL     1      -1.482  11.772  19.987  0.00  0.00    +0.000 C 
ATOM      5  C   UNL     1      -2.242  11.370  18.745  0.00  0.00    +0.000 C 
ATOM      6  C   UNL     1      -3.533  11.717  18.543  0.00  0.00    +0.000 C 
ATOM      7  C   UNL     1      -4.226  11.394  17.227  0.00  0.00    +0.000 C 
ATOM      8  C   UNL     1      -3.253  11.042  16.104  0.00  0.00    +0.000 C 
ATOM      9  C   UNL     1      -2.272   9.987  16.567  0.00  0.00    +0.000 C 
ATOM     10  C   UNL     1      -1.531  10.470  17.788  0.00  0.00    +0.000 C 
ATOM     11  O   UNL     1      -0.406  10.044  18.044  0.00  0.00    +0.000 OA
ENDROOT
BRANCH   4  12
ATOM     12  C   UNL     1      -0.294  12.678  19.655  0.00  0.00    +0.000 A 
ATOM     13  C   UNL     1       1.026  12.216  19.883  0.00  0.00    +0.000 A 
ATOM     14  C   UNL     1       2.133  13.028  19.616  0.00  0.00    +0.000 A 
ATOM     15  C   UNL     1       1.895  14.293  19.127  0.00  0.00    +0.000 A 
ATOM     16  C   UNL     1       0.620  14.751  18.898  0.00  0.00    +0.000 A 
ATOM     17  C   UNL     1      -0.493  13.974  19.140  0.00  0.00    +0.000 A 
ATOM     18  O   UNL     1       0.605  16.025  18.422  0.00  0.00    +0.000 OA
ATOM     19  C   UNL     1       2.016  16.329  18.421  0.00  0.00    +0.000 C 
ATOM     20  O   UNL     1       2.844  15.220  18.825  0.00  0.00    +0.000 OA
ENDBRANCH   4  12
BRANCH   1  22
ATOM     21  C   UNL     1      -6.422  11.528  20.240  0.00  0.00    +0.000 C 
ATOM     22  N   UNL     1      -5.695  12.423  19.345  0.00  0.00    +0.000 NA
ATOM     23  C   UNL     1      -6.268  13.756  19.258  0.00  0.00    +0.000 C 
ENDBRANCH   1  22
BRANCH   2  24
ATOM     24  N   UNL     1      -4.436  13.328  21.814  0.00  0.00    +0.000 N 
ATOM     25  H   UNL     1      -3.831  13.631  22.568  0.00  0.00    +0.000 HD
ATOM     26  H   UNL     1      -5.207  12.786  22.196  0.00  0.00    +0.000 HD
ENDBRANCH   2  24
BRANCH   3  27
ATOM     27  C   UNL     1      -1.760  12.809  22.350  0.00  0.00    +0.000 C 
ATOM     28  N   UNL     1      -1.251  13.126  23.460  0.00  0.00    +0.000 NA
ENDBRANCH   3  27
TORSDOF 4
ENDMDL
MODEL 2
REMARK VINA RESULT:      -6.0      1.031      1.580
REMARK  Name = 
REMARK  6 active torsions:
REMARK  status: ('A' for Active; 'I' for Inactive)
REMARK    1  A    between atoms: C_1  and  N_2
REMARK    2  A    between atoms: N_2  and  C_3
REMARK    3  A    between atoms: N_2  and  N_4
REMARK    4  A    between atoms: C_5  and  N_6
REMARK    5  A    between atoms: C_7  and  C_8
REMARK    6  A    between atoms: C_10  and  C_11
REMARK                            x       y       z     vdW  Elec       q    Type
REMARK                         _______ _______ _______ _____ _____    ______ ____
ROOT
ATOM      1  N   UNL     1      -4.584  12.333  18.981  0.00  0.00    +0.000 N 
ATOM      2  C   UNL     1      -4.294  12.734  20.318  0.00  0.00    +0.000 C 
ATOM      3  C   UNL     1      -3.051  12.494  20.822  0.00  0.00    +0.000 C 
ATOM      4  C   UNL     1      -1.944  11.815  20.051  0.00  0.00    +0.000 C 
ATOM      5  C   UNL     1      -2.406  11.333  18.696  0.00  0.00    +0.000 C 
ATOM      6  C   UNL     1      -3.629  11.631  18.200  0.00  0.00    +0.000 C 
ATOM      7  C   UNL     1      -4.011  11.226  16.784  0.00  0.00    +0.000 C 
ATOM      8  C   UNL     1      -2.810  10.851  15.919  0.00  0.00    +0.000 C 
ATOM      9  C   UNL     1      -1.934   9.848  16.639  0.00  0.00    +0.000 C 
ATOM     10  C   UNL     1      -1.487  10.410  17.965  0.00  0.00    +0.000 C 
ATOM     11  O   UNL     1      -0.437  10.031  18.482  0.00  0.00    +0.000 OA
ENDROOT
BRANCH   4  12
ATOM     12  C   UNL     1      -0.729  12.740  19.938  0.00  0.00    +0.000 A 
ATOM     13  C   UNL     1      -0.756  13.825  19.027  0.00  0.00    +0.000 A 
ATOM     14  C   UNL     1       0.347  14.673  18.880  0.00  0.00    +0.000 A 
ATOM     15  C   UNL     1       1.458  14.415  19.648  0.00  0.00    +0.000 A 
ATOM     16  C   UNL     1       1.495  13.369  20.539  0.00  0.00    +0.000 A 
ATOM     17  C   UNL     1       0.423  12.520  20.717  0.00  0.00    +0.000 A 
ATOM     18  O   UNL     1       2.685  13.286  21.193  0.00  0.00    +0.000 OA
ATOM     19  C   UNL     1       3.406  14.374  20.577  0.00  0.00    +0.000 C 
ATOM     20  O   UNL     1       2.621  15.122  19.628  0.00  0.00    +0.000 OA
ENDBRANCH   4  12
BRANCH   1  22
ATOM     21  C   UNL     1      -6.799  11.391  19.199  0.00  0.00    +0.000 C 
ATOM     22  N   UNL     1      -5.926  12.310  18.475  0.00  0.00    +0.000 NA
ATOM     23  C   UNL     1      -6.513  13.622  18.252  0.00  0.00    +0.000 C 
ENDBRANCH   1  22
BRANCH   2  24
ATOM     24  N   UNL     1      -5.255  13.368  21.108  0.00  0.00    +0.000 N 
ATOM     25  H   UNL     1      -6.106  12.819  21.135  0.00  0.00    +0.000 HD
ATOM     26  H   UNL     1      -5.480  14.329  20.862  0.00  0.00    +0.000 HD
ENDBRANCH   2  24
BRANCH   3  27
ATOM     27  C   UNL     1      -2.752  12.954  22.239  0.00  0.00    +0.000 C 
ATOM     28  N   UNL     1      -2.504  13.336  23.415  0.00  0.00    +0.000 NA
ENDBRANCH   3  27
TORSDOF 4
ENDMDL
MODEL 3
REMARK VINA RESULT:      -5.9      8.727     10.297
REMARK  Name = 
REMARK  6 active torsions:
REMARK  status: ('A' for Active; 'I' for Inactive)
REMARK    1  A    between atoms: C_1  and  N_2
REMARK    2  A    between atoms: N_2  and  C_3
REMARK    3  A    between atoms: N_2  and  N_4
REMARK    4  A    between atoms: C_5  and  N_6
REMARK    5  A    between atoms: C_7  and  C_8
REMARK    6  A    between atoms: C_10  and  C_11
REMARK                            x       y       z     vdW  Elec       q    Type
REMARK                         _______ _______ _______ _____ _____    ______ ____
ROOT
ATOM      1  N   UNL     1       2.892   3.387  18.907  0.00  0.00    +0.000 N 
ATOM      2  C   UNL     1       3.787   3.050  17.848  0.00  0.00    +0.000 C 
ATOM      3  C   UNL     1       4.398   4.055  17.161  0.00  0.00    +0.000 C 
ATOM      4  C   UNL     1       4.187   5.523  17.444  0.00  0.00    +0.000 C 
ATOM      5  C   UNL     1       3.134   5.753  18.502  0.00  0.00    +0.000 C 
ATOM      6  C   UNL     1       2.581   4.739  19.205  0.00  0.00    +0.000 C 
ATOM      7  C   UNL     1       1.610   5.022  20.343  0.00  0.00    +0.000 C 
ATOM      8  C   UNL     1       1.659   6.469  20.830  0.00  0.00    +0.000 C 
ATOM      9  C   UNL     1       1.545   7.423  19.661  0.00  0.00    +0.000 C 
ATOM     10  C   UNL     1       2.644   7.155  18.665  0.00  0.00    +0.000 C 
ATOM     11  O   UNL     1       3.051   8.051  17.927  0.00  0.00    +0.000 OA
ENDROOT
BRANCH   4  12
ATOM     12  C   UNL     1       5.515   6.191  17.812  0.00  0.00    +0.000 A 
ATOM     13  C   UNL     1       6.388   5.557  18.731  0.00  0.00    +0.000 A 
ATOM     14  C   UNL     1       7.596   6.152  19.109  0.00  0.00    +0.000 A 
ATOM     15  C   UNL     1       7.905   7.375  18.561  0.00  0.00    +0.000 A 
ATOM     16  C   UNL     1       7.069   7.998  17.666  0.00  0.00    +0.000 A 
ATOM     17  C   UNL     1       5.877   7.436  17.262  0.00  0.00    +0.000 A 
ATOM     18  O   UNL     1       7.556   9.198  17.249  0.00  0.00    +0.000 OA
ATOM     19  C   UNL     1       8.774   9.276  18.021  0.00  0.00    +0.000 C 
ATOM     20  O   UNL     1       9.024   8.104  18.822  0.00  0.00    +0.000 OA
ENDBRANCH   4  12
BRANCH   1  22
ATOM     21  C   UNL     1       2.017   2.443  20.953  0.00  0.00    +0.000 C 
ATOM     22  N   UNL     1       2.018   2.412  19.494  0.00  0.00    +0.000 NA
ATOM     23  C   UNL     1       0.688   2.358  18.908  0.00  0.00    +0.000 C 
ENDBRANCH   1  22
BRANCH   2  24
ATOM     24  N   UNL     1       4.043   1.720  17.514  0.00  0.00    +0.000 N 
ATOM     25  H   UNL     1       3.330   1.370  16.886  0.00  0.00    +0.000 HD
ATOM     26  H   UNL     1       4.158   1.073  18.290  0.00  0.00    +0.000 HD
ENDBRANCH   2  24
BRANCH   3  27
ATOM     27  C   UNL     1       5.370   3.676  16.055  0.00  0.00    +0.000 C 
ATOM     28  N   UNL     1       6.176   3.362  15.137  0.00  0.00    +0.000 NA
ENDBRANCH   3  27
TORSDOF 4
ENDMDL
MODEL 4
REMARK VINA RESULT:      -5.9      3.742      6.015
REMARK  Name = 
REMARK  6 active torsions:
REMARK  status: ('A' for Active; 'I' for Inactive)
REMARK    1  A    between atoms: C_1  and  N_2
REMARK    2  A    between atoms: N_2  and  C_3
REMARK    3  A    between atoms: N_2  and  N_4
REMARK    4  A    between atoms: C_5  and  N_6
REMARK    5  A    between atoms: C_7  and  C_8
REMARK    6  A    between atoms: C_10  and  C_11
REMARK                            x       y       z     vdW  Elec       q    Type
REMARK                         _______ _______ _______ _____ _____    ______ ____
ROOT
ATOM      1  N   UNL     1      -6.491  14.077  21.901  0.00  0.00    +0.000 N 
ATOM      2  C   UNL     1      -6.759  12.678  21.826  0.00  0.00    +0.000 C 
ATOM      3  C   UNL     1      -6.789  12.080  20.603  0.00  0.00    +0.000 C 
ATOM      4  C   UNL     1      -6.559  12.809  19.300  0.00  0.00    +0.000 C 
ATOM      5  C   UNL     1      -6.403  14.298  19.500  0.00  0.00    +0.000 C 
ATOM      6  C   UNL     1      -6.325  14.858  20.729  0.00  0.00    +0.000 C 
ATOM      7  C   UNL     1      -6.049  16.347  20.886  0.00  0.00    +0.000 C 
ATOM      8  C   UNL     1      -5.499  16.995  19.618  0.00  0.00    +0.000 C 
ATOM      9  C   UNL     1      -6.365  16.644  18.427  0.00  0.00    +0.000 C 
ATOM     10  C   UNL     1      -6.449  15.146  18.272  0.00  0.00    +0.000 C 
ATOM     11  O   UNL     1      -6.660  14.644  17.169  0.00  0.00    +0.000 OA
ENDROOT
BRANCH   4  12
ATOM     12  C   UNL     1      -5.361  12.209  18.559  0.00  0.00    +0.000 A 
ATOM     13  C   UNL     1      -4.091  12.183  19.185  0.00  0.00    +0.000 A 
ATOM     14  C   UNL     1      -2.970  11.666  18.526  0.00  0.00    +0.000 A 
ATOM     15  C   UNL     1      -3.145  11.188  17.248  0.00  0.00    +0.000 A 
ATOM     16  C   UNL     1      -4.372  11.203  16.631  0.00  0.00    +0.000 A 
ATOM     17  C   UNL     1      -5.499  11.694  17.255  0.00  0.00    +0.000 A 
ATOM     18  O   UNL     1      -4.327  10.691  15.372  0.00  0.00    +0.000 OA
ATOM     19  C   UNL     1      -2.920  10.393  15.253  0.00  0.00    +0.000 C 
ATOM     20  O   UNL     1      -2.170  10.664  16.454  0.00  0.00    +0.000 OA
ENDBRANCH   4  12
BRANCH   1  22
ATOM     21  C   UNL     1      -7.916  14.432  23.821  0.00  0.00    +0.000 C 
ATOM     22  N   UNL     1      -6.702  14.820  23.110  0.00  0.00    +0.000 NA
ATOM     23  C   UNL     1      -5.532  14.931  23.967  0.00  0.00    +0.000 C 
ENDBRANCH   1  22
BRANCH   2  24
ATOM     24  N   UNL     1      -6.986  11.922  22.977  0.00  0.00    +0.000 N 
ATOM     25  H   UNL     1      -7.819  12.245  23.453  0.00  0.00    +0.000 HD
ATOM     26  H   UNL     1      -6.217  11.868  23.641  0.00  0.00    +0.000 HD
ENDBRANCH   2  24
BRANCH   3  27
ATOM     27  C   UNL     1      -7.049  10.584  20.544  0.00  0.00    +0.000 C 
ATOM     28  N   UNL     1      -7.265   9.342  20.495  0.00  0.00    +0.000 NA
ENDBRANCH   3  27
TORSDOF 4
ENDMDL
MODEL 5
REMARK VINA RESULT:      -5.9      2.859      5.633
REMARK  Name = 
REMARK  6 active torsions:
REMARK  status: ('A' for Active; 'I' for Inactive)
REMARK    1  A    between atoms: C_1  and  N_2
REMARK    2  A    between atoms: N_2  and  C_3
REMARK    3  A    between atoms: N_2  and  N_4
REMARK    4  A    between atoms: C_5  and  N_6
REMARK    5  A    between atoms: C_7  and  C_8
REMARK    6  A    between atoms: C_10  and  C_11
REMARK                            x       y       z     vdW  Elec       q    Type
REMARK                         _______ _______ _______ _____ _____    ______ ____
ROOT
ATOM      1  N   UNL     1      -1.187  13.346  20.780  0.00  0.00    +0.000 N 
ATOM      2  C   UNL     1      -1.954  12.425  20.007  0.00  0.00    +0.000 C 
ATOM      3  C   UNL     1      -1.315  11.643  19.093  0.00  0.00    +0.000 C 
ATOM      4  C   UNL     1       0.172  11.689  18.834  0.00  0.00    +0.000 C 
ATOM      5  C   UNL     1       0.854  12.780  19.625  0.00  0.00    +0.000 C 
ATOM      6  C   UNL     1       0.206  13.506  20.564  0.00  0.00    +0.000 C 
ATOM      7  C   UNL     1       0.959  14.514  21.421  0.00  0.00    +0.000 C 
ATOM      8  C   UNL     1       2.473  14.320  21.389  0.00  0.00    +0.000 C 
ATOM      9  C   UNL     1       2.964  14.227  19.960  0.00  0.00    +0.000 C 
ATOM     10  C   UNL     1       2.263  13.100  19.245  0.00  0.00    +0.000 C 
ATOM     11  O   UNL     1       2.802  12.531  18.297  0.00  0.00    +0.000 OA
ENDROOT
BRANCH   4  12
ATOM     12  C   UNL     1       0.801  10.319  19.100  0.00  0.00    +0.000 A 
ATOM     13  C   UNL     1       0.709   9.744  20.392  0.00  0.00    +0.000 A 
ATOM     14  C   UNL     1       1.296   8.506  20.676  0.00  0.00    +0.000 A 
ATOM     15  C   UNL     1       1.967   7.868  19.658  0.00  0.00    +0.000 A 
ATOM     16  C   UNL     1       2.059   8.413  18.400  0.00  0.00    +0.000 A 
ATOM     17  C   UNL     1       1.484   9.625  18.082  0.00  0.00    +0.000 A 
ATOM     18  O   UNL     1       2.768   7.627  17.545  0.00  0.00    +0.000 OA
ATOM     19  C   UNL     1       3.147   6.547  18.425  0.00  0.00    +0.000 C 
ATOM     20  O   UNL     1       2.607   6.671  19.756  0.00  0.00    +0.000 OA
ENDBRANCH   4  12
BRANCH   1  22
ATOM     21  C   UNL     1      -2.614  15.297  20.765  0.00  0.00    +0.000 C 
ATOM     22  N   UNL     1      -1.809  14.376  21.562  0.00  0.00    +0.000 NA
ATOM     23  C   UNL     1      -2.477  13.905  22.764  0.00  0.00    +0.000 C 
ENDBRANCH   1  22
BRANCH   2  24
ATOM     24  N   UNL     1      -3.335  12.313  20.177  0.00  0.00    +0.000 N 
ATOM     25  H   UNL     1      -3.573  11.397  20.536  0.00  0.00    +0.000 HD
ATOM     26  H   UNL     1      -3.908  12.517  19.362  0.00  0.00    +0.000 HD
ENDBRANCH   2  24
BRANCH   3  27
ATOM     27  C   UNL     1      -2.145  10.648  18.299  0.00  0.00    +0.000 C 
ATOM     28  N   UNL     1      -2.834   9.821  17.640  0.00  0.00    +0.000 NA
ENDBRANCH   3  27
TORSDOF 4
ENDMDL
MODEL 6
REMARK VINA RESULT:      -5.9      2.310      4.873
REMARK  Name = 
REMARK  6 active torsions:
REMARK  status: ('A' for Active; 'I' for Inactive)
REMARK    1  A    between atoms: C_1  and  N_2
REMARK    2  A    between atoms: N_2  and  C_3
REMARK    3  A    between atoms: N_2  and  N_4
REMARK    4  A    between atoms: C_5  and  N_6
REMARK    5  A    between atoms: C_7  and  C_8
REMARK    6  A    between atoms: C_10  and  C_11
REMARK                            x       y       z     vdW  Elec       q    Type
REMARK                         _______ _______ _______ _____ _____    ______ ____
ROOT
ATOM      1  N   UNL     1      -4.086  12.423  19.736  0.00  0.00    +0.000 N 
ATOM      2  C   UNL     1      -4.006  11.668  18.528  0.00  0.00    +0.000 C 
ATOM      3  C   UNL     1      -2.785  11.467  17.959  0.00  0.00    +0.000 C 
ATOM      4  C   UNL     1      -1.490  12.001  18.525  0.00  0.00    +0.000 C 
ATOM      5  C   UNL     1      -1.717  12.880  19.733  0.00  0.00    +0.000 C 
ATOM      6  C   UNL     1      -2.933  13.020  20.308  0.00  0.00    +0.000 C 
ATOM      7  C   UNL     1      -3.095  13.819  21.593  0.00  0.00    +0.000 C 
ATOM      8  C   UNL     1      -1.775  14.065  22.320  0.00  0.00    +0.000 C 
ATOM      9  C   UNL     1      -0.743  14.624  21.365  0.00  0.00    +0.000 C 
ATOM     10  C   UNL     1      -0.548  13.681  20.205  0.00  0.00    +0.000 C 
ATOM     11  O   UNL     1       0.519  13.656  19.593  0.00  0.00    +0.000 OA
ENDROOT
BRANCH   4  12
ATOM     12  C   UNL     1      -0.529  10.851  18.833  0.00  0.00    +0.000 A 
ATOM     13  C   UNL     1      -0.532  10.261  20.122  0.00  0.00    +0.000 A 
ATOM     14  C   UNL     1       0.352   9.226  20.445  0.00  0.00    +0.000 A 
ATOM     15  C   UNL     1       1.225   8.803  19.470  0.00  0.00    +0.000 A 
ATOM     16  C   UNL     1       1.235   9.363  18.215  0.00  0.00    +0.000 A 
ATOM     17  C   UNL     1       0.371  10.377  17.859  0.00  0.00    +0.000 A 
ATOM     18  O   UNL     1       2.175   8.807  17.405  0.00  0.00    +0.000 OA
ATOM     19  C   UNL     1       2.785   7.862  18.311  0.00  0.00    +0.000 C 
ATOM     20  O   UNL     1       2.159   7.823  19.609  0.00  0.00    +0.000 OA
ENDBRANCH   4  12
BRANCH   1  22
ATOM     21  C   UNL     1      -6.025  13.810  19.334  0.00  0.00    +0.000 C 
ATOM     22  N   UNL     1      -5.340  12.898  20.246  0.00  0.00    +0.000 NA
ATOM     23  C   UNL     1      -6.201  11.864  20.797  0.00  0.00    +0.000 C 
ENDBRANCH   1  22
BRANCH   2  24
ATOM     24  N   UNL     1      -5.150  11.135  17.931  0.00  0.00    +0.000 N 
ATOM     25  H   UNL     1      -5.534  11.789  17.260  0.00  0.00    +0.000 HD
ATOM     26  H   UNL     1      -5.886  10.825  18.561  0.00  0.00    +0.000 HD
ENDBRANCH   2  24
BRANCH   3  27
ATOM     27  C   UNL     1      -2.716  10.636  16.688  0.00  0.00    +0.000 C 
ATOM     28  N   UNL     1      -2.658   9.946  15.634  0.00  0.00    +0.000 NA
ENDBRANCH   3  27
TORSDOF 4
ENDMDL
MODEL 7
REMARK VINA RESULT:      -5.8      3.043      5.717
REMARK  Name = 
REMARK  6 active torsions:
REMARK  status: ('A' for Active; 'I' for Inactive)
REMARK    1  A    between atoms: C_1  and  N_2
REMARK    2  A    between atoms: N_2  and  C_3
REMARK    3  A    between atoms: N_2  and  N_4
REMARK    4  A    between atoms: C_5  and  N_6
REMARK    5  A    between atoms: C_7  and  C_8
REMARK    6  A    between atoms: C_10  and  C_11
REMARK                            x       y       z     vdW  Elec       q    Type
REMARK                         _______ _______ _______ _____ _____    ______ ____
ROOT
ATOM      1  N   UNL     1      -4.735  13.953  22.928  0.00  0.00    +0.000 N 
ATOM      2  C   UNL     1      -4.777  13.321  21.649  0.00  0.00    +0.000 C 
ATOM      3  C   UNL     1      -3.604  13.012  21.031  0.00  0.00    +0.000 C 
ATOM      4  C   UNL     1      -2.240  13.301  21.612  0.00  0.00    +0.000 C 
ATOM      5  C   UNL     1      -2.325  14.074  22.907  0.00  0.00    +0.000 C 
ATOM      6  C   UNL     1      -3.502  14.322  23.526  0.00  0.00    +0.000 C 
ATOM      7  C   UNL     1      -3.535  15.001  24.888  0.00  0.00    +0.000 C 
ATOM      8  C   UNL     1      -2.184  14.986  25.600  0.00  0.00    +0.000 C 
ATOM      9  C   UNL     1      -1.095  15.491  24.678  0.00  0.00    +0.000 C 
ATOM     10  C   UNL     1      -1.050  14.654  23.425  0.00  0.00    +0.000 C 
ATOM     11  O   UNL     1      -0.005  14.544  22.786  0.00  0.00    +0.000 OA
ENDROOT
BRANCH   4  12
ATOM     12  C   UNL     1      -1.446  12.003  21.779  0.00  0.00    +0.000 A 
ATOM     13  C   UNL     1      -1.509  11.296  23.005  0.00  0.00    +0.000 A 
ATOM     14  C   UNL     1      -0.775  10.121  23.200  0.00  0.00    +0.000 A 
ATOM     15  C   UNL     1       0.011   9.678  22.161  0.00  0.00    +0.000 A 
ATOM     16  C   UNL     1       0.077  10.352  20.966  0.00  0.00    +0.000 A 
ATOM     17  C   UNL     1      -0.641  11.507  20.735  0.00  0.00    +0.000 A 
ATOM     18  O   UNL     1       0.914   9.753  20.077  0.00  0.00    +0.000 OA
ATOM     19  C   UNL     1       1.400   8.648  20.869  0.00  0.00    +0.000 C 
ATOM     20  O   UNL     1       0.799   8.568  22.177  0.00  0.00    +0.000 OA
ENDBRANCH   4  12
BRANCH   1  22
ATOM     21  C   UNL     1      -6.453  15.642  22.728  0.00  0.00    +0.000 C 
ATOM     22  N   UNL     1      -5.903  14.542  23.515  0.00  0.00    +0.000 NA
ATOM     23  C   UNL     1      -6.904  13.588  23.966  0.00  0.00    +0.000 C 
ENDBRANCH   1  22
BRANCH   2  24
ATOM     24  N   UNL     1      -5.992  13.016  21.033  0.00  0.00    +0.000 N 
ATOM     25  H   UNL     1      -6.423  12.216  21.480  0.00  0.00    +0.000 HD
ATOM     26  H   UNL     1      -5.964  12.868  20.028  0.00  0.00    +0.000 HD
ENDBRANCH   2  24
BRANCH   3  27
ATOM     27  C   UNL     1      -3.668  12.314  19.682  0.00  0.00    +0.000 C 
ATOM     28  N   UNL     1      -3.721  11.735  18.563  0.00  0.00    +0.000 NA
ENDBRANCH   3  27
TORSDOF 4
ENDMDL
MODEL 8
REMARK VINA RESULT:      -5.8      2.362      4.925
REMARK  Name = 
REMARK  6 active torsions:
REMARK  status: ('A' for Active; 'I' for Inactive)
REMARK    1  A    between atoms: C_1  and  N_2
REMARK    2  A    between atoms: N_2  and  C_3
REMARK    3  A    between atoms: N_2  and  N_4
REMARK    4  A    between atoms: C_5  and  N_6
REMARK    5  A    between atoms: C_7  and  C_8
REMARK    6  A    between atoms: C_10  and  C_11
REMARK                            x       y       z     vdW  Elec       q    Type
REMARK                         _______ _______ _______ _____ _____    ______ ____
ROOT
ATOM      1  N   UNL     1      -4.681  12.279  19.878  0.00  0.00    +0.000 N 
ATOM      2  C   UNL     1      -4.375  11.690  18.616  0.00  0.00    +0.000 C 
ATOM      3  C   UNL     1      -3.084  11.701  18.181  0.00  0.00    +0.000 C 
ATOM      4  C   UNL     1      -1.938  12.309  18.954  0.00  0.00    +0.000 C 
ATOM      5  C   UNL     1      -2.404  13.003  20.212  0.00  0.00    +0.000 C 
ATOM      6  C   UNL     1      -3.683  12.931  20.647  0.00  0.00    +0.000 C 
ATOM      7  C   UNL     1      -4.084  13.545  21.981  0.00  0.00    +0.000 C 
ATOM      8  C   UNL     1      -2.893  13.853  22.885  0.00  0.00    +0.000 C 
ATOM      9  C   UNL     1      -1.844  14.638  22.128  0.00  0.00    +0.000 C 
ATOM     10  C   UNL     1      -1.406  13.872  20.906  0.00  0.00    +0.000 C 
ATOM     11  O   UNL     1      -0.285  14.044  20.429  0.00  0.00    +0.000 OA
ENDROOT
BRANCH   4  12
ATOM     12  C   UNL     1      -0.875  11.249  19.253  0.00  0.00    +0.000 A 
ATOM     13  C   UNL     1       0.265  11.144  18.419  0.00  0.00    +0.000 A 
ATOM     14  C   UNL     1       1.242  10.169  18.647  0.00  0.00    +0.000 A 
ATOM     15  C   UNL     1       1.054   9.314  19.709  0.00  0.00    +0.000 A 
ATOM     16  C   UNL     1      -0.045   9.407  20.528  0.00  0.00    +0.000 A 
ATOM     17  C   UNL     1      -1.021  10.363  20.338  0.00  0.00    +0.000 A 
ATOM     18  O   UNL     1      -0.041   8.467  21.510  0.00  0.00    +0.000 OA
ATOM     19  C   UNL     1       1.165   7.744  21.186  0.00  0.00    +0.000 C 
ATOM     20  O   UNL     1       1.889   8.301  20.071  0.00  0.00    +0.000 OA
ENDBRANCH   4  12
BRANCH   1  22
ATOM     21  C   UNL     1      -6.710  13.513  19.427  0.00  0.00    +0.000 C 
ATOM     22  N   UNL     1      -6.033  12.540  20.280  0.00  0.00    +0.000 NA
ATOM     23  C   UNL     1      -6.825  11.352  20.555  0.00  0.00    +0.000 C 
ENDBRANCH   1  22
BRANCH   2  24
ATOM     24  N   UNL     1      -5.370  11.104  17.831  0.00  0.00    +0.000 N 
ATOM     25  H   UNL     1      -6.173  10.865  18.400  0.00  0.00    +0.000 HD
ATOM     26  H   UNL     1      -5.093  10.296  17.279  0.00  0.00    +0.000 HD
ENDBRANCH   2  24
BRANCH   3  27
ATOM     27  C   UNL     1      -2.772  11.043  16.847  0.00  0.00    +0.000 C 
ATOM     28  N   UNL     1      -2.513  10.497  15.740  0.00  0.00    +0.000 NA
ENDBRANCH   3  27
TORSDOF 4
ENDMDL
MODEL 9
REMARK VINA RESULT:      -5.7      2.834      5.680
REMARK  Name = 
REMARK  6 active torsions:
REMARK  status: ('A' for Active; 'I' for Inactive)
REMARK    1  A    between atoms: C_1  and  N_2
REMARK    2  A    between atoms: N_2  and  C_3
REMARK    3  A    between atoms: N_2  and  N_4
REMARK    4  A    between atoms: C_5  and  N_6
REMARK    5  A    between atoms: C_7  and  C_8
REMARK    6  A    between atoms: C_10  and  C_11
REMARK                            x       y       z     vdW  Elec       q    Type
REMARK                         _______ _______ _______ _____ _____    ______ ____
ROOT
ATOM      1  N   UNL     1      -1.167  13.302  20.735  0.00  0.00    +0.000 N 
ATOM      2  C   UNL     1      -1.922  12.427  19.898  0.00  0.00    +0.000 C 
ATOM      3  C   UNL     1      -1.273  11.720  18.932  0.00  0.00    +0.000 C 
ATOM      4  C   UNL     1       0.214  11.802  18.680  0.00  0.00    +0.000 C 
ATOM      5  C   UNL     1       0.882  12.844  19.546  0.00  0.00    +0.000 C 
ATOM      6  C   UNL     1       0.224  13.495  20.532  0.00  0.00    +0.000 C 
ATOM      7  C   UNL     1       0.963  14.450  21.459  0.00  0.00    +0.000 C 
ATOM      8  C   UNL     1       2.479  14.278  21.416  0.00  0.00    +0.000 C 
ATOM      9  C   UNL     1       2.972  14.291  19.985  0.00  0.00    +0.000 C 
ATOM     10  C   UNL     1       2.286  13.208  19.192  0.00  0.00    +0.000 C 
ATOM     11  O   UNL     1       2.834  12.714  18.207  0.00  0.00    +0.000 OA
ENDROOT
BRANCH   4  12
ATOM     12  C   UNL     1       0.861  10.425  18.850  0.00  0.00    +0.000 A 
ATOM     13  C   UNL     1       1.572   9.846  17.771  0.00  0.00    +0.000 A 
ATOM     14  C   UNL     1       2.152   8.578  17.884  0.00  0.00    +0.000 A 
ATOM     15  C   UNL     1       2.005   7.912  19.080  0.00  0.00    +0.000 A 
ATOM     16  C   UNL     1       1.321   8.465  20.135  0.00  0.00    +0.000 A 
ATOM     17  C   UNL     1       0.747   9.717  20.062  0.00  0.00    +0.000 A 
ATOM     18  O   UNL     1       1.288   7.644  21.219  0.00  0.00    +0.000 OA
ATOM     19  C   UNL     1       1.991   6.493  20.705  0.00  0.00    +0.000 C 
ATOM     20  O   UNL     1       2.487   6.672  19.364  0.00  0.00    +0.000 OA
ENDBRANCH   4  12
BRANCH   1  22
ATOM     21  C   UNL     1      -2.619  15.231  20.853  0.00  0.00    +0.000 C 
ATOM     22  N   UNL     1      -1.804  14.266  21.585  0.00  0.00    +0.000 NA
ATOM     23  C   UNL     1      -2.467  13.704  22.751  0.00  0.00    +0.000 C 
ENDBRANCH   1  22
BRANCH   2  24
ATOM     24  N   UNL     1      -3.302  12.287  20.057  0.00  0.00    +0.000 N 
ATOM     25  H   UNL     1      -3.653  11.551  19.456  0.00  0.00    +0.000 HD
ATOM     26  H   UNL     1      -3.860  13.126  19.925  0.00  0.00    +0.000 HD
ENDBRANCH   2  24
BRANCH   3  27
ATOM     27  C   UNL     1      -2.089  10.772  18.069  0.00  0.00    +0.000 C 
ATOM     28  N   UNL     1      -2.767   9.985  17.352  0.00  0.00    +0.000 NA
ENDBRANCH   3  27
TORSDOF 4
ENDMDL
