MODEL 1
REMARK VINA RESULT:      -7.6      0.000      0.000
REMARK  Name = 
REMARK  9 active torsions:
REMARK  status: ('A' for Active; 'I' for Inactive)
REMARK    1  A    between atoms: C_1  and  C_2
REMARK    2  A    between atoms: C_3  and  C_4
REMARK    3  A    between atoms: N_6  and  CA_7
REMARK    4  A    between atoms: CA_7  and  CB_8
REMARK    5  A    between atoms: CA_7  and  C_13
REMARK    6  A    between atoms: CB_8  and  CG_9
REMARK    7  A    between atoms: CG_9  and  CD_10
REMARK    8  A    between atoms: CD_10  and  OE2_12
REMARK    9  A    between atoms: C_13  and  OXT_15
REMARK                            x       y       z     vdW  Elec       q    Type
REMARK                         _______ _______ _______ _____ _____    ______ ____
ROOT
ATOM      1  C   UNK A   0       1.923   9.328  17.636  0.00  0.00    +0.000 C 
ATOM      2  C   UNK A   0       1.633   8.953  19.072  0.00  0.00    +0.000 A 
ATOM      3  C   UNK A   0       1.925   7.661  19.585  0.00  0.00    +0.000 A 
ATOM      4  C   UNK A   0       1.659   7.397  20.934  0.00  0.00    +0.000 A 
ATOM      5  C   UNK A   0       1.072   8.364  21.746  0.00  0.00    +0.000 A 
ATOM      6  C   UNK A   0       0.731   9.617  21.272  0.00  0.00    +0.000 A 
ATOM      7  N   UNK A   0       0.152  10.437  22.153  0.00  0.00    +0.000 NA
ATOM      8  C   UNK A   0      -0.199  11.645  21.731  0.00  0.00    +0.000 A 
ATOM      9  N   UNK A   0      -0.822  12.484  22.629  0.00  0.00    +0.000 N 
ATOM     10  N   UNK A   0       0.023  12.111  20.511  0.00  0.00    +0.000 NA
ATOM     11  C   UNK A   0       0.598  11.272  19.635  0.00  0.00    +0.000 A 
ATOM     12  N   UNK A   0       0.760  11.859  18.378  0.00  0.00    +0.000 N 
ATOM     13  C   UNK A   0       1.002   9.946  19.936  0.00  0.00    +0.000 A 
ATOM     14  H   UNK A   0      -0.578  12.226  23.574  0.00  0.00    +0.000 HD
ATOM     15  H   UNK A   0      -0.682  13.447  22.358  0.00  0.00    +0.000 HD
ATOM     16  H   UNK A   0       0.381  12.801  18.451  0.00  0.00    +0.000 HD
ATOM     17  H   UNK A   0       0.267  11.338  17.663  0.00  0.00    +0.000 HD
ENDROOT
BRANCH   3  18
ATOM     18  C   UNK A   0       2.555   6.566  18.775  0.00  0.00    +0.000 C 
ATOM     19  O   UNK A   0       1.886   5.776  18.124  0.00  0.00    +0.000 OA
ATOM     20  N   GLU A   1       3.938   6.489  18.767  0.00  0.00    +0.000 N 
ATOM     21  H   GLU A   1       4.492   7.089  19.368  0.00  0.00    +0.000 HD
BRANCH  20  22
ATOM     22  CA  GLU A   1       4.648   5.437  18.036  0.00  0.00    +0.000 C 
BRANCH  22  23
ATOM     23  C   GLU A   1       5.585   4.745  19.035  0.00  0.00    +0.000 C 
ATOM     24  O   GLU A   1       6.421   5.348  19.698  0.00  0.00    +0.000 OA
BRANCH  23  25
ATOM     25  OXT GLU A   1       5.391   3.414  19.161  0.00  0.00    +0.000 OA
ATOM     26  HXT GLU A   1       6.141   2.917  19.556  0.00  0.00    +0.000 HD
ENDBRANCH  23  25
ENDBRANCH  22  23
BRANCH  22  27
ATOM     27  CB  GLU A   1       5.459   6.012  16.855  0.00  0.00    +0.000 C 
BRANCH  27  28
ATOM     28  CG  GLU A   1       5.680   5.051  15.693  0.00  0.00    +0.000 C 
BRANCH  28  29
ATOM     29  CD  GLU A   1       7.143   4.928  15.379  0.00  0.00    +0.000 C 
ATOM     30  OE1 GLU A   1       7.620   5.330  14.322  0.00  0.00    +0.000 OA
BRANCH  29  31
ATOM     31  OE2 GLU A   1       7.889   4.439  16.386  0.00  0.00    +0.000 OA
ATOM     32  HE2 GLU A   1       8.756   4.074  16.113  0.00  0.00    +0.000 HD
ENDBRANCH  29  31
ENDBRANCH  28  29
ENDBRANCH  27  28
ENDBRANCH  22  27
ENDBRANCH  20  22
ENDBRANCH   3  18
TORSDOF 8
ENDMDL
MODEL 2
REMARK VINA RESULT:      -7.4      1.122      2.286
REMARK  Name = 
REMARK  9 active torsions:
REMARK  status: ('A' for Active; 'I' for Inactive)
REMARK    1  A    between atoms: C_1  and  C_2
REMARK    2  A    between atoms: C_3  and  C_4
REMARK    3  A    between atoms: N_6  and  CA_7
REMARK    4  A    between atoms: CA_7  and  CB_8
REMARK    5  A    between atoms: CA_7  and  C_13
REMARK    6  A    between atoms: CB_8  and  CG_9
REMARK    7  A    between atoms: CG_9  and  CD_10
REMARK    8  A    between atoms: CD_10  and  OE2_12
REMARK    9  A    between atoms: C_13  and  OXT_15
REMARK                            x       y       z     vdW  Elec       q    Type
REMARK                         _______ _______ _______ _____ _____    ______ ____
ROOT
ATOM      1  C   UNK A   0       1.495   6.892  21.094  0.00  0.00    +0.000 C 
ATOM      2  C   UNK A   0       1.671   7.848  19.935  0.00  0.00    +0.000 A 
ATOM      3  C   UNK A   0       2.155   7.416  18.671  0.00  0.00    +0.000 A 
ATOM      4  C   UNK A   0       2.261   8.352  17.636  0.00  0.00    +0.000 A 
ATOM      5  C   UNK A   0       1.949   9.692  17.853  0.00  0.00    +0.000 A 
ATOM      6  C   UNK A   0       1.519  10.159  19.081  0.00  0.00    +0.000 A 
ATOM      7  N   UNK A   0       1.279  11.471  19.156  0.00  0.00    +0.000 NA
ATOM      8  C   UNK A   0       0.875  11.958  20.322  0.00  0.00    +0.000 A 
ATOM      9  N   UNK A   0       0.653  13.315  20.411  0.00  0.00    +0.000 N 
ATOM     10  N   UNK A   0       0.652  11.229  21.406  0.00  0.00    +0.000 NA
ATOM     11  C   UNK A   0       0.906   9.914  21.318  0.00  0.00    +0.000 A 
ATOM     12  N   UNK A   0       0.660   9.252  22.523  0.00  0.00    +0.000 N 
ATOM     13  C   UNK A   0       1.366   9.260  20.146  0.00  0.00    +0.000 A 
ATOM     14  H   UNK A   0       0.446  13.694  19.498  0.00  0.00    +0.000 HD
ATOM     15  H   UNK A   0      -0.000  13.510  21.156  0.00  0.00    +0.000 HD
ATOM     16  H   UNK A   0       0.347   9.963  23.181  0.00  0.00    +0.000 HD
ATOM     17  H   UNK A   0       1.496   8.798  22.869  0.00  0.00    +0.000 HD
ENDROOT
BRANCH   3  18
ATOM     18  C   UNK A   0       2.514   5.992  18.359  0.00  0.00    +0.000 C 
ATOM     19  O   UNK A   0       1.668   5.110  18.305  0.00  0.00    +0.000 OA
ATOM     20  N   GLU A   1       3.845   5.707  18.107  0.00  0.00    +0.000 N 
ATOM     21  H   GLU A   1       4.558   6.418  18.231  0.00  0.00    +0.000 HD
BRANCH  20  22
ATOM     22  CA  GLU A   1       4.303   4.344  17.828  0.00  0.00    +0.000 C 
BRANCH  22  23
ATOM     23  C   GLU A   1       5.253   3.943  18.963  0.00  0.00    +0.000 C 
ATOM     24  O   GLU A   1       6.086   4.704  19.441  0.00  0.00    +0.000 OA
BRANCH  23  25
ATOM     25  OXT GLU A   1       5.074   2.688  19.432  0.00  0.00    +0.000 OA
ATOM     26  HXT GLU A   1       4.316   2.575  20.046  0.00  0.00    +0.000 HD
ENDBRANCH  23  25
ENDBRANCH  22  23
BRANCH  22  27
ATOM     27  CB  GLU A   1       5.030   4.256  16.469  0.00  0.00    +0.000 C 
BRANCH  27  28
ATOM     28  CG  GLU A   1       5.643   5.562  15.977  0.00  0.00    +0.000 C 
BRANCH  28  29
ATOM     29  CD  GLU A   1       7.120   5.589  16.250  0.00  0.00    +0.000 C 
ATOM     30  OE1 GLU A   1       7.809   4.574  16.210  0.00  0.00    +0.000 OA
BRANCH  29  31
ATOM     31  OE2 GLU A   1       7.628   6.819  16.438  0.00  0.00    +0.000 OA
ATOM     32  HE2 GLU A   1       8.400   6.856  17.039  0.00  0.00    +0.000 HD
ENDBRANCH  29  31
ENDBRANCH  28  29
ENDBRANCH  27  28
ENDBRANCH  22  27
ENDBRANCH  20  22
ENDBRANCH   3  18
TORSDOF 8
ENDMDL
MODEL 3
REMARK VINA RESULT:      -7.4      1.094      2.251
REMARK  Name = 
REMARK  9 active torsions:
REMARK  status: ('A' for Active; 'I' for Inactive)
REMARK    1  A    between atoms: C_1  and  C_2
REMARK    2  A    between atoms: C_3  and  C_4
REMARK    3  A    between atoms: N_6  and  CA_7
REMARK    4  A    between atoms: CA_7  and  CB_8
REMARK    5  A    between atoms: CA_7  and  C_13
REMARK    6  A    between atoms: CB_8  and  CG_9
REMARK    7  A    between atoms: CG_9  and  CD_10
REMARK    8  A    between atoms: CD_10  and  OE2_12
REMARK    9  A    between atoms: C_13  and  OXT_15
REMARK                            x       y       z     vdW  Elec       q    Type
REMARK                         _______ _______ _______ _____ _____    ______ ____
ROOT
ATOM      1  C   UNK A   0       1.552   6.854  20.981  0.00  0.00    +0.000 C 
ATOM      2  C   UNK A   0       1.694   7.841  19.844  0.00  0.00    +0.000 A 
ATOM      3  C   UNK A   0       2.317   7.489  18.617  0.00  0.00    +0.000 A 
ATOM      4  C   UNK A   0       2.383   8.447  17.598  0.00  0.00    +0.000 A 
ATOM      5  C   UNK A   0       1.894   9.736  17.800  0.00  0.00    +0.000 A 
ATOM      6  C   UNK A   0       1.322  10.129  18.995  0.00  0.00    +0.000 A 
ATOM      7  N   UNK A   0       0.918  11.400  19.059  0.00  0.00    +0.000 NA
ATOM      8  C   UNK A   0       0.373  11.817  20.195  0.00  0.00    +0.000 A 
ATOM      9  N   UNK A   0      -0.020  13.135  20.275  0.00  0.00    +0.000 N 
ATOM     10  N   UNK A   0       0.163  11.050  21.255  0.00  0.00    +0.000 NA
ATOM     11  C   UNK A   0       0.583   9.778  21.178  0.00  0.00    +0.000 A 
ATOM     12  N   UNK A   0       0.332   9.072  22.358  0.00  0.00    +0.000 N 
ATOM     13  C   UNK A   0       1.203   9.202  20.041  0.00  0.00    +0.000 A 
ATOM     14  H   UNK A   0      -0.205  13.500  19.352  0.00  0.00    +0.000 HD
ATOM     15  H   UNK A   0      -0.744  13.238  20.971  0.00  0.00    +0.000 HD
ATOM     16  H   UNK A   0      -0.112   9.730  22.996  0.00  0.00    +0.000 HD
ATOM     17  H   UNK A   0       1.191   8.718  22.763  0.00  0.00    +0.000 HD
ENDROOT
BRANCH   3  18
ATOM     18  C   UNK A   0       2.870   6.126  18.324  0.00  0.00    +0.000 C 
ATOM     19  O   UNK A   0       2.142   5.169  18.095  0.00  0.00    +0.000 OA
ATOM     20  N   GLU A   1       4.246   5.984  18.297  0.00  0.00    +0.000 N 
ATOM     21  H   GLU A   1       4.850   6.752  18.567  0.00  0.00    +0.000 HD
BRANCH  20  22
ATOM     22  CA  GLU A   1       4.884   4.687  18.055  0.00  0.00    +0.000 C 
BRANCH  22  23
ATOM     23  C   GLU A   1       6.287   4.750  18.673  0.00  0.00    +0.000 C 
ATOM     24  O   GLU A   1       6.540   5.364  19.702  0.00  0.00    +0.000 OA
BRANCH  23  25
ATOM     25  OXT GLU A   1       7.226   4.035  18.014  0.00  0.00    +0.000 OA
ATOM     26  HXT GLU A   1       6.885   3.463  17.291  0.00  0.00    +0.000 HD
ENDBRANCH  23  25
ENDBRANCH  22  23
BRANCH  22  27
ATOM     27  CB  GLU A   1       4.980   4.373  16.547  0.00  0.00    +0.000 C 
BRANCH  27  28
ATOM     28  CG  GLU A   1       5.627   5.462  15.699  0.00  0.00    +0.000 C 
BRANCH  28  29
ATOM     29  CD  GLU A   1       6.651   4.873  14.772  0.00  0.00    +0.000 C 
ATOM     30  OE1 GLU A   1       7.668   5.481  14.453  0.00  0.00    +0.000 OA
BRANCH  29  31
ATOM     31  OE2 GLU A   1       6.407   3.601  14.410  0.00  0.00    +0.000 OA
ATOM     32  HE2 GLU A   1       6.165   3.482  13.469  0.00  0.00    +0.000 HD
ENDBRANCH  29  31
ENDBRANCH  28  29
ENDBRANCH  27  28
ENDBRANCH  22  27
ENDBRANCH  20  22
ENDBRANCH   3  18
TORSDOF 8
ENDMDL
MODEL 4
REMARK VINA RESULT:      -7.4      1.393      1.837
REMARK  Name = 
REMARK  9 active torsions:
REMARK  status: ('A' for Active; 'I' for Inactive)
REMARK    1  A    between atoms: C_1  and  C_2
REMARK    2  A    between atoms: C_3  and  C_4
REMARK    3  A    between atoms: N_6  and  CA_7
REMARK    4  A    between atoms: CA_7  and  CB_8
REMARK    5  A    between atoms: CA_7  and  C_13
REMARK    6  A    between atoms: CB_8  and  CG_9
REMARK    7  A    between atoms: CG_9  and  CD_10
REMARK    8  A    between atoms: CD_10  and  OE2_12
REMARK    9  A    between atoms: C_13  and  OXT_15
REMARK                            x       y       z     vdW  Elec       q    Type
REMARK                         _______ _______ _______ _____ _____    ______ ____
ROOT
ATOM      1  C   UNK A   0       3.223   7.811  17.398  0.00  0.00    +0.000 C 
ATOM      2  C   UNK A   0       2.542   7.500  18.712  0.00  0.00    +0.000 A 
ATOM      3  C   UNK A   0       2.679   6.238  19.349  0.00  0.00    +0.000 A 
ATOM      4  C   UNK A   0       2.045   6.035  20.580  0.00  0.00    +0.000 A 
ATOM      5  C   UNK A   0       1.252   7.030  21.146  0.00  0.00    +0.000 A 
ATOM      6  C   UNK A   0       1.057   8.254  20.534  0.00  0.00    +0.000 A 
ATOM      7  N   UNK A   0       0.253   9.106  21.175  0.00  0.00    +0.000 NA
ATOM      8  C   UNK A   0       0.034  10.288  20.612  0.00  0.00    +0.000 A 
ATOM      9  N   UNK A   0      -0.817  11.160  21.256  0.00  0.00    +0.000 N 
ATOM     10  N   UNK A   0       0.590  10.699  19.482  0.00  0.00    +0.000 NA
ATOM     11  C   UNK A   0       1.388   9.828  18.845  0.00  0.00    +0.000 A 
ATOM     12  N   UNK A   0       1.897  10.357  17.657  0.00  0.00    +0.000 N 
ATOM     13  C   UNK A   0       1.692   8.524  19.313  0.00  0.00    +0.000 A 
ATOM     14  H   UNK A   0      -0.848  10.950  22.244  0.00  0.00    +0.000 HD
ATOM     15  H   UNK A   0      -0.607  12.110  20.988  0.00  0.00    +0.000 HD
ATOM     16  H   UNK A   0       1.512  11.296  17.574  0.00  0.00    +0.000 HD
ATOM     17  H   UNK A   0       1.625   9.795  16.859  0.00  0.00    +0.000 HD
ENDROOT
BRANCH   3  18
ATOM     18  C   UNK A   0       3.512   5.116  18.804  0.00  0.00    +0.000 C 
ATOM     19  O   UNK A   0       3.058   3.991  18.647  0.00  0.00    +0.000 OA
ATOM     20  N   GLU A   1       4.822   5.400  18.458  0.00  0.00    +0.000 N 
ATOM     21  H   GLU A   1       5.226   6.307  18.664  0.00  0.00    +0.000 HD
BRANCH  20  22
ATOM     22  CA  GLU A   1       5.728   4.366  17.951  0.00  0.00    +0.000 C 
BRANCH  22  23
ATOM     23  C   GLU A   1       7.156   4.915  18.071  0.00  0.00    +0.000 C 
ATOM     24  O   GLU A   1       7.417   5.997  18.582  0.00  0.00    +0.000 OA
BRANCH  23  25
ATOM     25  OXT GLU A   1       8.118   4.090  17.603  0.00  0.00    +0.000 OA
ATOM     26  HXT GLU A   1       8.026   3.148  17.866  0.00  0.00    +0.000 HD
ENDBRANCH  23  25
ENDBRANCH  22  23
BRANCH  22  27
ATOM     27  CB  GLU A   1       5.417   4.009  16.481  0.00  0.00    +0.000 C 
BRANCH  27  28
ATOM     28  CG  GLU A   1       5.543   5.163  15.494  0.00  0.00    +0.000 C 
BRANCH  28  29
ATOM     29  CD  GLU A   1       6.653   4.903  14.515  0.00  0.00    +0.000 C 
ATOM     30  OE1 GLU A   1       7.770   5.393  14.650  0.00  0.00    +0.000 OA
BRANCH  29  31
ATOM     31  OE2 GLU A   1       6.347   4.017  13.551  0.00  0.00    +0.000 OA
ATOM     32  HE2 GLU A   1       7.100   3.753  12.984  0.00  0.00    +0.000 HD
ENDBRANCH  29  31
ENDBRANCH  28  29
ENDBRANCH  27  28
ENDBRANCH  22  27
ENDBRANCH  20  22
ENDBRANCH   3  18
TORSDOF 8
ENDMDL
MODEL 5
REMARK VINA RESULT:      -7.4      2.526      4.568
REMARK  Name = 
REMARK  9 active torsions:
REMARK  status: ('A' for Active; 'I' for Inactive)
REMARK    1  A    between atoms: C_1  and  C_2
REMARK    2  A    between atoms: C_3  and  C_4
REMARK    3  A    between atoms: N_6  and  CA_7
REMARK    4  A    between atoms: CA_7  and  CB_8
REMARK    5  A    between atoms: CA_7  and  C_13
REMARK    6  A    between atoms: CB_8  and  CG_9
REMARK    7  A    between atoms: CG_9  and  CD_10
REMARK    8  A    between atoms: CD_10  and  OE2_12
REMARK    9  A    between atoms: C_13  and  OXT_15
REMARK                            x       y       z     vdW  Elec       q    Type
REMARK                         _______ _______ _______ _____ _____    ______ ____
ROOT
ATOM      1  C   UNK A   0       1.523   6.910  21.165  0.00  0.00    +0.000 C 
ATOM      2  C   UNK A   0       1.675   7.803  19.954  0.00  0.00    +0.000 A 
ATOM      3  C   UNK A   0       2.520   7.457  18.866  0.00  0.00    +0.000 A 
ATOM      4  C   UNK A   0       2.585   8.319  17.765  0.00  0.00    +0.000 A 
ATOM      5  C   UNK A   0       1.876   9.519  17.757  0.00  0.00    +0.000 A 
ATOM      6  C   UNK A   0       1.080   9.912  18.816  0.00  0.00    +0.000 A 
ATOM      7  N   UNK A   0       0.478  11.096  18.686  0.00  0.00    +0.000 NA
ATOM      8  C   UNK A   0      -0.287  11.512  19.688  0.00  0.00    +0.000 A 
ATOM      9  N   UNK A   0      -0.888  12.746  19.569  0.00  0.00    +0.000 N 
ATOM     10  N   UNK A   0      -0.529  10.816  20.789  0.00  0.00    +0.000 NA
ATOM     11  C   UNK A   0       0.090   9.632  20.909  0.00  0.00    +0.000 A 
ATOM     12  N   UNK A   0      -0.218   9.000  22.116  0.00  0.00    +0.000 N 
ATOM     13  C   UNK A   0       0.954   9.073  19.933  0.00  0.00    +0.000 A 
ATOM     14  H   UNK A   0      -0.990  12.992  18.595  0.00  0.00    +0.000 HD
ATOM     15  H   UNK A   0      -1.715  12.785  20.149  0.00  0.00    +0.000 HD
ATOM     16  H   UNK A   0      -0.849   9.626  22.614  0.00  0.00    +0.000 HD
ATOM     17  H   UNK A   0       0.616   8.834  22.667  0.00  0.00    +0.000 HD
ENDROOT
BRANCH   3  18
ATOM     18  C   UNK A   0       3.316   6.187  18.800  0.00  0.00    +0.000 C 
ATOM     19  O   UNK A   0       4.539   6.188  18.823  0.00  0.00    +0.000 OA
ATOM     20  N   GLU A   1       2.615   4.995  18.735  0.00  0.00    +0.000 N 
ATOM     21  H   GLU A   1       1.606   4.993  18.633  0.00  0.00    +0.000 HD
BRANCH  20  22
ATOM     22  CA  GLU A   1       3.298   3.703  18.632  0.00  0.00    +0.000 C 
BRANCH  22  23
ATOM     23  C   GLU A   1       2.459   2.819  17.699  0.00  0.00    +0.000 C 
ATOM     24  O   GLU A   1       2.145   3.153  16.564  0.00  0.00    +0.000 OA
BRANCH  23  25
ATOM     25  OXT GLU A   1       2.124   1.615  18.214  0.00  0.00    +0.000 OA
ATOM     26  HXT GLU A   1       2.866   0.977  18.301  0.00  0.00    +0.000 HD
ENDBRANCH  23  25
ENDBRANCH  22  23
BRANCH  22  27
ATOM     27  CB  GLU A   1       3.448   3.027  20.012  0.00  0.00    +0.000 C 
BRANCH  27  28
ATOM     28  CG  GLU A   1       2.649   3.673  21.139  0.00  0.00    +0.000 C 
BRANCH  28  29
ATOM     29  CD  GLU A   1       1.371   2.922  21.379  0.00  0.00    +0.000 C 
ATOM     30  OE1 GLU A   1       1.178   2.271  22.402  0.00  0.00    +0.000 OA
BRANCH  29  31
ATOM     31  OE2 GLU A   1       0.432   3.106  20.435  0.00  0.00    +0.000 OA
ATOM     32  HE2 GLU A   1      -0.192   3.839  20.615  0.00  0.00    +0.000 HD
ENDBRANCH  29  31
ENDBRANCH  28  29
ENDBRANCH  27  28
ENDBRANCH  22  27
ENDBRANCH  20  22
ENDBRANCH   3  18
TORSDOF 8
ENDMDL
MODEL 6
REMARK VINA RESULT:      -7.3      1.682      2.453
REMARK  Name = 
REMARK  9 active torsions:
REMARK  status: ('A' for Active; 'I' for Inactive)
REMARK    1  A    between atoms: C_1  and  C_2
REMARK    2  A    between atoms: C_3  and  C_4
REMARK    3  A    between atoms: N_6  and  CA_7
REMARK    4  A    between atoms: CA_7  and  CB_8
REMARK    5  A    between atoms: CA_7  and  C_13
REMARK    6  A    between atoms: CB_8  and  CG_9
REMARK    7  A    between atoms: CG_9  and  CD_10
REMARK    8  A    between atoms: CD_10  and  OE2_12
REMARK    9  A    between atoms: C_13  and  OXT_15
REMARK                            x       y       z     vdW  Elec       q    Type
REMARK                         _______ _______ _______ _____ _____    ______ ____
ROOT
ATOM      1  C   UNK A   0       3.088   7.924  17.047  0.00  0.00    +0.000 C 
ATOM      2  C   UNK A   0       2.647   7.315  18.359  0.00  0.00    +0.000 A 
ATOM      3  C   UNK A   0       2.945   5.968  18.701  0.00  0.00    +0.000 A 
ATOM      4  C   UNK A   0       2.532   5.484  19.948  0.00  0.00    +0.000 A 
ATOM      5  C   UNK A   0       1.797   6.288  20.816  0.00  0.00    +0.000 A 
ATOM      6  C   UNK A   0       1.448   7.588  20.500  0.00  0.00    +0.000 A 
ATOM      7  N   UNK A   0       0.721   8.236  21.413  0.00  0.00    +0.000 NA
ATOM      8  C   UNK A   0       0.358   9.483  21.140  0.00  0.00    +0.000 A 
ATOM      9  N   UNK A   0      -0.416  10.146  22.068  0.00  0.00    +0.000 N 
ATOM     10  N   UNK A   0       0.701  10.145  20.045  0.00  0.00    +0.000 NA
ATOM     11  C   UNK A   0       1.424   9.476  19.132  0.00  0.00    +0.000 A 
ATOM     12  N   UNK A   0       1.705  10.262  18.011  0.00  0.00    +0.000 N 
ATOM     13  C   UNK A   0       1.861   8.135  19.276  0.00  0.00    +0.000 A 
ATOM     14  H   UNK A   0      -0.274   9.750  22.986  0.00  0.00    +0.000 HD
ATOM     15  H   UNK A   0      -0.296  11.144  21.968  0.00  0.00    +0.000 HD
ATOM     16  H   UNK A   0       1.269  11.166  18.178  0.00  0.00    +0.000 HD
ATOM     17  H   UNK A   0       1.332   9.843  17.168  0.00  0.00    +0.000 HD
ENDROOT
BRANCH   3  18
ATOM     18  C   UNK A   0       3.729   5.040  17.821  0.00  0.00    +0.000 C 
ATOM     19  O   UNK A   0       3.308   3.934  17.511  0.00  0.00    +0.000 OA
ATOM     20  N   GLU A   1       4.950   5.486  17.345  0.00  0.00    +0.000 N 
ATOM     21  H   GLU A   1       5.339   6.366  17.666  0.00  0.00    +0.000 HD
BRANCH  20  22
ATOM     22  CA  GLU A   1       5.807   4.642  16.509  0.00  0.00    +0.000 C 
BRANCH  22  23
ATOM     23  C   GLU A   1       7.261   5.022  16.821  0.00  0.00    +0.000 C 
ATOM     24  O   GLU A   1       8.085   4.224  17.249  0.00  0.00    +0.000 OA
BRANCH  23  25
ATOM     25  OXT GLU A   1       7.579   6.306  16.546  0.00  0.00    +0.000 OA
ATOM     26  HXT GLU A   1       8.443   6.608  16.902  0.00  0.00    +0.000 HD
ENDBRANCH  23  25
ENDBRANCH  22  23
BRANCH  22  27
ATOM     27  CB  GLU A   1       5.514   4.847  15.007  0.00  0.00    +0.000 C 
BRANCH  27  28
ATOM     28  CG  GLU A   1       6.134   3.808  14.080  0.00  0.00    +0.000 C 
BRANCH  28  29
ATOM     29  CD  GLU A   1       7.054   4.463  13.090  0.00  0.00    +0.000 C 
ATOM     30  OE1 GLU A   1       7.118   4.101  11.919  0.00  0.00    +0.000 OA
BRANCH  29  31
ATOM     31  OE2 GLU A   1       7.716   5.531  13.569  0.00  0.00    +0.000 OA
ATOM     32  HE2 GLU A   1       8.015   6.167  12.888  0.00  0.00    +0.000 HD
ENDBRANCH  29  31
ENDBRANCH  28  29
ENDBRANCH  27  28
ENDBRANCH  22  27
ENDBRANCH  20  22
ENDBRANCH   3  18
TORSDOF 8
ENDMDL
MODEL 7
REMARK VINA RESULT:      -7.2      1.235      1.612
REMARK  Name = 
REMARK  9 active torsions:
REMARK  status: ('A' for Active; 'I' for Inactive)
REMARK    1  A    between atoms: C_1  and  C_2
REMARK    2  A    between atoms: C_3  and  C_4
REMARK    3  A    between atoms: N_6  and  CA_7
REMARK    4  A    between atoms: CA_7  and  CB_8
REMARK    5  A    between atoms: CA_7  and  C_13
REMARK    6  A    between atoms: CB_8  and  CG_9
REMARK    7  A    between atoms: CG_9  and  CD_10
REMARK    8  A    between atoms: CD_10  and  OE2_12
REMARK    9  A    between atoms: C_13  and  OXT_15
REMARK                            x       y       z     vdW  Elec       q    Type
REMARK                         _______ _______ _______ _____ _____    ______ ____
ROOT
ATOM      1  C   UNK A   0       2.540   8.441  17.460  0.00  0.00    +0.000 C 
ATOM      2  C   UNK A   0       1.991   8.245  18.855  0.00  0.00    +0.000 A 
ATOM      3  C   UNK A   0       1.965   6.969  19.480  0.00  0.00    +0.000 A 
ATOM      4  C   UNK A   0       1.471   6.871  20.786  0.00  0.00    +0.000 A 
ATOM      5  C   UNK A   0       0.967   7.990  21.443  0.00  0.00    +0.000 A 
ATOM      6  C   UNK A   0       0.933   9.239  20.852  0.00  0.00    +0.000 A 
ATOM      7  N   UNK A   0       0.400  10.219  21.586  0.00  0.00    +0.000 NA
ATOM      8  C   UNK A   0       0.340  11.430  21.047  0.00  0.00    +0.000 A 
ATOM      9  N   UNK A   0      -0.235  12.438  21.790  0.00  0.00    +0.000 N 
ATOM     10  N   UNK A   0       0.811  11.745  19.849  0.00  0.00    +0.000 NA
ATOM     11  C   UNK A   0       1.335  10.748  19.120  0.00  0.00    +0.000 A 
ATOM     12  N   UNK A   0       1.775  11.190  17.869  0.00  0.00    +0.000 N 
ATOM     13  C   UNK A   0       1.441   9.402  19.555  0.00  0.00    +0.000 A 
ATOM     14  H   UNK A   0      -0.175  12.221  22.775  0.00  0.00    +0.000 HD
ATOM     15  H   UNK A   0       0.118  13.335  21.488  0.00  0.00    +0.000 HD
ATOM     16  H   UNK A   0       1.571  12.186  17.830  0.00  0.00    +0.000 HD
ATOM     17  H   UNK A   0       1.297  10.704  17.120  0.00  0.00    +0.000 HD
ENDROOT
BRANCH   3  18
ATOM     18  C   UNK A   0       2.487   5.717  18.839  0.00  0.00    +0.000 C 
ATOM     19  O   UNK A   0       1.933   5.204  17.877  0.00  0.00    +0.000 OA
ATOM     20  N   GLU A   1       3.644   5.164  19.361  0.00  0.00    +0.000 N 
ATOM     21  H   GLU A   1       4.059   5.538  20.208  0.00  0.00    +0.000 HD
BRANCH  20  22
ATOM     22  CA  GLU A   1       4.215   3.924  18.830  0.00  0.00    +0.000 C 
BRANCH  22  23
ATOM     23  C   GLU A   1       4.154   2.879  19.952  0.00  0.00    +0.000 C 
ATOM     24  O   GLU A   1       3.212   2.783  20.729  0.00  0.00    +0.000 OA
BRANCH  23  25
ATOM     25  OXT GLU A   1       5.210   2.037  19.995  0.00  0.00    +0.000 OA
ATOM     26  HXT GLU A   1       5.750   2.000  19.175  0.00  0.00    +0.000 HD
ENDBRANCH  23  25
ENDBRANCH  22  23
BRANCH  22  27
ATOM     27  CB  GLU A   1       5.674   4.123  18.365  0.00  0.00    +0.000 C 
BRANCH  27  28
ATOM     28  CG  GLU A   1       5.850   5.045  17.165  0.00  0.00    +0.000 C 
BRANCH  28  29
ATOM     29  CD  GLU A   1       7.240   4.927  16.606  0.00  0.00    +0.000 C 
ATOM     30  OE1 GLU A   1       8.097   4.226  17.135  0.00  0.00    +0.000 OA
BRANCH  29  31
ATOM     31  OE2 GLU A   1       7.426   5.565  15.438  0.00  0.00    +0.000 OA
ATOM     32  HE2 GLU A   1       6.607   5.906  15.023  0.00  0.00    +0.000 HD
ENDBRANCH  29  31
ENDBRANCH  28  29
ENDBRANCH  27  28
ENDBRANCH  22  27
ENDBRANCH  20  22
ENDBRANCH   3  18
TORSDOF 8
ENDMDL
MODEL 8
REMARK VINA RESULT:      -7.2      0.932      1.055
REMARK  Name = 
REMARK  9 active torsions:
REMARK  status: ('A' for Active; 'I' for Inactive)
REMARK    1  A    between atoms: C_1  and  C_2
REMARK    2  A    between atoms: C_3  and  C_4
REMARK    3  A    between atoms: N_6  and  CA_7
REMARK    4  A    between atoms: CA_7  and  CB_8
REMARK    5  A    between atoms: CA_7  and  C_13
REMARK    6  A    between atoms: CB_8  and  CG_9
REMARK    7  A    between atoms: CG_9  and  CD_10
REMARK    8  A    between atoms: CD_10  and  OE2_12
REMARK    9  A    between atoms: C_13  and  OXT_15
REMARK                            x       y       z     vdW  Elec       q    Type
REMARK                         _______ _______ _______ _____ _____    ______ ____
ROOT
ATOM      1  C   UNK A   0       2.261   8.939  17.532  0.00  0.00    +0.000 C 
ATOM      2  C   UNK A   0       1.855   8.444  18.902  0.00  0.00    +0.000 A 
ATOM      3  C   UNK A   0       2.097   7.108  19.321  0.00  0.00    +0.000 A 
ATOM      4  C   UNK A   0       1.722   6.732  20.616  0.00  0.00    +0.000 A 
ATOM      5  C   UNK A   0       1.078   7.633  21.461  0.00  0.00    +0.000 A 
ATOM      6  C   UNK A   0       0.785   8.927  21.074  0.00  0.00    +0.000 A 
ATOM      7  N   UNK A   0       0.142   9.675  21.974  0.00  0.00    +0.000 NA
ATOM      8  C   UNK A   0      -0.165  10.920  21.634  0.00  0.00    +0.000 A 
ATOM      9  N   UNK A   0      -0.853  11.687  22.549  0.00  0.00    +0.000 N 
ATOM     10  N   UNK A   0       0.157  11.487  20.480  0.00  0.00    +0.000 NA
ATOM     11  C   UNK A   0       0.794  10.720  19.582  0.00  0.00    +0.000 A 
ATOM     12  N   UNK A   0       1.060  11.412  18.398  0.00  0.00    +0.000 N 
ATOM     13  C   UNK A   0       1.164   9.367  19.797  0.00  0.00    +0.000 A 
ATOM     14  H   UNK A   0      -0.686  11.344  23.485  0.00  0.00    +0.000 HD
ATOM     15  H   UNK A   0      -0.684  12.668  22.375  0.00  0.00    +0.000 HD
ATOM     16  H   UNK A   0       0.683  12.349  18.523  0.00  0.00    +0.000 HD
ATOM     17  H   UNK A   0       0.622  10.961  17.604  0.00  0.00    +0.000 HD
ENDROOT
BRANCH   3  18
ATOM     18  C   UNK A   0       2.782   6.080  18.471  0.00  0.00    +0.000 C 
ATOM     19  O   UNK A   0       2.154   5.256  17.820  0.00  0.00    +0.000 OA
ATOM     20  N   GLU A   1       4.166   6.105  18.425  0.00  0.00    +0.000 N 
ATOM     21  H   GLU A   1       4.691   6.731  19.025  0.00  0.00    +0.000 HD
BRANCH  20  22
ATOM     22  CA  GLU A   1       4.930   5.122  17.653  0.00  0.00    +0.000 C 
BRANCH  22  23
ATOM     23  C   GLU A   1       4.895   3.803  18.436  0.00  0.00    +0.000 C 
ATOM     24  O   GLU A   1       5.374   3.676  19.556  0.00  0.00    +0.000 OA
BRANCH  23  25
ATOM     25  OXT GLU A   1       4.253   2.793  17.809  0.00  0.00    +0.000 OA
ATOM     26  HXT GLU A   1       4.788   1.982  17.666  0.00  0.00    +0.000 HD
ENDBRANCH  23  25
ENDBRANCH  22  23
BRANCH  22  27
ATOM     27  CB  GLU A   1       6.390   5.577  17.441  0.00  0.00    +0.000 C 
BRANCH  27  28
ATOM     28  CG  GLU A   1       7.286   4.568  16.732  0.00  0.00    +0.000 C 
BRANCH  28  29
ATOM     29  CD  GLU A   1       7.022   4.575  15.253  0.00  0.00    +0.000 C 
ATOM     30  OE1 GLU A   1       7.498   5.427  14.509  0.00  0.00    +0.000 OA
BRANCH  29  31
ATOM     31  OE2 GLU A   1       6.314   3.522  14.809  0.00  0.00    +0.000 OA
ATOM     32  HE2 GLU A   1       5.343   3.621  14.885  0.00  0.00    +0.000 HD
ENDBRANCH  29  31
ENDBRANCH  28  29
ENDBRANCH  27  28
ENDBRANCH  22  27
ENDBRANCH  20  22
ENDBRANCH   3  18
TORSDOF 8
ENDMDL
MODEL 9
REMARK VINA RESULT:      -7.2      1.550      2.611
REMARK  Name = 
REMARK  9 active torsions:
REMARK  status: ('A' for Active; 'I' for Inactive)
REMARK    1  A    between atoms: C_1  and  C_2
REMARK    2  A    between atoms: C_3  and  C_4
REMARK    3  A    between atoms: N_6  and  CA_7
REMARK    4  A    between atoms: CA_7  and  CB_8
REMARK    5  A    between atoms: CA_7  and  C_13
REMARK    6  A    between atoms: CB_8  and  CG_9
REMARK    7  A    between atoms: CG_9  and  CD_10
REMARK    8  A    between atoms: CD_10  and  OE2_12
REMARK    9  A    between atoms: C_13  and  OXT_15
REMARK                            x       y       z     vdW  Elec       q    Type
REMARK                         _______ _______ _______ _____ _____    ______ ____
ROOT
ATOM      1  C   UNK A   0       1.477   6.979  20.980  0.00  0.00    +0.000 C 
ATOM      2  C   UNK A   0       1.605   8.057  19.928  0.00  0.00    +0.000 A 
ATOM      3  C   UNK A   0       2.108   7.782  18.627  0.00  0.00    +0.000 A 
ATOM      4  C   UNK A   0       2.167   8.825  17.695  0.00  0.00    +0.000 A 
ATOM      5  C   UNK A   0       1.788  10.118  18.049  0.00  0.00    +0.000 A 
ATOM      6  C   UNK A   0       1.337  10.434  19.316  0.00  0.00    +0.000 A 
ATOM      7  N   UNK A   0       1.032  11.717  19.525  0.00  0.00    +0.000 NA
ATOM      8  C   UNK A   0       0.604  12.060  20.733  0.00  0.00    +0.000 A 
ATOM      9  N   UNK A   0       0.315  13.388  20.961  0.00  0.00    +0.000 N 
ATOM     10  N   UNK A   0       0.418  11.213  21.735  0.00  0.00    +0.000 NA
ATOM     11  C   UNK A   0       0.738   9.929  21.513  0.00  0.00    +0.000 A 
ATOM     12  N   UNK A   0       0.526   9.134  22.642  0.00  0.00    +0.000 N 
ATOM     13  C   UNK A   0       1.230   9.423  20.282  0.00  0.00    +0.000 A 
ATOM     14  H   UNK A   0       0.088  13.849  20.091  0.00  0.00    +0.000 HD
ATOM     15  H   UNK A   0      -0.347  13.472  21.719  0.00  0.00    +0.000 HD
ATOM     16  H   UNK A   0       0.179   9.756  23.369  0.00  0.00    +0.000 HD
ATOM     17  H   UNK A   0       1.384   8.688  22.943  0.00  0.00    +0.000 HD
ENDROOT
BRANCH   3  18
ATOM     18  C   UNK A   0       2.538   6.419  18.172  0.00  0.00    +0.000 C 
ATOM     19  O   UNK A   0       1.741   5.607  17.722  0.00  0.00    +0.000 OA
ATOM     20  N   GLU A   1       3.885   6.110  18.254  0.00  0.00    +0.000 N 
ATOM     21  H   GLU A   1       4.534   6.747  18.701  0.00  0.00    +0.000 HD
BRANCH  20  22
ATOM     22  CA  GLU A   1       4.400   4.794  17.868  0.00  0.00    +0.000 C 
BRANCH  22  23
ATOM     23  C   GLU A   1       4.449   3.935  19.138  0.00  0.00    +0.000 C 
ATOM     24  O   GLU A   1       3.546   3.910  19.965  0.00  0.00    +0.000 OA
BRANCH  23  25
ATOM     25  OXT GLU A   1       5.555   3.168  19.257  0.00  0.00    +0.000 OA
ATOM     26  HXT GLU A   1       6.198   3.243  18.518  0.00  0.00    +0.000 HD
ENDBRANCH  23  25
ENDBRANCH  22  23
BRANCH  22  27
ATOM     27  CB  GLU A   1       5.806   4.896  17.239  0.00  0.00    +0.000 C 
BRANCH  27  28
ATOM     28  CG  GLU A   1       6.572   6.172  17.571  0.00  0.00    +0.000 C 
BRANCH  28  29
ATOM     29  CD  GLU A   1       7.691   5.882  18.531  0.00  0.00    +0.000 C 
ATOM     30  OE1 GLU A   1       8.034   4.737  18.806  0.00  0.00    +0.000 OA
BRANCH  29  31
ATOM     31  OE2 GLU A   1       8.340   6.973  18.974  0.00  0.00    +0.000 OA
ATOM     32  HE2 GLU A   1       8.390   7.709  18.330  0.00  0.00    +0.000 HD
ENDBRANCH  29  31
ENDBRANCH  28  29
ENDBRANCH  27  28
ENDBRANCH  22  27
ENDBRANCH  20  22
ENDBRANCH   3  18
TORSDOF 8
ENDMDL
