MODEL 1
REMARK VINA RESULT:      -5.8      0.000      0.000
REMARK  Name = 
REMARK  6 active torsions:
REMARK  status: ('A' for Active; 'I' for Inactive)
REMARK    1  A    between atoms: C_1  and  N_2
REMARK    2  A    between atoms: N_2  and  C_3
REMARK    3  A    between atoms: N_2  and  C_8
REMARK    4  A    between atoms: C_3  and  C_4
REMARK    5  A    between atoms: C_4  and  C_5
REMARK    6  A    between atoms: C_8  and  C_9
REMARK                            x       y       z     vdW  Elec       q    Type
REMARK                         _______ _______ _______ _____ _____    ______ ____
ROOT
ATOM      1  C   UNL     1       5.429   5.194  15.868  0.00  0.00    +0.000 C 
ATOM      2  N   UNL     1       5.302   5.849  17.184  0.00  0.00    +0.000 NA
ENDROOT
BRANCH   2   3
ATOM      3  C   UNL     1       6.230   7.010  17.238  0.00  0.00    +0.000 C 
BRANCH   3   4
ATOM      4  C   UNL     1       7.578   6.734  17.934  0.00  0.00    +0.000 C 
BRANCH   4   5
ATOM      5  C   UNL     1       7.521   5.474  18.770  0.00  0.00    +0.000 C 
ATOM      6  N   UNL     1       7.860   4.323  18.131  0.00  0.00    +0.000 N 
ATOM      7  O   UNL     1       7.168   5.445  19.946  0.00  0.00    +0.000 OA
ATOM      8  H   UNL     1       8.317   4.289  17.234  0.00  0.00    +0.000 HD
ATOM      9  H   UNL     1       7.852   3.473  18.690  0.00  0.00    +0.000 HD
ENDBRANCH   4   5
ENDBRANCH   3   4
ENDBRANCH   2   3
BRANCH   2  10
ATOM     10  C   UNL     1       3.902   6.278  17.393  0.00  0.00    +0.000 C 
BRANCH  10  11
ATOM     11  C   UNL     1       3.096   5.273  18.173  0.00  0.00    +0.000 A 
ATOM     12  C   UNL     1       1.984   4.552  17.767  0.00  0.00    +0.000 A 
ATOM     13  C   UNL     1       1.457   3.737  18.812  0.00  0.00    +0.000 A 
ATOM     14  C   UNL     1       2.204   3.855  19.955  0.00  0.00    +0.000 A 
ATOM     15 CL   UNL     1       1.926   3.058  21.451  0.00  0.00    +0.000 Cl
ATOM     16  S   UNL     1       3.514   4.910  19.800  0.00  0.00    +0.000 S 
ENDBRANCH  10  11
ENDBRANCH   2  10
TORSDOF 5
ENDMDL
MODEL 2
REMARK VINA RESULT:      -5.3      3.687      5.545
REMARK  Name = 
REMARK  6 active torsions:
REMARK  status: ('A' for Active; 'I' for Inactive)
REMARK    1  A    between atoms: C_1  and  N_2
REMARK    2  A    between atoms: N_2  and  C_3
REMARK    3  A    between atoms: N_2  and  C_8
REMARK    4  A    between atoms: C_3  and  C_4
REMARK    5  A    between atoms: C_4  and  C_5
REMARK    6  A    between atoms: C_8  and  C_9
REMARK                            x       y       z     vdW  Elec       q    Type
REMARK                         _______ _______ _______ _____ _____    ______ ____
ROOT
ATOM      1  C   UNL     1       4.451   2.634  20.167  0.00  0.00    +0.000 C 
ATOM      2  N   UNL     1       3.583   3.697  19.624  0.00  0.00    +0.000 NA
ENDROOT
BRANCH   2   3
ATOM      3  C   UNL     1       2.443   3.912  20.555  0.00  0.00    +0.000 C 
BRANCH   3   4
ATOM      4  C   UNL     1       1.047   3.715  19.931  0.00  0.00    +0.000 C 
BRANCH   4   5
ATOM      5  C   UNL     1       1.140   3.124  18.541  0.00  0.00    +0.000 C 
ATOM      6  N   UNL     1       1.339   1.781  18.481  0.00  0.00    +0.000 N 
ATOM      7  O   UNL     1       1.076   3.786  17.509  0.00  0.00    +0.000 OA
ATOM      8  H   UNL     1       1.231   1.159  19.266  0.00  0.00    +0.000 HD
ATOM      9  H   UNL     1       1.376   1.369  17.552  0.00  0.00    +0.000 HD
ENDBRANCH   4   5
ENDBRANCH   3   4
ENDBRANCH   2   3
BRANCH   2  10
ATOM     10  C   UNL     1       4.367   4.939  19.449  0.00  0.00    +0.000 C 
BRANCH  10  11
ATOM     11  C   UNL     1       4.736   5.196  18.011  0.00  0.00    +0.000 A 
ATOM     12  C   UNL     1       4.984   6.406  17.383  0.00  0.00    +0.000 A 
ATOM     13  C   UNL     1       5.246   6.248  15.990  0.00  0.00    +0.000 A 
ATOM     14  C   UNL     1       5.211   4.927  15.627  0.00  0.00    +0.000 A 
ATOM     15 CL   UNL     1       5.466   4.286  14.054  0.00  0.00    +0.000 Cl
ATOM     16  S   UNL     1       4.877   3.881  16.912  0.00  0.00    +0.000 S 
ENDBRANCH  10  11
ENDBRANCH   2  10
TORSDOF 5
ENDMDL
MODEL 3
REMARK VINA RESULT:      -5.3      3.655      5.359
REMARK  Name = 
REMARK  6 active torsions:
REMARK  status: ('A' for Active; 'I' for Inactive)
REMARK    1  A    between atoms: C_1  and  N_2
REMARK    2  A    between atoms: N_2  and  C_3
REMARK    3  A    between atoms: N_2  and  C_8
REMARK    4  A    between atoms: C_3  and  C_4
REMARK    5  A    between atoms: C_4  and  C_5
REMARK    6  A    between atoms: C_8  and  C_9
REMARK                            x       y       z     vdW  Elec       q    Type
REMARK                         _______ _______ _______ _____ _____    ______ ____
ROOT
ATOM      1  C   UNL     1       2.427   2.239  17.742  0.00  0.00    +0.000 C 
ATOM      2  N   UNL     1       2.815   3.655  17.901  0.00  0.00    +0.000 NA
ENDROOT
BRANCH   2   3
ATOM      3  C   UNL     1       1.886   4.304  18.864  0.00  0.00    +0.000 C 
BRANCH   3   4
ATOM      4  C   UNL     1       2.450   4.491  20.287  0.00  0.00    +0.000 C 
BRANCH   4   5
ATOM      5  C   UNL     1       1.893   3.459  21.244  0.00  0.00    +0.000 C 
ATOM      6  N   UNL     1       0.700   2.912  20.894  0.00  0.00    +0.000 N 
ATOM      7  O   UNL     1       2.439   3.132  22.294  0.00  0.00    +0.000 OA
ATOM      8  H   UNL     1       0.283   3.001  19.981  0.00  0.00    +0.000 HD
ATOM      9  H   UNL     1       0.328   2.197  21.516  0.00  0.00    +0.000 HD
ENDBRANCH   4   5
ENDBRANCH   3   4
ENDBRANCH   2   3
BRANCH   2  10
ATOM     10  C   UNL     1       4.214   3.738  18.372  0.00  0.00    +0.000 C 
BRANCH  10  11
ATOM     11  C   UNL     1       4.935   4.949  17.843  0.00  0.00    +0.000 A 
ATOM     12  C   UNL     1       4.666   5.689  16.702  0.00  0.00    +0.000 A 
ATOM     13  C   UNL     1       5.613   6.737  16.501  0.00  0.00    +0.000 A 
ATOM     14  C   UNL     1       6.542   6.762  17.507  0.00  0.00    +0.000 A 
ATOM     15 CL   UNL     1       7.859   7.853  17.661  0.00  0.00    +0.000 Cl
ATOM     16  S   UNL     1       6.302   5.571  18.680  0.00  0.00    +0.000 S 
ENDBRANCH  10  11
ENDBRANCH   2  10
TORSDOF 5
ENDMDL
MODEL 4
REMARK VINA RESULT:      -5.3      2.200      3.073
REMARK  Name = 
REMARK  6 active torsions:
REMARK  status: ('A' for Active; 'I' for Inactive)
REMARK    1  A    between atoms: C_1  and  N_2
REMARK    2  A    between atoms: N_2  and  C_3
REMARK    3  A    between atoms: N_2  and  C_8
REMARK    4  A    between atoms: C_3  and  C_4
REMARK    5  A    between atoms: C_4  and  C_5
REMARK    6  A    between atoms: C_8  and  C_9
REMARK                            x       y       z     vdW  Elec       q    Type
REMARK                         _______ _______ _______ _____ _____    ______ ____
ROOT
ATOM      1  C   UNL     1       7.693   6.355  18.675  0.00  0.00    +0.000 C 
ATOM      2  N   UNL     1       6.618   5.532  18.088  0.00  0.00    +0.000 NA
ENDROOT
BRANCH   2   3
ATOM      3  C   UNL     1       7.221   4.546  17.152  0.00  0.00    +0.000 C 
BRANCH   3   4
ATOM      4  C   UNL     1       7.247   4.984  15.673  0.00  0.00    +0.000 C 
BRANCH   4   5
ATOM      5  C   UNL     1       5.850   5.231  15.145  0.00  0.00    +0.000 C 
ATOM      6  N   UNL     1       5.393   6.506  15.255  0.00  0.00    +0.000 N 
ATOM      7  O   UNL     1       5.132   4.356  14.668  0.00  0.00    +0.000 OA
ATOM      8  H   UNL     1       5.976   7.298  15.472  0.00  0.00    +0.000 HD
ATOM      9  H   UNL     1       4.466   6.690  14.878  0.00  0.00    +0.000 HD
ENDBRANCH   4   5
ENDBRANCH   3   4
ENDBRANCH   2   3
BRANCH   2  10
ATOM     10  C   UNL     1       5.868   4.851  19.165  0.00  0.00    +0.000 C 
BRANCH  10  11
ATOM     11  C   UNL     1       4.452   4.521  18.770  0.00  0.00    +0.000 A 
ATOM     12  C   UNL     1       3.590   5.238  17.956  0.00  0.00    +0.000 A 
ATOM     13  C   UNL     1       2.303   4.630  17.863  0.00  0.00    +0.000 A 
ATOM     14  C   UNL     1       2.252   3.468  18.589  0.00  0.00    +0.000 A 
ATOM     15 CL   UNL     1       0.901   2.421  18.758  0.00  0.00    +0.000 Cl
ATOM     16  S   UNL     1       3.704   3.093  19.367  0.00  0.00    +0.000 S 
ENDBRANCH  10  11
ENDBRANCH   2  10
TORSDOF 5
ENDMDL
MODEL 5
REMARK VINA RESULT:      -5.3      1.657      1.909
REMARK  Name = 
REMARK  6 active torsions:
REMARK  status: ('A' for Active; 'I' for Inactive)
REMARK    1  A    between atoms: C_1  and  N_2
REMARK    2  A    between atoms: N_2  and  C_3
REMARK    3  A    between atoms: N_2  and  C_8
REMARK    4  A    between atoms: C_3  and  C_4
REMARK    5  A    between atoms: C_4  and  C_5
REMARK    6  A    between atoms: C_8  and  C_9
REMARK                            x       y       z     vdW  Elec       q    Type
REMARK                         _______ _______ _______ _____ _____    ______ ____
ROOT
ATOM      1  C   UNL     1       5.052   3.989  16.322  0.00  0.00    +0.000 C 
ATOM      2  N   UNL     1       5.425   4.344  17.706  0.00  0.00    +0.000 NA
ENDROOT
BRANCH   2   3
ATOM      3  C   UNL     1       6.872   4.684  17.744  0.00  0.00    +0.000 C 
BRANCH   3   4
ATOM      4  C   UNL     1       7.252   5.806  18.732  0.00  0.00    +0.000 C 
BRANCH   4   5
ATOM      5  C   UNL     1       7.817   7.011  18.011  0.00  0.00    +0.000 C 
ATOM      6  N   UNL     1       7.662   7.019  16.661  0.00  0.00    +0.000 N 
ATOM      7  O   UNL     1       8.411   7.928  18.570  0.00  0.00    +0.000 OA
ATOM      8  H   UNL     1       7.046   6.399  16.159  0.00  0.00    +0.000 HD
ATOM      9  H   UNL     1       8.013   7.837  16.169  0.00  0.00    +0.000 HD
ENDBRANCH   4   5
ENDBRANCH   3   4
ENDBRANCH   2   3
BRANCH   2  10
ATOM     10  C   UNL     1       4.599   5.481  18.167  0.00  0.00    +0.000 C 
BRANCH  10  11
ATOM     11  C   UNL     1       3.531   5.066  19.145  0.00  0.00    +0.000 A 
ATOM     12  C   UNL     1       2.508   5.827  19.686  0.00  0.00    +0.000 A 
ATOM     13  C   UNL     1       1.727   5.093  20.628  0.00  0.00    +0.000 A 
ATOM     14  C   UNL     1       2.175   3.803  20.742  0.00  0.00    +0.000 A 
ATOM     15 CL   UNL     1       1.532   2.578  21.759  0.00  0.00    +0.000 Cl
ATOM     16  S   UNL     1       3.497   3.456  19.748  0.00  0.00    +0.000 S 
ENDBRANCH  10  11
ENDBRANCH   2  10
TORSDOF 5
ENDMDL
MODEL 6
REMARK VINA RESULT:      -5.3      2.482      3.147
REMARK  Name = 
REMARK  6 active torsions:
REMARK  status: ('A' for Active; 'I' for Inactive)
REMARK    1  A    between atoms: C_1  and  N_2
REMARK    2  A    between atoms: N_2  and  C_3
REMARK    3  A    between atoms: N_2  and  C_8
REMARK    4  A    between atoms: C_3  and  C_4
REMARK    5  A    between atoms: C_4  and  C_5
REMARK    6  A    between atoms: C_8  and  C_9
REMARK                            x       y       z     vdW  Elec       q    Type
REMARK                         _______ _______ _______ _____ _____    ______ ____
ROOT
ATOM      1  C   UNL     1       6.659   6.924  17.446  0.00  0.00    +0.000 C 
ATOM      2  N   UNL     1       5.930   5.642  17.508  0.00  0.00    +0.000 NA
ENDROOT
BRANCH   2   3
ATOM      3  C   UNL     1       6.766   4.581  16.885  0.00  0.00    +0.000 C 
BRANCH   3   4
ATOM      4  C   UNL     1       6.124   3.872  15.676  0.00  0.00    +0.000 C 
BRANCH   4   5
ATOM      5  C   UNL     1       6.729   4.344  14.372  0.00  0.00    +0.000 C 
ATOM      6  N   UNL     1       6.399   3.620  13.270  0.00  0.00    +0.000 N 
ATOM      7  O   UNL     1       7.498   5.296  14.277  0.00  0.00    +0.000 OA
ATOM      8  H   UNL     1       5.653   2.943  13.241  0.00  0.00    +0.000 HD
ATOM      9  H   UNL     1       6.778   3.944  12.383  0.00  0.00    +0.000 HD
ENDBRANCH   4   5
ENDBRANCH   3   4
ENDBRANCH   2   3
BRANCH   2  10
ATOM     10  C   UNL     1       5.618   5.314  18.915  0.00  0.00    +0.000 C 
BRANCH  10  11
ATOM     11  C   UNL     1       4.173   4.940  19.119  0.00  0.00    +0.000 A 
ATOM     12  C   UNL     1       3.174   5.657  19.758  0.00  0.00    +0.000 A 
ATOM     13  C   UNL     1       1.939   4.943  19.801  0.00  0.00    +0.000 A 
ATOM     14  C   UNL     1       2.048   3.730  19.173  0.00  0.00    +0.000 A 
ATOM     15 CL   UNL     1       0.812   2.552  18.993  0.00  0.00    +0.000 Cl
ATOM     16  S   UNL     1       3.584   3.435  18.534  0.00  0.00    +0.000 S 
ENDBRANCH  10  11
ENDBRANCH   2  10
TORSDOF 5
ENDMDL
MODEL 7
REMARK VINA RESULT:      -5.2      3.774      5.675
REMARK  Name = 
REMARK  6 active torsions:
REMARK  status: ('A' for Active; 'I' for Inactive)
REMARK    1  A    between atoms: C_1  and  N_2
REMARK    2  A    between atoms: N_2  and  C_3
REMARK    3  A    between atoms: N_2  and  C_8
REMARK    4  A    between atoms: C_3  and  C_4
REMARK    5  A    between atoms: C_4  and  C_5
REMARK    6  A    between atoms: C_8  and  C_9
REMARK                            x       y       z     vdW  Elec       q    Type
REMARK                         _______ _______ _______ _____ _____    ______ ____
ROOT
ATOM      1  C   UNL     1       2.623   6.216  19.433  0.00  0.00    +0.000 C 
ATOM      2  N   UNL     1       3.043   4.827  19.159  0.00  0.00    +0.000 NA
ENDROOT
BRANCH   2   3
ATOM      3  C   UNL     1       1.832   3.970  19.054  0.00  0.00    +0.000 C 
BRANCH   3   4
ATOM      4  C   UNL     1       1.036   3.803  20.364  0.00  0.00    +0.000 C 
BRANCH   4   5
ATOM      5  C   UNL     1       1.773   2.922  21.351  0.00  0.00    +0.000 C 
ATOM      6  N   UNL     1       3.043   2.583  21.008  0.00  0.00    +0.000 N 
ATOM      7  O   UNL     1       1.280   2.496  22.391  0.00  0.00    +0.000 OA
ATOM      8  H   UNL     1       3.566   3.027  20.269  0.00  0.00    +0.000 HD
ATOM      9  H   UNL     1       3.558   2.015  21.676  0.00  0.00    +0.000 HD
ENDBRANCH   4   5
ENDBRANCH   3   4
ENDBRANCH   2   3
BRANCH   2  10
ATOM     10  C   UNL     1       3.835   4.783  17.912  0.00  0.00    +0.000 C 
BRANCH  10  11
ATOM     11  C   UNL     1       5.192   5.419  18.062  0.00  0.00    +0.000 A 
ATOM     12  C   UNL     1       6.250   5.026  18.867  0.00  0.00    +0.000 A 
ATOM     13  C   UNL     1       7.357   5.921  18.781  0.00  0.00    +0.000 A 
ATOM     14  C   UNL     1       7.103   6.938  17.899  0.00  0.00    +0.000 A 
ATOM     15 CL   UNL     1       8.155   8.233  17.494  0.00  0.00    +0.000 Cl
ATOM     16  S   UNL     1       5.579   6.840  17.175  0.00  0.00    +0.000 S 
ENDBRANCH  10  11
ENDBRANCH   2  10
TORSDOF 5
ENDMDL
MODEL 8
REMARK VINA RESULT:      -5.2      2.294      2.747
REMARK  Name = 
REMARK  6 active torsions:
REMARK  status: ('A' for Active; 'I' for Inactive)
REMARK    1  A    between atoms: C_1  and  N_2
REMARK    2  A    between atoms: N_2  and  C_3
REMARK    3  A    between atoms: N_2  and  C_8
REMARK    4  A    between atoms: C_3  and  C_4
REMARK    5  A    between atoms: C_4  and  C_5
REMARK    6  A    between atoms: C_8  and  C_9
REMARK                            x       y       z     vdW  Elec       q    Type
REMARK                         _______ _______ _______ _____ _____    ______ ____
ROOT
ATOM      1  C   UNL     1       4.059   6.135  18.320  0.00  0.00    +0.000 C 
ATOM      2  N   UNL     1       4.393   5.402  17.083  0.00  0.00    +0.000 NA
ENDROOT
BRANCH   2   3
ATOM      3  C   UNL     1       5.789   5.732  16.688  0.00  0.00    +0.000 C 
BRANCH   3   4
ATOM      4  C   UNL     1       6.636   4.528  16.228  0.00  0.00    +0.000 C 
BRANCH   4   5
ATOM      5  C   UNL     1       6.942   4.600  14.748  0.00  0.00    +0.000 C 
ATOM      6  N   UNL     1       6.320   3.677  13.969  0.00  0.00    +0.000 N 
ATOM      7  O   UNL     1       7.720   5.407  14.246  0.00  0.00    +0.000 OA
ATOM      8  H   UNL     1       5.550   3.105  14.277  0.00  0.00    +0.000 HD
ATOM      9  H   UNL     1       6.496   3.733  12.969  0.00  0.00    +0.000 HD
ENDBRANCH   4   5
ENDBRANCH   3   4
ENDBRANCH   2   3
BRANCH   2  10
ATOM     10  C   UNL     1       4.232   3.950  17.306  0.00  0.00    +0.000 C 
BRANCH  10  11
ATOM     11  C   UNL     1       3.118   3.629  18.267  0.00  0.00    +0.000 A 
ATOM     12  C   UNL     1       1.751   3.773  18.088  0.00  0.00    +0.000 A 
ATOM     13  C   UNL     1       1.012   3.416  19.255  0.00  0.00    +0.000 A 
ATOM     14  C   UNL     1       1.846   2.993  20.257  0.00  0.00    +0.000 A 
ATOM     15 CL   UNL     1       1.384   2.474  21.828  0.00  0.00    +0.000 Cl
ATOM     16  S   UNL     1       3.480   3.011  19.830  0.00  0.00    +0.000 S 
ENDBRANCH  10  11
ENDBRANCH   2  10
TORSDOF 5
ENDMDL
MODEL 9
REMARK VINA RESULT:      -5.2      2.374      2.793
REMARK  Name = 
REMARK  6 active torsions:
REMARK  status: ('A' for Active; 'I' for Inactive)
REMARK    1  A    between atoms: C_1  and  N_2
REMARK    2  A    between atoms: N_2  and  C_3
REMARK    3  A    between atoms: N_2  and  C_8
REMARK    4  A    between atoms: C_3  and  C_4
REMARK    5  A    between atoms: C_4  and  C_5
REMARK    6  A    between atoms: C_8  and  C_9
REMARK                            x       y       z     vdW  Elec       q    Type
REMARK                         _______ _______ _______ _____ _____    ______ ____
ROOT
ATOM      1  C   UNL     1       5.962   5.324  18.501  0.00  0.00    +0.000 C 
ATOM      2  N   UNL     1       4.851   5.239  17.533  0.00  0.00    +0.000 NA
ENDROOT
BRANCH   2   3
ATOM      3  C   UNL     1       5.322   5.737  16.213  0.00  0.00    +0.000 C 
BRANCH   3   4
ATOM      4  C   UNL     1       6.814   5.486  15.917  0.00  0.00    +0.000 C 
BRANCH   4   5
ATOM      5  C   UNL     1       7.009   4.843  14.561  0.00  0.00    +0.000 C 
ATOM      6  N   UNL     1       7.864   5.482  13.720  0.00  0.00    +0.000 N 
ATOM      7  O   UNL     1       6.426   3.827  14.193  0.00  0.00    +0.000 OA
ATOM      8  H   UNL     1       8.499   6.211  14.006  0.00  0.00    +0.000 HD
ATOM      9  H   UNL     1       8.024   5.045  12.816  0.00  0.00    +0.000 HD
ENDBRANCH   4   5
ENDBRANCH   3   4
ENDBRANCH   2   3
BRANCH   2  10
ATOM     10  C   UNL     1       4.381   3.840  17.436  0.00  0.00    +0.000 C 
BRANCH  10  11
ATOM     11  C   UNL     1       3.213   3.555  18.344  0.00  0.00    +0.000 A 
ATOM     12  C   UNL     1       1.860   3.717  18.092  0.00  0.00    +0.000 A 
ATOM     13  C   UNL     1       1.056   3.393  19.225  0.00  0.00    +0.000 A 
ATOM     14  C   UNL     1       1.830   2.977  20.276  0.00  0.00    +0.000 A 
ATOM     15 CL   UNL     1       1.279   2.494  21.829  0.00  0.00    +0.000 Cl
ATOM     16  S   UNL     1       3.485   2.961  19.934  0.00  0.00    +0.000 S 
ENDBRANCH  10  11
ENDBRANCH   2  10
TORSDOF 5
ENDMDL
