MODEL 1
REMARK VINA RESULT:      -8.0      0.000      0.000
REMARK  Name = 
REMARK  4 active torsions:
REMARK  status: ('A' for Active; 'I' for Inactive)
REMARK    1  A    between atoms: C_1  and  C_2
REMARK    2  A    between atoms: N_3  and  C_4
REMARK    3  A    between atoms: C_15  and  C_16
REMARK    4  A    between atoms: C_15  and  C_17
REMARK                            x       y       z     vdW  Elec       q    Type
REMARK                         _______ _______ _______ _____ _____    ______ ____
ROOT
ATOM      1  C   UNL     1       0.979   3.377  20.196  0.00  0.00    +0.000 C 
ATOM      2  C   UNL     1       2.137   4.171  19.714  0.00  0.00    +0.000 C 
ATOM      3  N   UNL     1       2.085   5.472  19.723  0.00  0.00    +0.000 N 
ATOM      4  C   UNL     1       1.694   6.308  20.877  0.00  0.00    +0.000 C 
ATOM      5  C   UNL     1       3.098   5.959  18.883  0.00  0.00    +0.000 A 
ATOM      6  C   UNL     1       3.084   6.973  17.961  0.00  0.00    +0.000 A 
ATOM      7  C   UNL     1       4.220   7.087  17.136  0.00  0.00    +0.000 A 
ATOM      8  C   UNL     1       5.399   6.451  17.534  0.00  0.00    +0.000 A 
ATOM      9  C   UNL     1       6.637   6.977  17.160  0.00  0.00    +0.000 A 
ATOM     10  C   UNL     1       7.734   6.764  17.998  0.00  0.00    +0.000 A 
ATOM     11  C   UNL     1       7.601   5.970  19.135  0.00  0.00    +0.000 A 
ATOM     12  C   UNL     1       6.425   5.241  19.339  0.00  0.00    +0.000 A 
ATOM     13  C   UNL     1       5.322   5.445  18.484  0.00  0.00    +0.000 A 
ATOM     14  C   UNL     1       4.043   4.975  18.754  0.00  0.00    +0.000 A 
ATOM     15  C   UNL     1       3.258   3.700  18.763  0.00  0.00    +0.000 C 
ATOM     16  C   UNL     1       4.039   2.433  19.066  0.00  0.00    +0.000 C 
ATOM     17  C   UNL     1       2.499   3.494  17.406  0.00  0.00    +0.000 C 
ENDROOT
TORSDOF 0
ENDMDL
MODEL 2
REMARK VINA RESULT:      -7.3      0.966      1.006
REMARK  Name = 
REMARK  4 active torsions:
REMARK  status: ('A' for Active; 'I' for Inactive)
REMARK    1  A    between atoms: C_1  and  C_2
REMARK    2  A    between atoms: N_3  and  C_4
REMARK    3  A    between atoms: C_15  and  C_16
REMARK    4  A    between atoms: C_15  and  C_17
REMARK                            x       y       z     vdW  Elec       q    Type
REMARK                         _______ _______ _______ _____ _____    ______ ____
ROOT
ATOM      1  C   UNL     1       1.599   2.716  21.238  0.00  0.00    +0.000 C 
ATOM      2  C   UNL     1       2.575   3.522  20.463  0.00  0.00    +0.000 C 
ATOM      3  N   UNL     1       2.268   4.730  20.084  0.00  0.00    +0.000 N 
ATOM      4  C   UNL     1       1.731   5.794  20.958  0.00  0.00    +0.000 C 
ATOM      5  C   UNL     1       3.160   5.113  19.070  0.00  0.00    +0.000 A 
ATOM      6  C   UNL     1       2.940   5.774  17.890  0.00  0.00    +0.000 A 
ATOM      7  C   UNL     1       4.024   5.836  16.993  0.00  0.00    +0.000 A 
ATOM      8  C   UNL     1       5.309   5.582  17.483  0.00  0.00    +0.000 A 
ATOM      9  C   UNL     1       6.416   6.185  16.885  0.00  0.00    +0.000 A 
ATOM     10  C   UNL     1       7.540   6.446  17.671  0.00  0.00    +0.000 A 
ATOM     11  C   UNL     1       7.575   6.030  19.001  0.00  0.00    +0.000 A 
ATOM     12  C   UNL     1       6.566   5.196  19.493  0.00  0.00    +0.000 A 
ATOM     13  C   UNL     1       5.438   4.920  18.694  0.00  0.00    +0.000 A 
ATOM     14  C   UNL     1       4.278   4.328  19.178  0.00  0.00    +0.000 A 
ATOM     15  C   UNL     1       3.759   2.996  19.623  0.00  0.00    +0.000 C 
ATOM     16  C   UNL     1       4.776   2.051  20.238  0.00  0.00    +0.000 C 
ATOM     17  C   UNL     1       3.044   2.247  18.445  0.00  0.00    +0.000 C 
ENDROOT
TORSDOF 0
ENDMDL
MODEL 3
REMARK VINA RESULT:      -7.3      1.852      3.008
REMARK  Name = 
REMARK  4 active torsions:
REMARK  status: ('A' for Active; 'I' for Inactive)
REMARK    1  A    between atoms: C_1  and  C_2
REMARK    2  A    between atoms: N_3  and  C_4
REMARK    3  A    between atoms: C_15  and  C_16
REMARK    4  A    between atoms: C_15  and  C_17
REMARK                            x       y       z     vdW  Elec       q    Type
REMARK                         _______ _______ _______ _____ _____    ______ ____
ROOT
ATOM      1  C   UNL     1       1.610   3.330  20.572  0.00  0.00    +0.000 C 
ATOM      2  C   UNL     1       2.718   3.673  19.646  0.00  0.00    +0.000 C 
ATOM      3  N   UNL     1       3.953   3.447  19.994  0.00  0.00    +0.000 N 
ATOM      4  C   UNL     1       4.476   2.168  20.518  0.00  0.00    +0.000 C 
ATOM      5  C   UNL     1       4.791   4.195  19.153  0.00  0.00    +0.000 A 
ATOM      6  C   UNL     1       5.911   4.933  19.435  0.00  0.00    +0.000 A 
ATOM      7  C   UNL     1       6.418   5.728  18.390  0.00  0.00    +0.000 A 
ATOM      8  C   UNL     1       6.017   5.445  17.081  0.00  0.00    +0.000 A 
ATOM      9  C   UNL     1       6.868   5.727  16.013  0.00  0.00    +0.000 A 
ATOM     10  C   UNL     1       6.782   4.939  14.863  0.00  0.00    +0.000 A 
ATOM     11  C   UNL     1       5.804   3.951  14.765  0.00  0.00    +0.000 A 
ATOM     12  C   UNL     1       4.800   3.870  15.735  0.00  0.00    +0.000 A 
ATOM     13  C   UNL     1       4.879   4.677  16.888  0.00  0.00    +0.000 A 
ATOM     14  C   UNL     1       4.087   4.488  18.015  0.00  0.00    +0.000 A 
ATOM     15  C   UNL     1       2.681   4.692  18.486  0.00  0.00    +0.000 C 
ATOM     16  C   UNL     1       1.598   4.607  17.425  0.00  0.00    +0.000 C 
ATOM     17  C   UNL     1       2.529   6.063  19.233  0.00  0.00    +0.000 C 
ENDROOT
TORSDOF 0
ENDMDL
MODEL 4
REMARK VINA RESULT:      -7.0      1.493      5.045
REMARK  Name = 
REMARK  4 active torsions:
REMARK  status: ('A' for Active; 'I' for Inactive)
REMARK    1  A    between atoms: C_1  and  C_2
REMARK    2  A    between atoms: N_3  and  C_4
REMARK    3  A    between atoms: C_15  and  C_16
REMARK    4  A    between atoms: C_15  and  C_17
REMARK                            x       y       z     vdW  Elec       q    Type
REMARK                         _______ _______ _______ _____ _____    ______ ____
ROOT
ATOM      1  C   UNL     1       7.272   7.558  17.347  0.00  0.00    +0.000 C 
ATOM      2  C   UNL     1       6.195   6.679  17.867  0.00  0.00    +0.000 C 
ATOM      3  N   UNL     1       6.496   5.598  18.528  0.00  0.00    +0.000 N 
ATOM      4  C   UNL     1       7.429   5.523  19.672  0.00  0.00    +0.000 C 
ATOM      5  C   UNL     1       5.362   4.772  18.560  0.00  0.00    +0.000 A 
ATOM      6  C   UNL     1       5.239   3.418  18.388  0.00  0.00    +0.000 A 
ATOM      7  C   UNL     1       3.928   2.915  18.288  0.00  0.00    +0.000 A 
ATOM      8  C   UNL     1       2.871   3.714  18.735  0.00  0.00    +0.000 A 
ATOM      9  C   UNL     1       1.708   3.121  19.229  0.00  0.00    +0.000 A 
ATOM     10  C   UNL     1       0.967   3.807  20.194  0.00  0.00    +0.000 A 
ATOM     11  C   UNL     1       1.344   5.091  20.583  0.00  0.00    +0.000 A 
ATOM     12  C   UNL     1       2.351   5.761  19.881  0.00  0.00    +0.000 A 
ATOM     13  C   UNL     1       3.090   5.073  18.896  0.00  0.00    +0.000 A 
ATOM     14  C   UNL     1       4.264   5.560  18.335  0.00  0.00    +0.000 A 
ATOM     15  C   UNL     1       4.738   6.594  17.362  0.00  0.00    +0.000 C 
ATOM     16  C   UNL     1       3.890   7.848  17.249  0.00  0.00    +0.000 C 
ATOM     17  C   UNL     1       4.904   5.984  15.927  0.00  0.00    +0.000 C 
ENDROOT
TORSDOF 0
ENDMDL
MODEL 5
REMARK VINA RESULT:      -6.5      1.389      4.886
REMARK  Name = 
REMARK  4 active torsions:
REMARK  status: ('A' for Active; 'I' for Inactive)
REMARK    1  A    between atoms: C_1  and  C_2
REMARK    2  A    between atoms: N_3  and  C_4
REMARK    3  A    between atoms: C_15  and  C_16
REMARK    4  A    between atoms: C_15  and  C_17
REMARK                            x       y       z     vdW  Elec       q    Type
REMARK                         _______ _______ _______ _____ _____    ______ ____
ROOT
ATOM      1  C   UNL     1       5.503   7.408  16.699  0.00  0.00    +0.000 C 
ATOM      2  C   UNL     1       4.519   6.574  17.433  0.00  0.00    +0.000 C 
ATOM      3  N   UNL     1       3.520   7.136  18.051  0.00  0.00    +0.000 N 
ATOM      4  C   UNL     1       2.592   8.124  17.463  0.00  0.00    +0.000 C 
ATOM      5  C   UNL     1       2.988   6.209  18.961  0.00  0.00    +0.000 A 
ATOM      6  C   UNL     1       2.565   6.369  20.254  0.00  0.00    +0.000 A 
ATOM      7  C   UNL     1       2.261   5.192  20.965  0.00  0.00    +0.000 A 
ATOM      8  C   UNL     1       2.040   4.015  20.244  0.00  0.00    +0.000 A 
ATOM      9  C   UNL     1       1.187   3.035  20.751  0.00  0.00    +0.000 A 
ATOM     10  C   UNL     1       0.498   2.217  19.851  0.00  0.00    +0.000 A 
ATOM     11  C   UNL     1       0.733   2.332  18.482  0.00  0.00    +0.000 A 
ATOM     12  C   UNL     1       1.785   3.132  18.023  0.00  0.00    +0.000 A 
ATOM     13  C   UNL     1       2.489   3.946  18.934  0.00  0.00    +0.000 A 
ATOM     14  C   UNL     1       3.361   4.956  18.548  0.00  0.00    +0.000 A 
ATOM     15  C   UNL     1       4.732   5.144  17.975  0.00  0.00    +0.000 C 
ATOM     16  C   UNL     1       5.233   4.043  17.058  0.00  0.00    +0.000 C 
ATOM     17  C   UNL     1       5.793   5.358  19.110  0.00  0.00    +0.000 C 
ENDROOT
TORSDOF 0
ENDMDL
MODEL 6
REMARK VINA RESULT:      -6.3      1.934      2.191
REMARK  Name = 
REMARK  4 active torsions:
REMARK  status: ('A' for Active; 'I' for Inactive)
REMARK    1  A    between atoms: C_1  and  C_2
REMARK    2  A    between atoms: N_3  and  C_4
REMARK    3  A    between atoms: C_15  and  C_16
REMARK    4  A    between atoms: C_15  and  C_17
REMARK                            x       y       z     vdW  Elec       q    Type
REMARK                         _______ _______ _______ _____ _____    ______ ____
ROOT
ATOM      1  C   UNL     1       1.017   2.271  19.292  0.00  0.00    +0.000 C 
ATOM      2  C   UNL     1       2.266   2.951  18.868  0.00  0.00    +0.000 C 
ATOM      3  N   UNL     1       2.253   3.767  17.853  0.00  0.00    +0.000 N 
ATOM      4  C   UNL     1       1.304   4.884  17.662  0.00  0.00    +0.000 C 
ATOM      5  C   UNL     1       3.576   3.959  17.426  0.00  0.00    +0.000 A 
ATOM      6  C   UNL     1       4.108   4.007  16.164  0.00  0.00    +0.000 A 
ATOM      7  C   UNL     1       5.514   4.021  16.076  0.00  0.00    +0.000 A 
ATOM      8  C   UNL     1       6.249   4.364  17.215  0.00  0.00    +0.000 A 
ATOM      9  C   UNL     1       7.497   4.975  17.083  0.00  0.00    +0.000 A 
ATOM     10  C   UNL     1       7.928   5.838  18.093  0.00  0.00    +0.000 A 
ATOM     11  C   UNL     1       7.159   6.008  19.242  0.00  0.00    +0.000 A 
ATOM     12  C   UNL     1       6.052   5.183  19.465  0.00  0.00    +0.000 A 
ATOM     13  C   UNL     1       5.625   4.302  18.451  0.00  0.00    +0.000 A 
ATOM     14  C   UNL     1       4.403   3.641  18.470  0.00  0.00    +0.000 A 
ATOM     15  C   UNL     1       3.715   2.504  19.160  0.00  0.00    +0.000 C 
ATOM     16  C   UNL     1       4.157   2.215  20.584  0.00  0.00    +0.000 C 
ATOM     17  C   UNL     1       3.843   1.179  18.330  0.00  0.00    +0.000 C 
ENDROOT
TORSDOF 0
ENDMDL
MODEL 7
REMARK VINA RESULT:      -6.0      4.569      6.975
REMARK  Name = 
REMARK  4 active torsions:
REMARK  status: ('A' for Active; 'I' for Inactive)
REMARK    1  A    between atoms: C_1  and  C_2
REMARK    2  A    between atoms: N_3  and  C_4
REMARK    3  A    between atoms: C_15  and  C_16
REMARK    4  A    between atoms: C_15  and  C_17
REMARK                            x       y       z     vdW  Elec       q    Type
REMARK                         _______ _______ _______ _____ _____    ______ ____
ROOT
ATOM      1  C   UNL     1      -0.537  13.668  18.552  0.00  0.00    +0.000 C 
ATOM      2  C   UNL     1      -0.089  12.275  18.797  0.00  0.00    +0.000 C 
ATOM      3  N   UNL     1      -0.942  11.378  19.203  0.00  0.00    +0.000 N 
ATOM      4  C   UNL     1      -2.252  11.094  18.581  0.00  0.00    +0.000 C 
ATOM      5  C   UNL     1      -0.222  10.291  19.724  0.00  0.00    +0.000 A 
ATOM      6  C   UNL     1      -0.433   9.536  20.848  0.00  0.00    +0.000 A 
ATOM      7  C   UNL     1       0.589   8.632  21.198  0.00  0.00    +0.000 A 
ATOM      8  C   UNL     1       1.532   8.284  20.227  0.00  0.00    +0.000 A 
ATOM      9  C   UNL     1       2.147   7.032  20.268  0.00  0.00    +0.000 A 
ATOM     10  C   UNL     1       2.567   6.455  19.067  0.00  0.00    +0.000 A 
ATOM     11  C   UNL     1       2.446   7.162  17.872  0.00  0.00    +0.000 A 
ATOM     12  C   UNL     1       2.078   8.510  17.898  0.00  0.00    +0.000 A 
ATOM     13  C   UNL     1       1.668   9.097  19.113  0.00  0.00    +0.000 A 
ATOM     14  C   UNL     1       1.042  10.335  19.197  0.00  0.00    +0.000 A 
ATOM     15  C   UNL     1       1.350  11.796  19.086  0.00  0.00    +0.000 C 
ATOM     16  C   UNL     1       2.486  12.173  18.152  0.00  0.00    +0.000 C 
ATOM     17  C   UNL     1       1.647  12.418  20.495  0.00  0.00    +0.000 C 
ENDROOT
TORSDOF 0
ENDMDL
MODEL 8
REMARK VINA RESULT:      -5.9      1.832      4.990
REMARK  Name = 
REMARK  4 active torsions:
REMARK  status: ('A' for Active; 'I' for Inactive)
REMARK    1  A    between atoms: C_1  and  C_2
REMARK    2  A    between atoms: N_3  and  C_4
REMARK    3  A    between atoms: C_15  and  C_16
REMARK    4  A    between atoms: C_15  and  C_17
REMARK                            x       y       z     vdW  Elec       q    Type
REMARK                         _______ _______ _______ _____ _____    ______ ____
ROOT
ATOM      1  C   UNL     1       7.042   4.898  16.236  0.00  0.00    +0.000 C 
ATOM      2  C   UNL     1       5.847   4.506  17.025  0.00  0.00    +0.000 C 
ATOM      3  N   UNL     1       4.934   3.746  16.493  0.00  0.00    +0.000 N 
ATOM      4  C   UNL     1       5.182   2.466  15.796  0.00  0.00    +0.000 C 
ATOM      5  C   UNL     1       3.770   3.846  17.270  0.00  0.00    +0.000 A 
ATOM      6  C   UNL     1       2.455   3.958  16.899  0.00  0.00    +0.000 A 
ATOM      7  C   UNL     1       1.534   4.236  17.927  0.00  0.00    +0.000 A 
ATOM      8  C   UNL     1       1.924   4.007  19.250  0.00  0.00    +0.000 A 
ATOM      9  C   UNL     1       0.969   3.671  20.211  0.00  0.00    +0.000 A 
ATOM     10  C   UNL     1       1.360   2.876  21.291  0.00  0.00    +0.000 A 
ATOM     11  C   UNL     1       2.695   2.506  21.440  0.00  0.00    +0.000 A 
ATOM     12  C   UNL     1       3.669   3.077  20.615  0.00  0.00    +0.000 A 
ATOM     13  C   UNL     1       3.276   3.891  19.533  0.00  0.00    +0.000 A 
ATOM     14  C   UNL     1       4.135   4.286  18.515  0.00  0.00    +0.000 A 
ATOM     15  C   UNL     1       5.269   5.230  18.261  0.00  0.00    +0.000 C 
ATOM     16  C   UNL     1       6.159   5.546  19.450  0.00  0.00    +0.000 C 
ATOM     17  C   UNL     1       4.754   6.584  17.661  0.00  0.00    +0.000 C 
ENDROOT
TORSDOF 0
ENDMDL
MODEL 9
REMARK VINA RESULT:      -5.8      1.466      2.989
REMARK  Name = 
REMARK  4 active torsions:
REMARK  status: ('A' for Active; 'I' for Inactive)
REMARK    1  A    between atoms: C_1  and  C_2
REMARK    2  A    between atoms: N_3  and  C_4
REMARK    3  A    between atoms: C_15  and  C_16
REMARK    4  A    between atoms: C_15  and  C_17
REMARK                            x       y       z     vdW  Elec       q    Type
REMARK                         _______ _______ _______ _____ _____    ______ ____
ROOT
ATOM      1  C   UNL     1       0.704   2.790  19.130  0.00  0.00    +0.000 C 
ATOM      2  C   UNL     1       2.007   3.399  18.763  0.00  0.00    +0.000 C 
ATOM      3  N   UNL     1       3.112   2.734  18.943  0.00  0.00    +0.000 N 
ATOM      4  C   UNL     1       3.365   1.351  18.489  0.00  0.00    +0.000 C 
ATOM      5  C   UNL     1       4.183   3.639  18.895  0.00  0.00    +0.000 A 
ATOM      6  C   UNL     1       5.303   3.740  19.678  0.00  0.00    +0.000 A 
ATOM      7  C   UNL     1       6.099   4.887  19.491  0.00  0.00    +0.000 A 
ATOM      8  C   UNL     1       5.935   5.628  18.317  0.00  0.00    +0.000 A 
ATOM      9  C   UNL     1       7.009   6.343  17.787  0.00  0.00    +0.000 A 
ATOM     10  C   UNL     1       7.060   6.545  16.405  0.00  0.00    +0.000 A 
ATOM     11  C   UNL     1       6.012   6.112  15.596  0.00  0.00    +0.000 A 
ATOM     12  C   UNL     1       4.832   5.641  16.182  0.00  0.00    +0.000 A 
ATOM     13  C   UNL     1       4.775   5.451  17.578  0.00  0.00    +0.000 A 
ATOM     14  C   UNL     1       3.759   4.753  18.218  0.00  0.00    +0.000 A 
ATOM     15  C   UNL     1       2.321   4.903  18.608  0.00  0.00    +0.000 C 
ATOM     16  C   UNL     1       1.469   5.776  17.705  0.00  0.00    +0.000 C 
ATOM     17  C   UNL     1       2.187   5.438  20.076  0.00  0.00    +0.000 C 
ENDROOT
TORSDOF 0
ENDMDL
