MODEL 1
REMARK VINA RESULT:      -7.5      0.000      0.000
REMARK  Name = 
REMARK  4 active torsions:
REMARK  status: ('A' for Active; 'I' for Inactive)
REMARK    1  A    between atoms: C_1  and  C_2
REMARK    2  A    between atoms: C_2  and  C_3
REMARK    3  A    between atoms: N_6  and  C_7
REMARK    4  A    between atoms: N_10  and  C_11
REMARK                            x       y       z     vdW  Elec       q    Type
REMARK                         _______ _______ _______ _____ _____    ______ ____
ROOT
ATOM      1  C   UNL     1       1.701  10.714  18.995  0.00  0.00    +0.000 C 
ATOM      2  C   UNL     1       2.155   9.830  17.827  0.00  0.00    +0.000 C 
ATOM      3  C   UNL     1       1.594   8.404  17.794  0.00  0.00    +0.000 C 
ATOM      4  N   UNL     1       1.429   7.742  19.092  0.00  0.00    +0.000 NA
ATOM      5  C   UNL     1       0.639   8.587  19.970  0.00  0.00    +0.000 C 
ATOM      6  C   UNL     1       1.288   9.944  20.241  0.00  0.00    +0.000 C 
ENDROOT
BRANCH   4   7
ATOM      7  C   UNL     1       2.572   6.960  19.613  0.00  0.00    +0.000 C 
ATOM      8  C   UNL     1       2.475   6.318  21.015  0.00  0.00    +0.000 C 
ATOM      9  C   UNL     1       1.915   4.882  21.091  0.00  0.00    +0.000 C 
ATOM     10  C   UNL     1       1.525   4.283  19.736  0.00  0.00    +0.000 C 
ATOM     11  C   UNL     1       1.039   2.836  19.823  0.00  0.00    +0.000 C 
ATOM     12  C   UNL     1       0.896   2.290  18.412  0.00  0.00    +0.000 C 
ATOM     13  C   UNL     1       2.281   2.254  17.751  0.00  0.00    +0.000 C 
ATOM     14  C   UNL     1       2.973   3.591  17.790  0.00  0.00    +0.000 A 
ATOM     15  C   UNL     1       4.014   3.881  16.906  0.00  0.00    +0.000 A 
ATOM     16  C   UNL     1       4.590   5.154  16.886  0.00  0.00    +0.000 A 
ATOM     17  C   UNL     1       4.118   6.163  17.729  0.00  0.00    +0.000 A 
ATOM     18  C   UNL     1       3.106   5.886  18.653  0.00  0.00    +0.000 A 
ATOM     19  C   UNL     1       2.588   4.571  18.715  0.00  0.00    +0.000 A 
ENDBRANCH   4   7
BRANCH   1  23
ATOM     20  C   UNL     1      -1.442  12.730  18.658  0.00  0.00    +0.000 C 
ATOM     21  C   UNL     1      -0.659  11.422  18.480  0.00  0.00    +0.000 C 
ATOM     22  O   UNL     1      -1.165  10.338  18.249  0.00  0.00    +0.000 OA
ATOM     23  N   UNL     1       0.690  11.714  18.690  0.00  0.00    +0.000 N 
ATOM     24  C   UNL     1       0.879  13.087  18.929  0.00  0.00    +0.000 A 
ATOM     25  C   UNL     1       2.050  13.787  19.177  0.00  0.00    +0.000 A 
ATOM     26  C   UNL     1       1.976  15.173  19.288  0.00  0.00    +0.000 A 
ATOM     27  C   UNL     1       0.745  15.839  19.156  0.00  0.00    +0.000 A 
ATOM     28  C   UNL     1      -0.435  15.118  18.954  0.00  0.00    +0.000 A 
ATOM     29  C   UNL     1      -0.349  13.737  18.860  0.00  0.00    +0.000 A 
BRANCH  20  31
ATOM     30  C   UNL     1      -1.855  12.365  21.207  0.00  0.00    +0.000 C 
ATOM     31  C   UNL     1      -2.449  12.612  19.820  0.00  0.00    +0.000 C 
ENDBRANCH  20  31
ENDBRANCH   1  23
TORSDOF 3
ENDMDL
MODEL 2
REMARK VINA RESULT:      -7.4      2.570      4.359
REMARK  Name = 
REMARK  4 active torsions:
REMARK  status: ('A' for Active; 'I' for Inactive)
REMARK    1  A    between atoms: C_1  and  C_2
REMARK    2  A    between atoms: C_2  and  C_3
REMARK    3  A    between atoms: N_6  and  C_7
REMARK    4  A    between atoms: N_10  and  C_11
REMARK                            x       y       z     vdW  Elec       q    Type
REMARK                         _______ _______ _______ _____ _____    ______ ____
ROOT
ATOM      1  C   UNL     1       2.603   7.801  19.639  0.00  0.00    +0.000 C 
ATOM      2  C   UNL     1       3.205   7.456  18.272  0.00  0.00    +0.000 C 
ATOM      3  C   UNL     1       2.649   6.208  17.579  0.00  0.00    +0.000 C 
ATOM      4  N   UNL     1       2.313   5.077  18.451  0.00  0.00    +0.000 NA
ATOM      5  C   UNL     1       1.415   5.526  19.501  0.00  0.00    +0.000 C 
ATOM      6  C   UNL     1       2.026   6.609  20.390  0.00  0.00    +0.000 C 
ENDROOT
BRANCH   4   7
ATOM      7  C   UNL     1       3.375   4.085  18.729  0.00  0.00    +0.000 C 
ATOM      8  C   UNL     1       3.303   2.691  18.067  0.00  0.00    +0.000 C 
ATOM      9  C   UNL     1       3.998   2.528  16.700  0.00  0.00    +0.000 C 
ATOM     10  C   UNL     1       4.677   3.799  16.179  0.00  0.00    +0.000 C 
ATOM     11  C   UNL     1       5.422   3.599  14.859  0.00  0.00    +0.000 C 
ATOM     12  C   UNL     1       6.226   4.854  14.565  0.00  0.00    +0.000 C 
ATOM     13  C   UNL     1       7.293   5.026  15.654  0.00  0.00    +0.000 C 
ATOM     14  C   UNL     1       6.707   5.023  17.041  0.00  0.00    +0.000 A 
ATOM     15  C   UNL     1       7.412   5.572  18.114  0.00  0.00    +0.000 A 
ATOM     16  C   UNL     1       6.826   5.648  19.380  0.00  0.00    +0.000 A 
ATOM     17  C   UNL     1       5.518   5.202  19.587  0.00  0.00    +0.000 A 
ATOM     18  C   UNL     1       4.807   4.609  18.539  0.00  0.00    +0.000 A 
ATOM     19  C   UNL     1       5.444   4.467  17.284  0.00  0.00    +0.000 A 
ENDBRANCH   4   7
BRANCH   1  23
ATOM     20  C   UNL     1      -0.182  10.218  18.961  0.00  0.00    +0.000 C 
ATOM     21  C   UNL     1       1.080   9.463  18.520  0.00  0.00    +0.000 C 
ATOM     22  O   UNL     1       1.457   9.360  17.366  0.00  0.00    +0.000 OA
ATOM     23  N   UNL     1       1.644   8.894  19.663  0.00  0.00    +0.000 N 
ATOM     24  C   UNL     1       0.916   9.245  20.815  0.00  0.00    +0.000 A 
ATOM     25  C   UNL     1       1.138   8.899  22.139  0.00  0.00    +0.000 A 
ATOM     26  C   UNL     1       0.317   9.463  23.112  0.00  0.00    +0.000 A 
ATOM     27  C   UNL     1      -0.710  10.355  22.755  0.00  0.00    +0.000 A 
ATOM     28  C   UNL     1      -0.954  10.658  21.413  0.00  0.00    +0.000 A 
ATOM     29  C   UNL     1      -0.139  10.077  20.454  0.00  0.00    +0.000 A 
BRANCH  20  31
ATOM     30  C   UNL     1      -1.966  10.391  17.066  0.00  0.00    +0.000 C 
ATOM     31  C   UNL     1      -1.436   9.631  18.283  0.00  0.00    +0.000 C 
ENDBRANCH  20  31
ENDBRANCH   1  23
TORSDOF 3
ENDMDL
MODEL 3
REMARK VINA RESULT:      -7.3      4.761     10.069
REMARK  Name = 
REMARK  4 active torsions:
REMARK  status: ('A' for Active; 'I' for Inactive)
REMARK    1  A    between atoms: C_1  and  C_2
REMARK    2  A    between atoms: C_2  and  C_3
REMARK    3  A    between atoms: N_6  and  C_7
REMARK    4  A    between atoms: N_10  and  C_11
REMARK                            x       y       z     vdW  Elec       q    Type
REMARK                         _______ _______ _______ _____ _____    ______ ____
ROOT
ATOM      1  C   UNL     1      -2.584  13.351  21.011  0.00  0.00    +0.000 C 
ATOM      2  C   UNL     1      -2.258  14.712  21.637  0.00  0.00    +0.000 C 
ATOM      3  C   UNL     1      -2.241  14.771  23.168  0.00  0.00    +0.000 C 
ATOM      4  N   UNL     1      -3.245  13.954  23.860  0.00  0.00    +0.000 NA
ATOM      5  C   UNL     1      -3.155  12.581  23.396  0.00  0.00    +0.000 C 
ATOM      6  C   UNL     1      -3.418  12.436  21.897  0.00  0.00    +0.000 C 
ENDROOT
BRANCH   4   7
ATOM      7  C   UNL     1      -4.555  14.577  24.148  0.00  0.00    +0.000 C 
ATOM      8  C   UNL     1      -4.728  16.101  23.963  0.00  0.00    +0.000 C 
ATOM      9  C   UNL     1      -5.198  16.589  22.577  0.00  0.00    +0.000 C 
ATOM     10  C   UNL     1      -5.431  15.471  21.557  0.00  0.00    +0.000 C 
ATOM     11  C   UNL     1      -5.965  15.968  20.213  0.00  0.00    +0.000 C 
ATOM     12  C   UNL     1      -6.360  14.763  19.377  0.00  0.00    +0.000 C 
ATOM     13  C   UNL     1      -7.519  14.035  20.071  0.00  0.00    +0.000 C 
ATOM     14  C   UNL     1      -7.200  13.673  21.498  0.00  0.00    +0.000 A 
ATOM     15  C   UNL     1      -7.914  12.670  22.156  0.00  0.00    +0.000 A 
ATOM     16  C   UNL     1      -7.554  12.276  23.447  0.00  0.00    +0.000 A 
ATOM     17  C   UNL     1      -6.458  12.858  24.089  0.00  0.00    +0.000 A 
ATOM     18  C   UNL     1      -5.753  13.894  23.469  0.00  0.00    +0.000 A 
ATOM     19  C   UNL     1      -6.180  14.336  22.194  0.00  0.00    +0.000 A 
ENDBRANCH   4   7
BRANCH   1  23
ATOM     20  C   UNL     1       0.470  11.239  20.489  0.00  0.00    +0.000 C 
ATOM     21  C   UNL     1      -0.244  12.431  21.142  0.00  0.00    +0.000 C 
ATOM     22  O   UNL     1       0.180  13.052  22.100  0.00  0.00    +0.000 OA
ATOM     23  N   UNL     1      -1.458  12.604  20.473  0.00  0.00    +0.000 N 
ATOM     24  C   UNL     1      -1.587  11.688  19.413  0.00  0.00    +0.000 A 
ATOM     25  C   UNL     1      -2.624  11.526  18.508  0.00  0.00    +0.000 A 
ATOM     26  C   UNL     1      -2.462  10.598  17.482  0.00  0.00    +0.000 A 
ATOM     27  C   UNL     1      -1.280   9.845  17.377  0.00  0.00    +0.000 A 
ATOM     28  C   UNL     1      -0.262   9.982  18.324  0.00  0.00    +0.000 A 
ATOM     29  C   UNL     1      -0.443  10.900  19.348  0.00  0.00    +0.000 A 
BRANCH  20  31
ATOM     30  C   UNL     1      -0.518   9.717  22.363  0.00  0.00    +0.000 C 
ATOM     31  C   UNL     1       0.692  10.106  21.512  0.00  0.00    +0.000 C 
ENDBRANCH  20  31
ENDBRANCH   1  23
TORSDOF 3
ENDMDL
MODEL 4
REMARK VINA RESULT:      -7.2      3.675      9.685
REMARK  Name = 
REMARK  4 active torsions:
REMARK  status: ('A' for Active; 'I' for Inactive)
REMARK    1  A    between atoms: C_1  and  C_2
REMARK    2  A    between atoms: C_2  and  C_3
REMARK    3  A    between atoms: N_6  and  C_7
REMARK    4  A    between atoms: N_10  and  C_11
REMARK                            x       y       z     vdW  Elec       q    Type
REMARK                         _______ _______ _______ _____ _____    ______ ____
ROOT
ATOM      1  C   UNL     1      -2.068  13.084  20.577  0.00  0.00    +0.000 C 
ATOM      2  C   UNL     1      -1.438  14.439  20.922  0.00  0.00    +0.000 C 
ATOM      3  C   UNL     1      -0.599  14.492  22.204  0.00  0.00    +0.000 C 
ATOM      4  N   UNL     1      -1.085  13.689  23.331  0.00  0.00    +0.000 NA
ATOM      5  C   UNL     1      -1.279  12.315  22.899  0.00  0.00    +0.000 C 
ATOM      6  C   UNL     1      -2.308  12.179  21.777  0.00  0.00    +0.000 C 
ENDROOT
BRANCH   4   7
ATOM      7  C   UNL     1      -2.026  14.330  24.275  0.00  0.00    +0.000 C 
ATOM      8  C   UNL     1      -2.039  15.870  24.405  0.00  0.00    +0.000 C 
ATOM      9  C   UNL     1      -2.998  16.643  23.475  0.00  0.00    +0.000 C 
ATOM     10  C   UNL     1      -3.819  15.756  22.534  0.00  0.00    +0.000 C 
ATOM     11  C   UNL     1      -4.814  16.534  21.672  0.00  0.00    +0.000 C 
ATOM     12  C   UNL     1      -5.710  15.540  20.954  0.00  0.00    +0.000 C 
ATOM     13  C   UNL     1      -6.533  14.771  21.996  0.00  0.00    +0.000 C 
ATOM     14  C   UNL     1      -5.671  14.123  23.048  0.00  0.00    +0.000 A 
ATOM     15  C   UNL     1      -6.158  13.063  23.815  0.00  0.00    +0.000 A 
ATOM     16  C   UNL     1      -5.324  12.407  24.724  0.00  0.00    +0.000 A 
ATOM     17  C   UNL     1      -3.986  12.783  24.862  0.00  0.00    +0.000 A 
ATOM     18  C   UNL     1      -3.486  13.869  24.137  0.00  0.00    +0.000 A 
ATOM     19  C   UNL     1      -4.364  14.573  23.279  0.00  0.00    +0.000 A 
ENDBRANCH   4   7
BRANCH   1  23
ATOM     20  C   UNL     1       0.137  10.849  18.528  0.00  0.00    +0.000 C 
ATOM     21  C   UNL     1      -0.056  12.019  19.503  0.00  0.00    +0.000 C 
ATOM     22  O   UNL     1       0.835  12.527  20.160  0.00  0.00    +0.000 OA
ATOM     23  N   UNL     1      -1.419  12.322  19.522  0.00  0.00    +0.000 N 
ATOM     24  C   UNL     1      -2.130  11.512  18.618  0.00  0.00    +0.000 A 
ATOM     25  C   UNL     1      -3.485  11.494  18.327  0.00  0.00    +0.000 A 
ATOM     26  C   UNL     1      -3.928  10.652  17.310  0.00  0.00    +0.000 A 
ATOM     27  C   UNL     1      -3.021   9.841  16.604  0.00  0.00    +0.000 A 
ATOM     28  C   UNL     1      -1.664   9.834  16.939  0.00  0.00    +0.000 A 
ATOM     29  C   UNL     1      -1.240  10.666  17.963  0.00  0.00    +0.000 A 
BRANCH  20  31
ATOM     30  C   UNL     1       1.790   8.832  18.504  0.00  0.00    +0.000 C 
ATOM     31  C   UNL     1       0.717   9.619  19.256  0.00  0.00    +0.000 C 
ENDBRANCH  20  31
ENDBRANCH   1  23
TORSDOF 3
ENDMDL
MODEL 5
REMARK VINA RESULT:      -7.2      2.236      8.684
REMARK  Name = 
REMARK  4 active torsions:
REMARK  status: ('A' for Active; 'I' for Inactive)
REMARK    1  A    between atoms: C_1  and  C_2
REMARK    2  A    between atoms: C_2  and  C_3
REMARK    3  A    between atoms: N_6  and  C_7
REMARK    4  A    between atoms: N_10  and  C_11
REMARK                            x       y       z     vdW  Elec       q    Type
REMARK                         _______ _______ _______ _____ _____    ______ ____
ROOT
ATOM      1  C   UNL     1       1.437   9.449  18.976  0.00  0.00    +0.000 C 
ATOM      2  C   UNL     1       1.275  10.521  20.059  0.00  0.00    +0.000 C 
ATOM      3  C   UNL     1      -0.137  10.714  20.621  0.00  0.00    +0.000 C 
ATOM      4  N   UNL     1      -1.240  10.578  19.663  0.00  0.00    +0.000 NA
ATOM      5  C   UNL     1      -1.129   9.305  18.974  0.00  0.00    +0.000 C 
ATOM      6  C   UNL     1       0.170   9.163  18.181  0.00  0.00    +0.000 C 
ENDROOT
BRANCH   4   7
ATOM      7  C   UNL     1      -1.681  11.796  18.947  0.00  0.00    +0.000 C 
ATOM      8  C   UNL     1      -2.094  11.694  17.461  0.00  0.00    +0.000 C 
ATOM      9  C   UNL     1      -3.581  11.409  17.166  0.00  0.00    +0.000 C 
ATOM     10  C   UNL     1      -4.458  11.264  18.413  0.00  0.00    +0.000 C 
ATOM     11  C   UNL     1      -5.939  11.054  18.100  0.00  0.00    +0.000 C 
ATOM     12  C   UNL     1      -6.724  11.146  19.397  0.00  0.00    +0.000 C 
ATOM     13  C   UNL     1      -6.587  12.567  19.961  0.00  0.00    +0.000 C 
ATOM     14  C   UNL     1      -5.150  12.988  20.119  0.00  0.00    +0.000 A 
ATOM     15  C   UNL     1      -4.804  14.032  20.979  0.00  0.00    +0.000 A 
ATOM     16  C   UNL     1      -3.462  14.358  21.191  0.00  0.00    +0.000 A 
ATOM     17  C   UNL     1      -2.445  13.629  20.569  0.00  0.00    +0.000 A 
ATOM     18  C   UNL     1      -2.767  12.607  19.670  0.00  0.00    +0.000 A 
ATOM     19  C   UNL     1      -4.132  12.343  19.406  0.00  0.00    +0.000 A 
ENDBRANCH   4   7
BRANCH   1  23
ATOM     20  C   UNL     1       2.133   6.014  20.310  0.00  0.00    +0.000 C 
ATOM     21  C   UNL     1       1.578   7.436  20.481  0.00  0.00    +0.000 C 
ATOM     22  O   UNL     1       0.837   7.786  21.382  0.00  0.00    +0.000 OA
ATOM     23  N   UNL     1       2.034   8.191  19.398  0.00  0.00    +0.000 N 
ATOM     24  C   UNL     1       2.876   7.429  18.568  0.00  0.00    +0.000 A 
ATOM     25  C   UNL     1       3.535   7.796  17.405  0.00  0.00    +0.000 A 
ATOM     26  C   UNL     1       4.395   6.872  16.818  0.00  0.00    +0.000 A 
ATOM     27  C   UNL     1       4.582   5.601  17.391  0.00  0.00    +0.000 A 
ATOM     28  C   UNL     1       3.876   5.227  18.537  0.00  0.00    +0.000 A 
ATOM     29  C   UNL     1       3.011   6.152  19.102  0.00  0.00    +0.000 A 
BRANCH  20  31
ATOM     30  C   UNL     1       1.220   3.625  20.821  0.00  0.00    +0.000 C 
ATOM     31  C   UNL     1       0.987   4.992  20.176  0.00  0.00    +0.000 C 
ENDBRANCH  20  31
ENDBRANCH   1  23
TORSDOF 3
ENDMDL
MODEL 6
REMARK VINA RESULT:      -7.1      2.174      8.490
REMARK  Name = 
REMARK  4 active torsions:
REMARK  status: ('A' for Active; 'I' for Inactive)
REMARK    1  A    between atoms: C_1  and  C_2
REMARK    2  A    between atoms: C_2  and  C_3
REMARK    3  A    between atoms: N_6  and  C_7
REMARK    4  A    between atoms: N_10  and  C_11
REMARK                            x       y       z     vdW  Elec       q    Type
REMARK                         _______ _______ _______ _____ _____    ______ ____
ROOT
ATOM      1  C   UNL     1       1.790   6.168  19.298  0.00  0.00    +0.000 C 
ATOM      2  C   UNL     1       1.662   7.435  18.444  0.00  0.00    +0.000 C 
ATOM      3  C   UNL     1       1.846   8.769  19.175  0.00  0.00    +0.000 C 
ATOM      4  N   UNL     1       1.311   8.841  20.539  0.00  0.00    +0.000 NA
ATOM      5  C   UNL     1       1.846   7.744  21.327  0.00  0.00    +0.000 C 
ATOM      6  C   UNL     1       1.472   6.369  20.773  0.00  0.00    +0.000 C 
ENDROOT
BRANCH   4   7
ATOM      7  C   UNL     1      -0.091   9.284  20.704  0.00  0.00    +0.000 C 
ATOM      8  C   UNL     1      -0.577   9.760  22.092  0.00  0.00    +0.000 C 
ATOM      9  C   UNL     1      -0.435  11.264  22.405  0.00  0.00    +0.000 C 
ATOM     10  C   UNL     1       0.181  12.092  21.274  0.00  0.00    +0.000 C 
ATOM     11  C   UNL     1       0.248  13.589  21.575  0.00  0.00    +0.000 C 
ATOM     12  C   UNL     1       0.666  14.317  20.310  0.00  0.00    +0.000 C 
ATOM     13  C   UNL     1      -0.423  14.128  19.245  0.00  0.00    +0.000 C 
ATOM     14  C   UNL     1      -0.744  12.677  19.002  0.00  0.00    +0.000 A 
ATOM     15  C   UNL     1      -1.370  12.273  17.820  0.00  0.00    +0.000 A 
ATOM     16  C   UNL     1      -1.583  10.917  17.560  0.00  0.00    +0.000 A 
ATOM     17  C   UNL     1      -1.150   9.943  18.463  0.00  0.00    +0.000 A 
ATOM     18  C   UNL     1      -0.560  10.322  19.673  0.00  0.00    +0.000 A 
ATOM     19  C   UNL     1      -0.424  11.702  19.956  0.00  0.00    +0.000 A 
ENDBRANCH   4   7
BRANCH   1  23
ATOM     20  C   UNL     1       4.473   3.554  19.111  0.00  0.00    +0.000 C 
ATOM     21  C   UNL     1       3.311   4.237  19.846  0.00  0.00    +0.000 C 
ATOM     22  O   UNL     1       2.728   3.768  20.807  0.00  0.00    +0.000 OA
ATOM     23  N   UNL     1       3.037   5.429  19.171  0.00  0.00    +0.000 N 
ATOM     24  C   UNL     1       3.935   5.626  18.107  0.00  0.00    +0.000 A 
ATOM     25  C   UNL     1       4.014   6.672  17.200  0.00  0.00    +0.000 A 
ATOM     26  C   UNL     1       5.068   6.676  16.291  0.00  0.00    +0.000 A 
ATOM     27  C   UNL     1       6.021   5.641  16.294  0.00  0.00    +0.000 A 
ATOM     28  C   UNL     1       5.904   4.568  17.181  0.00  0.00    +0.000 A 
ATOM     29  C   UNL     1       4.841   4.570  18.071  0.00  0.00    +0.000 A 
BRANCH  20  31
ATOM     30  C   UNL     1       2.747   2.153  17.747  0.00  0.00    +0.000 C 
ATOM     31  C   UNL     1       4.040   2.180  18.562  0.00  0.00    +0.000 C 
ENDBRANCH  20  31
ENDBRANCH   1  23
TORSDOF 3
ENDMDL
MODEL 7
REMARK VINA RESULT:      -7.1      4.170      6.809
REMARK  Name = 
REMARK  4 active torsions:
REMARK  status: ('A' for Active; 'I' for Inactive)
REMARK    1  A    between atoms: C_1  and  C_2
REMARK    2  A    between atoms: C_2  and  C_3
REMARK    3  A    between atoms: N_6  and  C_7
REMARK    4  A    between atoms: N_10  and  C_11
REMARK                            x       y       z     vdW  Elec       q    Type
REMARK                         _______ _______ _______ _____ _____    ______ ____
ROOT
ATOM      1  C   UNL     1       0.901  14.509  19.632  0.00  0.00    +0.000 C 
ATOM      2  C   UNL     1      -0.543  14.918  19.318  0.00  0.00    +0.000 C 
ATOM      3  C   UNL     1      -1.495  15.027  20.514  0.00  0.00    +0.000 C 
ATOM      4  N   UNL     1      -1.311  14.038  21.582  0.00  0.00    +0.000 NA
ATOM      5  C   UNL     1       0.073  14.053  22.022  0.00  0.00    +0.000 C 
ATOM      6  C   UNL     1       1.060  13.698  20.910  0.00  0.00    +0.000 C 
ENDROOT
BRANCH   4   7
ATOM      7  C   UNL     1      -2.064  12.769  21.479  0.00  0.00    +0.000 C 
ATOM      8  C   UNL     1      -2.913  12.491  20.218  0.00  0.00    +0.000 C 
ATOM      9  C   UNL     1      -2.216  11.763  19.050  0.00  0.00    +0.000 C 
ATOM     10  C   UNL     1      -0.748  11.410  19.310  0.00  0.00    +0.000 C 
ATOM     11  C   UNL     1      -0.096  10.627  18.171  0.00  0.00    +0.000 C 
ATOM     12  C   UNL     1       1.270  10.150  18.635  0.00  0.00    +0.000 C 
ATOM     13  C   UNL     1       1.085   9.168  19.799  0.00  0.00    +0.000 C 
ATOM     14  C   UNL     1       0.261   9.750  20.918  0.00  0.00    +0.000 A 
ATOM     15  C   UNL     1       0.325   9.212  22.205  0.00  0.00    +0.000 A 
ATOM     16  C   UNL     1      -0.371   9.811  23.257  0.00  0.00    +0.000 A 
ATOM     17  C   UNL     1      -1.119  10.973  23.046  0.00  0.00    +0.000 A 
ATOM     18  C   UNL     1      -1.234  11.507  21.759  0.00  0.00    +0.000 A 
ATOM     19  C   UNL     1      -0.588  10.841  20.690  0.00  0.00    +0.000 A 
ENDBRANCH   4   7
BRANCH   1  23
ATOM     20  C   UNL     1       3.194  17.365  20.437  0.00  0.00    +0.000 C 
ATOM     21  C   UNL     1       1.791  16.747  20.367  0.00  0.00    +0.000 C 
ATOM     22  O   UNL     1       0.806  17.200  20.923  0.00  0.00    +0.000 OA
ATOM     23  N   UNL     1       1.891  15.575  19.613  0.00  0.00    +0.000 N 
ATOM     24  C   UNL     1       3.201  15.392  19.135  0.00  0.00    +0.000 A 
ATOM     25  C   UNL     1       3.720  14.371  18.353  0.00  0.00    +0.000 A 
ATOM     26  C   UNL     1       5.043  14.475  17.931  0.00  0.00    +0.000 A 
ATOM     27  C   UNL     1       5.827  15.584  18.295  0.00  0.00    +0.000 A 
ATOM     28  C   UNL     1       5.307  16.582  19.123  0.00  0.00    +0.000 A 
ATOM     29  C   UNL     1       3.993  16.458  19.548  0.00  0.00    +0.000 A 
BRANCH  20  31
ATOM     30  C   UNL     1       3.784  16.124  22.654  0.00  0.00    +0.000 C 
ATOM     31  C   UNL     1       3.683  17.449  21.897  0.00  0.00    +0.000 C 
ENDBRANCH  20  31
ENDBRANCH   1  23
TORSDOF 3
ENDMDL
MODEL 8
REMARK VINA RESULT:      -7.1      1.971      8.770
REMARK  Name = 
REMARK  4 active torsions:
REMARK  status: ('A' for Active; 'I' for Inactive)
REMARK    1  A    between atoms: C_1  and  C_2
REMARK    2  A    between atoms: C_2  and  C_3
REMARK    3  A    between atoms: N_6  and  C_7
REMARK    4  A    between atoms: N_10  and  C_11
REMARK                            x       y       z     vdW  Elec       q    Type
REMARK                         _______ _______ _______ _____ _____    ______ ____
ROOT
ATOM      1  C   UNL     1       1.590   6.533  18.399  0.00  0.00    +0.000 C 
ATOM      2  C   UNL     1       1.535   7.954  17.825  0.00  0.00    +0.000 C 
ATOM      3  C   UNL     1       1.852   9.094  18.798  0.00  0.00    +0.000 C 
ATOM      4  N   UNL     1       1.373   8.923  20.174  0.00  0.00    +0.000 NA
ATOM      5  C   UNL     1       1.844   7.653  20.698  0.00  0.00    +0.000 C 
ATOM      6  C   UNL     1       1.342   6.451  19.898  0.00  0.00    +0.000 C 
ENDROOT
BRANCH   4   7
ATOM      7  C   UNL     1       0.018   9.424  20.496  0.00  0.00    +0.000 C 
ATOM      8  C   UNL     1      -0.262  10.007  21.900  0.00  0.00    +0.000 C 
ATOM      9  C   UNL     1      -0.042  11.522  22.085  0.00  0.00    +0.000 C 
ATOM     10  C   UNL     1       0.433  12.252  20.825  0.00  0.00    +0.000 C 
ATOM     11  C   UNL     1       0.577  13.763  21.009  0.00  0.00    +0.000 C 
ATOM     12  C   UNL     1       0.834  14.391  19.650  0.00  0.00    +0.000 C 
ATOM     13  C   UNL     1      -0.395  14.168  18.759  0.00  0.00    +0.000 C 
ATOM     14  C   UNL     1      -0.781  12.716  18.664  0.00  0.00    +0.000 A 
ATOM     15  C   UNL     1      -1.573  12.256  17.609  0.00  0.00    +0.000 A 
ATOM     16  C   UNL     1      -1.852  10.893  17.477  0.00  0.00    +0.000 A 
ATOM     17  C   UNL     1      -1.323   9.967  18.379  0.00  0.00    +0.000 A 
ATOM     18  C   UNL     1      -0.564  10.406  19.468  0.00  0.00    +0.000 A 
ATOM     19  C   UNL     1      -0.357  11.797  19.632  0.00  0.00    +0.000 A 
ENDBRANCH   4   7
BRANCH   1  23
ATOM     20  C   UNL     1       5.044   5.115  18.050  0.00  0.00    +0.000 C 
ATOM     21  C   UNL     1       4.053   6.282  17.939  0.00  0.00    +0.000 C 
ATOM     22  O   UNL     1       4.371   7.452  17.818  0.00  0.00    +0.000 OA
ATOM     23  N   UNL     1       2.768   5.748  18.063  0.00  0.00    +0.000 N 
ATOM     24  C   UNL     1       2.812   4.348  18.185  0.00  0.00    +0.000 A 
ATOM     25  C   UNL     1       1.773   3.441  18.323  0.00  0.00    +0.000 A 
ATOM     26  C   UNL     1       2.081   2.083  18.327  0.00  0.00    +0.000 A 
ATOM     27  C   UNL     1       3.413   1.650  18.200  0.00  0.00    +0.000 A 
ATOM     28  C   UNL     1       4.456   2.575  18.110  0.00  0.00    +0.000 A 
ATOM     29  C   UNL     1       4.136   3.924  18.122  0.00  0.00    +0.000 A 
BRANCH  20  31
ATOM     30  C   UNL     1       7.430   5.664  18.950  0.00  0.00    +0.000 C 
ATOM     31  C   UNL     1       5.977   5.303  19.263  0.00  0.00    +0.000 C 
ENDBRANCH  20  31
ENDBRANCH   1  23
TORSDOF 3
ENDMDL
MODEL 9
REMARK VINA RESULT:      -7.0      1.145      1.291
REMARK  Name = 
REMARK  4 active torsions:
REMARK  status: ('A' for Active; 'I' for Inactive)
REMARK    1  A    between atoms: C_1  and  C_2
REMARK    2  A    between atoms: C_2  and  C_3
REMARK    3  A    between atoms: N_6  and  C_7
REMARK    4  A    between atoms: N_10  and  C_11
REMARK                            x       y       z     vdW  Elec       q    Type
REMARK                         _______ _______ _______ _____ _____    ______ ____
ROOT
ATOM      1  C   UNL     1       1.230  10.951  19.633  0.00  0.00    +0.000 C 
ATOM      2  C   UNL     1       1.958  10.435  18.387  0.00  0.00    +0.000 C 
ATOM      3  C   UNL     1       1.614   9.011  17.937  0.00  0.00    +0.000 C 
ATOM      4  N   UNL     1       1.370   8.035  19.005  0.00  0.00    +0.000 NA
ATOM      5  C   UNL     1       0.356   8.549  19.909  0.00  0.00    +0.000 C 
ATOM      6  C   UNL     1       0.764   9.858  20.586  0.00  0.00    +0.000 C 
ENDROOT
BRANCH   4   7
ATOM      7  C   UNL     1       2.531   7.274  19.517  0.00  0.00    +0.000 C 
ATOM      8  C   UNL     1       2.475   6.670  20.938  0.00  0.00    +0.000 C 
ATOM      9  C   UNL     1       1.924   5.235  21.069  0.00  0.00    +0.000 C 
ATOM     10  C   UNL     1       1.500   4.596  19.742  0.00  0.00    +0.000 C 
ATOM     11  C   UNL     1       1.025   3.150  19.883  0.00  0.00    +0.000 C 
ATOM     12  C   UNL     1       0.847   2.565  18.493  0.00  0.00    +0.000 C 
ATOM     13  C   UNL     1       2.213   2.516  17.795  0.00  0.00    +0.000 C 
ATOM     14  C   UNL     1       2.899   3.856  17.778  0.00  0.00    +0.000 A 
ATOM     15  C   UNL     1       3.914   4.126  16.858  0.00  0.00    +0.000 A 
ATOM     16  C   UNL     1       4.483   5.400  16.787  0.00  0.00    +0.000 A 
ATOM     17  C   UNL     1       4.029   6.430  17.614  0.00  0.00    +0.000 A 
ATOM     18  C   UNL     1       3.044   6.175  18.572  0.00  0.00    +0.000 A 
ATOM     19  C   UNL     1       2.534   4.860  18.686  0.00  0.00    +0.000 A 
ENDBRANCH   4   7
BRANCH   1  23
ATOM     20  C   UNL     1      -2.077  12.605  19.007  0.00  0.00    +0.000 C 
ATOM     21  C   UNL     1      -0.988  11.592  18.628  0.00  0.00    +0.000 C 
ATOM     22  O   UNL     1      -1.135  10.682  17.831  0.00  0.00    +0.000 OA
ATOM     23  N   UNL     1       0.138  11.884  19.401  0.00  0.00    +0.000 N 
ATOM     24  C   UNL     1      -0.081  13.017  20.205  0.00  0.00    +0.000 A 
ATOM     25  C   UNL     1       0.771  13.639  21.104  0.00  0.00    +0.000 A 
ATOM     26  C   UNL     1       0.342  14.817  21.709  0.00  0.00    +0.000 A 
ATOM     27  C   UNL     1      -0.924  15.355  21.416  0.00  0.00    +0.000 A 
ATOM     28  C   UNL     1      -1.792  14.693  20.543  0.00  0.00    +0.000 A 
ATOM     29  C   UNL     1      -1.357  13.513  19.960  0.00  0.00    +0.000 A 
BRANCH  20  31
ATOM     30  C   UNL     1      -4.627  12.087  18.835  0.00  0.00    +0.000 C 
ATOM     31  C   UNL     1      -3.312  11.889  19.589  0.00  0.00    +0.000 C 
ENDBRANCH  20  31
ENDBRANCH   1  23
TORSDOF 3
ENDMDL
