MODEL 1
REMARK VINA RESULT:      -6.9      0.000      0.000
REMARK  Name = 
REMARK  17 active torsions:
REMARK  status: ('A' for Active; 'I' for Inactive)
REMARK    1  A    between atoms: C_1  and  C_2
REMARK    2  A    between atoms: C_3  and  C_4
REMARK    3  A    between atoms: C_3  and  C_5
REMARK    4  A    between atoms: C_5  and  O_7
REMARK    5  A    between atoms: O_7  and  C_8
REMARK    6  A    between atoms: C_14  and  C_15
REMARK    7  A    between atoms: C_15  and  O_16
REMARK    8  A    between atoms: O_16  and  C_17
REMARK    9  A    between atoms: C_17  and  C_19
REMARK   10  A    between atoms: C_19  and  O_20
REMARK   11  A    between atoms: C_19  and  C_21
REMARK   12  A    between atoms: C_19  and  C_24
REMARK   13  A    between atoms: C_21  and  C_22
REMARK   14  A    between atoms: C_21  and  O_23
REMARK   15  A    between atoms: C_24  and  C_25
REMARK   16  A    between atoms: C_24  and  C_26
REMARK   17  A    between atoms: C_24  and  O_27
REMARK                            x       y       z     vdW  Elec       q    Type
REMARK                         _______ _______ _______ _____ _____    ______ ____
ROOT
ATOM      1  C   UNL     1       3.434   7.504  16.976  0.00  0.00    +0.000 C 
ENDROOT
BRANCH   1   8
ATOM      2  C   UNL     1       2.576   5.582  19.548  0.00  0.00    +0.000 C 
ATOM      3  C   UNL     1       1.803   5.411  20.849  0.00  0.00    +0.000 C 
ATOM      4  C   UNL     1       1.077   6.733  21.046  0.00  0.00    +0.000 C 
ATOM      5  N   UNL     1       1.936   7.762  20.460  0.00  0.00    +0.000 NA
ATOM      6  C   UNL     1       1.184   8.802  19.732  0.00  0.00    +0.000 C 
ATOM      7  C   UNL     1       1.703   8.766  18.336  0.00  0.00    +0.000 C 
ATOM      8  C   UNL     1       2.633   7.818  18.193  0.00  0.00    +0.000 C 
ATOM      9  C   UNL     1       2.841   7.098  19.483  0.00  0.00    +0.000 C 
BRANCH   2  10
ATOM     10  O   UNL     1       1.795   5.100  18.437  0.00  0.00    +0.000 OA
BRANCH  10  11
ATOM     11  C   UNL     1       2.235   3.940  17.883  0.00  0.00    +0.000 C 
ATOM     12  O   UNL     1       2.871   3.861  16.842  0.00  0.00    +0.000 OA
BRANCH  11  15
ATOM     13  C   UNL     1       4.112   1.727  19.070  0.00  0.00    +0.000 C 
ATOM     14  C   UNL     1       2.622   1.793  19.165  0.00  0.00    +0.000 C 
ATOM     15  C   UNL     1       1.805   2.731  18.648  0.00  0.00    +0.000 C 
ATOM     16  C   UNL     1       0.309   2.613  18.801  0.00  0.00    +0.000 C 
ENDBRANCH  11  15
ENDBRANCH  10  11
ENDBRANCH   2  10
ENDBRANCH   1   8
BRANCH   1  17
ATOM     17  O   UNL     1       4.757   7.106  17.369  0.00  0.00    +0.000 OA
BRANCH  17  18
ATOM     18  C   UNL     1       5.565   6.659  16.361  0.00  0.00    +0.000 C 
ATOM     19  O   UNL     1       5.249   6.627  15.179  0.00  0.00    +0.000 OA
BRANCH  18  20
ATOM     20  C   UNL     1       6.939   6.195  16.906  0.00  0.00    +0.000 C 
BRANCH  20  21
ATOM     21  C   UNL     1       6.821   4.682  17.353  0.00  0.00    +0.000 C 
ATOM     22  C   UNL     1       5.964   4.506  18.622  0.00  0.00    +0.000 C 
ATOM     23  C   UNL     1       6.202   3.809  16.249  0.00  0.00    +0.000 C 
BRANCH  21  24
ATOM     24  O   UNL     1       8.097   4.093  17.642  0.00  0.00    +0.000 OA
ATOM     25  H   UNL     1       8.604   4.031  16.805  0.00  0.00    +0.000 HD
ENDBRANCH  21  24
ENDBRANCH  20  21
BRANCH  20  26
ATOM     26  O   UNL     1       7.966   6.302  15.893  0.00  0.00    +0.000 OA
ATOM     27  H   UNL     1       7.864   7.151  15.431  0.00  0.00    +0.000 HD
ENDBRANCH  20  26
BRANCH  20  28
ATOM     28  C   UNL     1       7.362   7.175  18.052  0.00  0.00    +0.000 C 
ATOM     29  C   UNL     1       7.918   8.529  17.626  0.00  0.00    +0.000 C 
BRANCH  28  30
ATOM     30  O   UNL     1       8.324   6.603  18.961  0.00  0.00    +0.000 OA
ATOM     31  H   UNL     1       8.083   5.683  19.158  0.00  0.00    +0.000 HD
ENDBRANCH  28  30
ENDBRANCH  20  28
ENDBRANCH  18  20
ENDBRANCH  17  18
ENDBRANCH   1  17
TORSDOF 12
ENDMDL
MODEL 2
REMARK VINA RESULT:      -6.5      0.911      1.123
REMARK  Name = 
REMARK  17 active torsions:
REMARK  status: ('A' for Active; 'I' for Inactive)
REMARK    1  A    between atoms: C_1  and  C_2
REMARK    2  A    between atoms: C_3  and  C_4
REMARK    3  A    between atoms: C_3  and  C_5
REMARK    4  A    between atoms: C_5  and  O_7
REMARK    5  A    between atoms: O_7  and  C_8
REMARK    6  A    between atoms: C_14  and  C_15
REMARK    7  A    between atoms: C_15  and  O_16
REMARK    8  A    between atoms: O_16  and  C_17
REMARK    9  A    between atoms: C_17  and  C_19
REMARK   10  A    between atoms: C_19  and  O_20
REMARK   11  A    between atoms: C_19  and  C_21
REMARK   12  A    between atoms: C_19  and  C_24
REMARK   13  A    between atoms: C_21  and  C_22
REMARK   14  A    between atoms: C_21  and  O_23
REMARK   15  A    between atoms: C_24  and  C_25
REMARK   16  A    between atoms: C_24  and  C_26
REMARK   17  A    between atoms: C_24  and  O_27
REMARK                            x       y       z     vdW  Elec       q    Type
REMARK                         _______ _______ _______ _____ _____    ______ ____
ROOT
ATOM      1  C   UNL     1       3.265   7.549  16.991  0.00  0.00    +0.000 C 
ENDROOT
BRANCH   1   8
ATOM      2  C   UNL     1       2.511   5.598  19.573  0.00  0.00    +0.000 C 
ATOM      3  C   UNL     1       1.796   5.413  20.905  0.00  0.00    +0.000 C 
ATOM      4  C   UNL     1       1.086   6.736  21.151  0.00  0.00    +0.000 C 
ATOM      5  N   UNL     1       1.923   7.769  20.541  0.00  0.00    +0.000 NA
ATOM      6  C   UNL     1       1.145   8.822  19.859  0.00  0.00    +0.000 C 
ATOM      7  C   UNL     1       1.603   8.802  18.442  0.00  0.00    +0.000 C 
ATOM      8  C   UNL     1       2.520   7.851  18.245  0.00  0.00    +0.000 C 
ATOM      9  C   UNL     1       2.781   7.114  19.516  0.00  0.00    +0.000 C 
BRANCH   2  10
ATOM     10  O   UNL     1       1.680   5.134  18.492  0.00  0.00    +0.000 OA
BRANCH  10  11
ATOM     11  C   UNL     1       2.102   3.992  17.888  0.00  0.00    +0.000 C 
ATOM     12  O   UNL     1       2.660   3.942  16.802  0.00  0.00    +0.000 OA
BRANCH  11  15
ATOM     13  C   UNL     1       4.123   1.871  19.006  0.00  0.00    +0.000 C 
ATOM     14  C   UNL     1       2.637   1.865  19.151  0.00  0.00    +0.000 C 
ATOM     15  C   UNL     1       1.758   2.763  18.665  0.00  0.00    +0.000 C 
ATOM     16  C   UNL     1       0.275   2.573  18.870  0.00  0.00    +0.000 C 
ENDBRANCH  11  15
ENDBRANCH  10  11
ENDBRANCH   2  10
ENDBRANCH   1   8
BRANCH   1  17
ATOM     17  O   UNL     1       4.457   6.813  17.311  0.00  0.00    +0.000 OA
BRANCH  17  18
ATOM     18  C   UNL     1       5.336   6.633  16.282  0.00  0.00    +0.000 C 
ATOM     19  O   UNL     1       5.093   6.880  15.107  0.00  0.00    +0.000 OA
BRANCH  18  20
ATOM     20  C   UNL     1       6.689   6.075  16.789  0.00  0.00    +0.000 C 
BRANCH  20  21
ATOM     21  C   UNL     1       6.973   4.699  16.061  0.00  0.00    +0.000 C 
ATOM     22  C   UNL     1       5.720   3.806  15.976  0.00  0.00    +0.000 C 
ATOM     23  C   UNL     1       7.492   4.910  14.630  0.00  0.00    +0.000 C 
BRANCH  21  24
ATOM     24  O   UNL     1       7.979   3.922  16.728  0.00  0.00    +0.000 OA
ATOM     25  H   UNL     1       8.116   4.298  17.623  0.00  0.00    +0.000 HD
ENDBRANCH  21  24
ENDBRANCH  20  21
BRANCH  20  26
ATOM     26  O   UNL     1       7.773   6.987  16.499  0.00  0.00    +0.000 OA
ATOM     27  H   UNL     1       8.524   6.778  17.082  0.00  0.00    +0.000 HD
ENDBRANCH  20  26
BRANCH  20  28
ATOM     28  C   UNL     1       6.618   5.975  18.350  0.00  0.00    +0.000 C 
ATOM     29  C   UNL     1       7.914   6.221  19.113  0.00  0.00    +0.000 C 
BRANCH  28  30
ATOM     30  O   UNL     1       6.099   4.712  18.816  0.00  0.00    +0.000 OA
ATOM     31  H   UNL     1       5.647   4.836  19.666  0.00  0.00    +0.000 HD
ENDBRANCH  28  30
ENDBRANCH  20  28
ENDBRANCH  18  20
ENDBRANCH  17  18
ENDBRANCH   1  17
TORSDOF 12
ENDMDL
MODEL 3
REMARK VINA RESULT:      -6.4      1.384      1.724
REMARK  Name = 
REMARK  17 active torsions:
REMARK  status: ('A' for Active; 'I' for Inactive)
REMARK    1  A    between atoms: C_1  and  C_2
REMARK    2  A    between atoms: C_3  and  C_4
REMARK    3  A    between atoms: C_3  and  C_5
REMARK    4  A    between atoms: C_5  and  O_7
REMARK    5  A    between atoms: O_7  and  C_8
REMARK    6  A    between atoms: C_14  and  C_15
REMARK    7  A    between atoms: C_15  and  O_16
REMARK    8  A    between atoms: O_16  and  C_17
REMARK    9  A    between atoms: C_17  and  C_19
REMARK   10  A    between atoms: C_19  and  O_20
REMARK   11  A    between atoms: C_19  and  C_21
REMARK   12  A    between atoms: C_19  and  C_24
REMARK   13  A    between atoms: C_21  and  C_22
REMARK   14  A    between atoms: C_21  and  O_23
REMARK   15  A    between atoms: C_24  and  C_25
REMARK   16  A    between atoms: C_24  and  C_26
REMARK   17  A    between atoms: C_24  and  O_27
REMARK                            x       y       z     vdW  Elec       q    Type
REMARK                         _______ _______ _______ _____ _____    ______ ____
ROOT
ATOM      1  C   UNL     1       3.349   6.690  17.570  0.00  0.00    +0.000 C 
ENDROOT
BRANCH   1   8
ATOM      2  C   UNL     1       2.102   7.359  20.577  0.00  0.00    +0.000 C 
ATOM      3  C   UNL     1       1.180   8.198  21.450  0.00  0.00    +0.000 C 
ATOM      4  C   UNL     1       0.509   9.167  20.487  0.00  0.00    +0.000 C 
ATOM      5  N   UNL     1       1.485   9.431  19.429  0.00  0.00    +0.000 NA
ATOM      6  C   UNL     1       0.878   9.513  18.086  0.00  0.00    +0.000 C 
ATOM      7  C   UNL     1       1.549   8.455  17.281  0.00  0.00    +0.000 C 
ATOM      8  C   UNL     1       2.435   7.778  18.017  0.00  0.00    +0.000 C 
ATOM      9  C   UNL     1       2.456   8.304  19.413  0.00  0.00    +0.000 C 
BRANCH   2  10
ATOM     10  O   UNL     1       1.426   6.163  20.143  0.00  0.00    +0.000 OA
BRANCH  10  11
ATOM     11  C   UNL     1       2.169   5.026  20.204  0.00  0.00    +0.000 C 
ATOM     12  O   UNL     1       3.306   4.958  20.645  0.00  0.00    +0.000 OA
BRANCH  11  15
ATOM     13  C   UNL     1       1.293   2.425  21.720  0.00  0.00    +0.000 C 
ATOM     14  C   UNL     1       1.090   2.738  20.273  0.00  0.00    +0.000 C 
ATOM     15  C   UNL     1       1.473   3.846  19.609  0.00  0.00    +0.000 C 
ATOM     16  C   UNL     1       1.225   3.974  18.126  0.00  0.00    +0.000 C 
ENDBRANCH  11  15
ENDBRANCH  10  11
ENDBRANCH   2  10
ENDBRANCH   1   8
BRANCH   1  17
ATOM     17  O   UNL     1       4.694   7.193  17.514  0.00  0.00    +0.000 OA
BRANCH  17  18
ATOM     18  C   UNL     1       5.436   6.783  16.443  0.00  0.00    +0.000 C 
ATOM     19  O   UNL     1       5.054   6.812  15.280  0.00  0.00    +0.000 OA
BRANCH  18  20
ATOM     20  C   UNL     1       6.831   6.275  16.886  0.00  0.00    +0.000 C 
BRANCH  20  21
ATOM     21  C   UNL     1       6.724   4.732  17.218  0.00  0.00    +0.000 C 
ATOM     22  C   UNL     1       5.968   4.461  18.533  0.00  0.00    +0.000 C 
ATOM     23  C   UNL     1       6.006   3.958  16.100  0.00  0.00    +0.000 C 
BRANCH  21  24
ATOM     24  O   UNL     1       8.010   4.109  17.355  0.00  0.00    +0.000 OA
ATOM     25  H   UNL     1       8.433   4.077  16.471  0.00  0.00    +0.000 HD
ENDBRANCH  21  24
ENDBRANCH  20  21
BRANCH  20  26
ATOM     26  O   UNL     1       7.812   6.459  15.840  0.00  0.00    +0.000 OA
ATOM     27  H   UNL     1       8.107   7.386  15.847  0.00  0.00    +0.000 HD
ENDBRANCH  20  26
BRANCH  20  28
ATOM     28  C   UNL     1       7.311   7.160  18.086  0.00  0.00    +0.000 C 
ATOM     29  C   UNL     1       7.945   8.502  17.737  0.00  0.00    +0.000 C 
BRANCH  28  30
ATOM     30  O   UNL     1       8.237   6.481  18.957  0.00  0.00    +0.000 OA
ATOM     31  H   UNL     1       8.389   7.014  19.755  0.00  0.00    +0.000 HD
ENDBRANCH  28  30
ENDBRANCH  20  28
ENDBRANCH  18  20
ENDBRANCH  17  18
ENDBRANCH   1  17
TORSDOF 12
ENDMDL
MODEL 4
REMARK VINA RESULT:      -6.3      2.888      6.616
REMARK  Name = 
REMARK  17 active torsions:
REMARK  status: ('A' for Active; 'I' for Inactive)
REMARK    1  A    between atoms: C_1  and  C_2
REMARK    2  A    between atoms: C_3  and  C_4
REMARK    3  A    between atoms: C_3  and  C_5
REMARK    4  A    between atoms: C_5  and  O_7
REMARK    5  A    between atoms: O_7  and  C_8
REMARK    6  A    between atoms: C_14  and  C_15
REMARK    7  A    between atoms: C_15  and  O_16
REMARK    8  A    between atoms: O_16  and  C_17
REMARK    9  A    between atoms: C_17  and  C_19
REMARK   10  A    between atoms: C_19  and  O_20
REMARK   11  A    between atoms: C_19  and  C_21
REMARK   12  A    between atoms: C_19  and  C_24
REMARK   13  A    between atoms: C_21  and  C_22
REMARK   14  A    between atoms: C_21  and  O_23
REMARK   15  A    between atoms: C_24  and  C_25
REMARK   16  A    between atoms: C_24  and  C_26
REMARK   17  A    between atoms: C_24  and  O_27
REMARK                            x       y       z     vdW  Elec       q    Type
REMARK                         _______ _______ _______ _____ _____    ______ ____
ROOT
ATOM      1  C   UNL     1       2.589   7.565  19.382  0.00  0.00    +0.000 C 
ENDROOT
BRANCH   1   8
ATOM      2  C   UNL     1       4.432   4.818  19.698  0.00  0.00    +0.000 C 
ATOM      3  C   UNL     1       4.656   3.350  19.360  0.00  0.00    +0.000 C 
ATOM      4  C   UNL     1       3.507   2.986  18.431  0.00  0.00    +0.000 C 
ATOM      5  N   UNL     1       2.370   3.809  18.847  0.00  0.00    +0.000 NA
ATOM      6  C   UNL     1       1.577   4.321  17.712  0.00  0.00    +0.000 C 
ATOM      7  C   UNL     1       1.616   5.805  17.836  0.00  0.00    +0.000 C 
ATOM      8  C   UNL     1       2.354   6.181  18.884  0.00  0.00    +0.000 C 
ATOM      9  C   UNL     1       2.904   4.985  19.586  0.00  0.00    +0.000 C 
BRANCH   2  10
ATOM     10  O   UNL     1       5.158   5.658  18.781  0.00  0.00    +0.000 OA
BRANCH  10  11
ATOM     11  C   UNL     1       6.511   5.587  18.882  0.00  0.00    +0.000 C 
ATOM     12  O   UNL     1       7.127   5.439  19.927  0.00  0.00    +0.000 OA
BRANCH  11  15
ATOM     13  C   UNL     1       7.685   8.272  17.768  0.00  0.00    +0.000 C 
ATOM     14  C   UNL     1       7.714   6.932  17.107  0.00  0.00    +0.000 C 
ATOM     15  C   UNL     1       7.202   5.775  17.570  0.00  0.00    +0.000 C 
ATOM     16  C   UNL     1       7.282   4.516  16.743  0.00  0.00    +0.000 C 
ENDBRANCH  11  15
ENDBRANCH  10  11
ENDBRANCH   2  10
ENDBRANCH   1   8
BRANCH   1  17
ATOM     17  O   UNL     1       1.458   8.388  19.052  0.00  0.00    +0.000 OA
BRANCH  17  18
ATOM     18  C   UNL     1       1.074   9.280  20.012  0.00  0.00    +0.000 C 
ATOM     19  O   UNL     1       0.913   9.004  21.194  0.00  0.00    +0.000 OA
BRANCH  18  20
ATOM     20  C   UNL     1       0.867  10.694  19.415  0.00  0.00    +0.000 C 
BRANCH  20  21
ATOM     21  C   UNL     1      -0.511  10.718  18.637  0.00  0.00    +0.000 C 
ATOM     22  C   UNL     1      -1.676  10.169  19.483  0.00  0.00    +0.000 C 
ATOM     23  C   UNL     1      -0.888  12.141  18.193  0.00  0.00    +0.000 C 
BRANCH  21  24
ATOM     24  O   UNL     1      -0.477   9.933  17.437  0.00  0.00    +0.000 OA
ATOM     25  H   UNL     1      -0.733   9.013  17.663  0.00  0.00    +0.000 HD
ENDBRANCH  21  24
ENDBRANCH  20  21
BRANCH  20  26
ATOM     26  O   UNL     1       0.832  11.701  20.453  0.00  0.00    +0.000 OA
ATOM     27  H   UNL     1       0.873  11.260  21.319  0.00  0.00    +0.000 HD
ENDBRANCH  20  26
BRANCH  20  28
ATOM     28  C   UNL     1       2.113  11.034  18.530  0.00  0.00    +0.000 C 
ATOM     29  C   UNL     1       2.394  12.511  18.279  0.00  0.00    +0.000 C 
BRANCH  28  30
ATOM     30  O   UNL     1       2.082  10.395  17.237  0.00  0.00    +0.000 OA
ATOM     31  H   UNL     1       1.190  10.461  16.860  0.00  0.00    +0.000 HD
ENDBRANCH  28  30
ENDBRANCH  20  28
ENDBRANCH  18  20
ENDBRANCH  17  18
ENDBRANCH   1  17
TORSDOF 12
ENDMDL
MODEL 5
REMARK VINA RESULT:      -6.3      3.106      6.844
REMARK  Name = 
REMARK  17 active torsions:
REMARK  status: ('A' for Active; 'I' for Inactive)
REMARK    1  A    between atoms: C_1  and  C_2
REMARK    2  A    between atoms: C_3  and  C_4
REMARK    3  A    between atoms: C_3  and  C_5
REMARK    4  A    between atoms: C_5  and  O_7
REMARK    5  A    between atoms: O_7  and  C_8
REMARK    6  A    between atoms: C_14  and  C_15
REMARK    7  A    between atoms: C_15  and  O_16
REMARK    8  A    between atoms: O_16  and  C_17
REMARK    9  A    between atoms: C_17  and  C_19
REMARK   10  A    between atoms: C_19  and  O_20
REMARK   11  A    between atoms: C_19  and  C_21
REMARK   12  A    between atoms: C_19  and  C_24
REMARK   13  A    between atoms: C_21  and  C_22
REMARK   14  A    between atoms: C_21  and  O_23
REMARK   15  A    between atoms: C_24  and  C_25
REMARK   16  A    between atoms: C_24  and  C_26
REMARK   17  A    between atoms: C_24  and  O_27
REMARK                            x       y       z     vdW  Elec       q    Type
REMARK                         _______ _______ _______ _____ _____    ______ ____
ROOT
ATOM      1  C   UNL     1       2.478   7.616  19.566  0.00  0.00    +0.000 C 
ENDROOT
BRANCH   1   8
ATOM      2  C   UNL     1       4.401   4.908  19.667  0.00  0.00    +0.000 C 
ATOM      3  C   UNL     1       4.664   3.476  19.220  0.00  0.00    +0.000 C 
ATOM      4  C   UNL     1       3.516   3.147  18.278  0.00  0.00    +0.000 C 
ATOM      5  N   UNL     1       2.361   3.903  18.761  0.00  0.00    +0.000 NA
ATOM      6  C   UNL     1       1.542   4.473  17.673  0.00  0.00    +0.000 C 
ATOM      7  C   UNL     1       1.540   5.944  17.904  0.00  0.00    +0.000 C 
ATOM      8  C   UNL     1       2.278   6.265  18.970  0.00  0.00    +0.000 C 
ATOM      9  C   UNL     1       2.869   5.039  19.579  0.00  0.00    +0.000 C 
BRANCH   2  10
ATOM     10  O   UNL     1       5.094   5.833  18.807  0.00  0.00    +0.000 OA
BRANCH  10  11
ATOM     11  C   UNL     1       6.450   5.762  18.857  0.00  0.00    +0.000 C 
ATOM     12  O   UNL     1       7.095   5.386  19.825  0.00  0.00    +0.000 OA
BRANCH  11  15
ATOM     13  C   UNL     1       6.610   4.253  16.113  0.00  0.00    +0.000 C 
ATOM     14  C   UNL     1       7.156   5.607  16.431  0.00  0.00    +0.000 C 
ATOM     15  C   UNL     1       7.104   6.260  17.609  0.00  0.00    +0.000 C 
ATOM     16  C   UNL     1       7.754   7.613  17.764  0.00  0.00    +0.000 C 
ENDBRANCH  11  15
ENDBRANCH  10  11
ENDBRANCH   2  10
ENDBRANCH   1   8
BRANCH   1  17
ATOM     17  O   UNL     1       1.636   8.564  18.889  0.00  0.00    +0.000 OA
BRANCH  17  18
ATOM     18  C   UNL     1       0.797   9.288  19.687  0.00  0.00    +0.000 C 
ATOM     19  O   UNL     1       0.197   8.838  20.654  0.00  0.00    +0.000 OA
BRANCH  18  20
ATOM     20  C   UNL     1       0.701  10.760  19.214  0.00  0.00    +0.000 C 
BRANCH  20  21
ATOM     21  C   UNL     1       0.956  11.707  20.456  0.00  0.00    +0.000 C 
ATOM     22  C   UNL     1       1.883  12.890  20.117  0.00  0.00    +0.000 C 
ATOM     23  C   UNL     1      -0.357  12.288  21.006  0.00  0.00    +0.000 C 
BRANCH  21  24
ATOM     24  O   UNL     1       1.565  11.018  21.557  0.00  0.00    +0.000 OA
ATOM     25  H   UNL     1       0.926  10.357  21.900  0.00  0.00    +0.000 HD
ENDBRANCH  21  24
ENDBRANCH  20  21
BRANCH  20  26
ATOM     26  O   UNL     1       1.690  11.049  18.199  0.00  0.00    +0.000 OA
ATOM     27  H   UNL     1       1.553  10.447  17.448  0.00  0.00    +0.000 HD
ENDBRANCH  20  26
BRANCH  20  28
ATOM     28  C   UNL     1      -0.691  10.958  18.527  0.00  0.00    +0.000 C 
ATOM     29  C   UNL     1      -1.200   9.809  17.664  0.00  0.00    +0.000 C 
BRANCH  28  30
ATOM     30  O   UNL     1      -0.757  12.146  17.711  0.00  0.00    +0.000 OA
ATOM     31  H   UNL     1      -0.597  11.916  16.782  0.00  0.00    +0.000 HD
ENDBRANCH  28  30
ENDBRANCH  20  28
ENDBRANCH  18  20
ENDBRANCH  17  18
ENDBRANCH   1  17
TORSDOF 12
ENDMDL
MODEL 6
REMARK VINA RESULT:      -6.2      0.992      1.395
REMARK  Name = 
REMARK  17 active torsions:
REMARK  status: ('A' for Active; 'I' for Inactive)
REMARK    1  A    between atoms: C_1  and  C_2
REMARK    2  A    between atoms: C_3  and  C_4
REMARK    3  A    between atoms: C_3  and  C_5
REMARK    4  A    between atoms: C_5  and  O_7
REMARK    5  A    between atoms: O_7  and  C_8
REMARK    6  A    between atoms: C_14  and  C_15
REMARK    7  A    between atoms: C_15  and  O_16
REMARK    8  A    between atoms: O_16  and  C_17
REMARK    9  A    between atoms: C_17  and  C_19
REMARK   10  A    between atoms: C_19  and  O_20
REMARK   11  A    between atoms: C_19  and  C_21
REMARK   12  A    between atoms: C_19  and  C_24
REMARK   13  A    between atoms: C_21  and  C_22
REMARK   14  A    between atoms: C_21  and  O_23
REMARK   15  A    between atoms: C_24  and  C_25
REMARK   16  A    between atoms: C_24  and  C_26
REMARK   17  A    between atoms: C_24  and  O_27
REMARK                            x       y       z     vdW  Elec       q    Type
REMARK                         _______ _______ _______ _____ _____    ______ ____
ROOT
ATOM      1  C   UNL     1       3.361   6.752  17.175  0.00  0.00    +0.000 C 
ENDROOT
BRANCH   1   8
ATOM      2  C   UNL     1       2.162   6.100  20.204  0.00  0.00    +0.000 C 
ATOM      3  C   UNL     1       1.311   6.530  21.392  0.00  0.00    +0.000 C 
ATOM      4  C   UNL     1       0.732   7.877  20.987  0.00  0.00    +0.000 C 
ATOM      5  N   UNL     1       1.732   8.509  20.126  0.00  0.00    +0.000 NA
ATOM      6  C   UNL     1       1.142   9.231  18.982  0.00  0.00    +0.000 C 
ATOM      7  C   UNL     1       1.722   8.596  17.767  0.00  0.00    +0.000 C 
ATOM      8  C   UNL     1       2.542   7.593  18.092  0.00  0.00    +0.000 C 
ATOM      9  C   UNL     1       2.603   7.435  19.574  0.00  0.00    +0.000 C 
BRANCH   2  10
ATOM     10  O   UNL     1       1.387   5.283  19.306  0.00  0.00    +0.000 OA
BRANCH  10  11
ATOM     11  C   UNL     1       1.239   3.987  19.687  0.00  0.00    +0.000 C 
ATOM     12  O   UNL     1       0.218   3.511  20.161  0.00  0.00    +0.000 OA
BRANCH  11  15
ATOM     13  C   UNL     1       2.569   3.131  16.980  0.00  0.00    +0.000 C 
ATOM     14  C   UNL     1       3.061   2.837  18.359  0.00  0.00    +0.000 C 
ATOM     15  C   UNL     1       2.492   3.189  19.529  0.00  0.00    +0.000 C 
ATOM     16  C   UNL     1       3.108   2.764  20.839  0.00  0.00    +0.000 C 
ENDBRANCH  11  15
ENDBRANCH  10  11
ENDBRANCH   2  10
ENDBRANCH   1   8
BRANCH   1  17
ATOM     17  O   UNL     1       4.754   6.942  17.473  0.00  0.00    +0.000 OA
BRANCH  17  18
ATOM     18  C   UNL     1       5.618   6.709  16.441  0.00  0.00    +0.000 C 
ATOM     19  O   UNL     1       5.345   6.860  15.257  0.00  0.00    +0.000 OA
BRANCH  18  20
ATOM     20  C   UNL     1       6.996   6.227  16.958  0.00  0.00    +0.000 C 
BRANCH  20  21
ATOM     21  C   UNL     1       6.872   4.710  17.388  0.00  0.00    +0.000 C 
ATOM     22  C   UNL     1       6.076   4.528  18.694  0.00  0.00    +0.000 C 
ATOM     23  C   UNL     1       6.184   3.866  16.302  0.00  0.00    +0.000 C 
BRANCH  21  24
ATOM     24  O   UNL     1       8.150   4.094  17.604  0.00  0.00    +0.000 OA
ATOM     25  H   UNL     1       8.809   4.540  17.031  0.00  0.00    +0.000 HD
ENDBRANCH  21  24
ENDBRANCH  20  21
BRANCH  20  26
ATOM     26  O   UNL     1       8.009   6.339  15.932  0.00  0.00    +0.000 OA
ATOM     27  H   UNL     1       7.614   6.107  15.074  0.00  0.00    +0.000 HD
ENDBRANCH  20  26
BRANCH  20  28
ATOM     28  C   UNL     1       7.444   7.188  18.110  0.00  0.00    +0.000 C 
ATOM     29  C   UNL     1       7.976   8.555  17.695  0.00  0.00    +0.000 C 
BRANCH  28  30
ATOM     30  O   UNL     1       8.437   6.607  18.981  0.00  0.00    +0.000 OA
ATOM     31  H   UNL     1       9.301   6.607  18.539  0.00  0.00    +0.000 HD
ENDBRANCH  28  30
ENDBRANCH  20  28
ENDBRANCH  18  20
ENDBRANCH  17  18
ENDBRANCH   1  17
TORSDOF 12
ENDMDL
MODEL 7
REMARK VINA RESULT:      -6.2      1.205      1.531
REMARK  Name = 
REMARK  17 active torsions:
REMARK  status: ('A' for Active; 'I' for Inactive)
REMARK    1  A    between atoms: C_1  and  C_2
REMARK    2  A    between atoms: C_3  and  C_4
REMARK    3  A    between atoms: C_3  and  C_5
REMARK    4  A    between atoms: C_5  and  O_7
REMARK    5  A    between atoms: O_7  and  C_8
REMARK    6  A    between atoms: C_14  and  C_15
REMARK    7  A    between atoms: C_15  and  O_16
REMARK    8  A    between atoms: O_16  and  C_17
REMARK    9  A    between atoms: C_17  and  C_19
REMARK   10  A    between atoms: C_19  and  O_20
REMARK   11  A    between atoms: C_19  and  C_21
REMARK   12  A    between atoms: C_19  and  C_24
REMARK   13  A    between atoms: C_21  and  C_22
REMARK   14  A    between atoms: C_21  and  O_23
REMARK   15  A    between atoms: C_24  and  C_25
REMARK   16  A    between atoms: C_24  and  C_26
REMARK   17  A    between atoms: C_24  and  O_27
REMARK                            x       y       z     vdW  Elec       q    Type
REMARK                         _______ _______ _______ _____ _____    ______ ____
ROOT
ATOM      1  C   UNL     1       3.182   7.091  16.982  0.00  0.00    +0.000 C 
ENDROOT
BRANCH   1   8
ATOM      2  C   UNL     1       2.303   5.872  19.946  0.00  0.00    +0.000 C 
ATOM      3  C   UNL     1       1.576   6.059  21.271  0.00  0.00    +0.000 C 
ATOM      4  C   UNL     1       0.950   7.442  21.178  0.00  0.00    +0.000 C 
ATOM      5  N   UNL     1       1.852   8.244  20.351  0.00  0.00    +0.000 NA
ATOM      6  C   UNL     1       1.143   9.146  19.423  0.00  0.00    +0.000 C 
ATOM      7  C   UNL     1       1.600   8.756  18.060  0.00  0.00    +0.000 C 
ATOM      8  C   UNL     1       2.456   7.731  18.114  0.00  0.00    +0.000 C 
ATOM      9  C   UNL     1       2.669   7.309  19.529  0.00  0.00    +0.000 C 
BRANCH   2  10
ATOM     10  O   UNL     1       1.446   5.212  18.995  0.00  0.00    +0.000 OA
BRANCH  10  11
ATOM     11  C   UNL     1       1.396   3.858  19.106  0.00  0.00    +0.000 C 
ATOM     12  O   UNL     1       0.555   3.240  19.741  0.00  0.00    +0.000 OA
BRANCH  11  15
ATOM     13  C   UNL     1       3.838   2.454  20.484  0.00  0.00    +0.000 C 
ATOM     14  C   UNL     1       3.570   2.565  19.018  0.00  0.00    +0.000 C 
ATOM     15  C   UNL     1       2.532   3.177  18.414  0.00  0.00    +0.000 C 
ATOM     16  C   UNL     1       2.446   3.234  16.910  0.00  0.00    +0.000 C 
ENDBRANCH  11  15
ENDBRANCH  10  11
ENDBRANCH   2  10
ENDBRANCH   1   8
BRANCH   1  17
ATOM     17  O   UNL     1       4.565   6.926  17.336  0.00  0.00    +0.000 OA
BRANCH  17  18
ATOM     18  C   UNL     1       5.420   6.697  16.296  0.00  0.00    +0.000 C 
ATOM     19  O   UNL     1       5.165   6.929  15.122  0.00  0.00    +0.000 OA
BRANCH  18  20
ATOM     20  C   UNL     1       6.763   6.105  16.792  0.00  0.00    +0.000 C 
BRANCH  20  21
ATOM     21  C   UNL     1       6.995   4.712  16.078  0.00  0.00    +0.000 C 
ATOM     22  C   UNL     1       5.716   3.854  16.027  0.00  0.00    +0.000 C 
ATOM     23  C   UNL     1       7.495   4.889  14.635  0.00  0.00    +0.000 C 
BRANCH  21  24
ATOM     24  O   UNL     1       7.990   3.916  16.738  0.00  0.00    +0.000 OA
ATOM     25  H   UNL     1       7.664   2.992  16.786  0.00  0.00    +0.000 HD
ENDBRANCH  21  24
ENDBRANCH  20  21
BRANCH  20  26
ATOM     26  O   UNL     1       7.870   6.980  16.475  0.00  0.00    +0.000 OA
ATOM     27  H   UNL     1       8.342   6.622  15.704  0.00  0.00    +0.000 HD
ENDBRANCH  20  26
BRANCH  20  28
ATOM     28  C   UNL     1       6.711   6.028  18.355  0.00  0.00    +0.000 C 
ATOM     29  C   UNL     1       8.009   6.317  19.100  0.00  0.00    +0.000 C 
BRANCH  28  30
ATOM     30  O   UNL     1       6.229   4.760  18.845  0.00  0.00    +0.000 OA
ATOM     31  H   UNL     1       6.964   4.257  19.232  0.00  0.00    +0.000 HD
ENDBRANCH  28  30
ENDBRANCH  20  28
ENDBRANCH  18  20
ENDBRANCH  17  18
ENDBRANCH   1  17
TORSDOF 12
ENDMDL
MODEL 8
REMARK VINA RESULT:      -6.1      2.810      6.665
REMARK  Name = 
REMARK  17 active torsions:
REMARK  status: ('A' for Active; 'I' for Inactive)
REMARK    1  A    between atoms: C_1  and  C_2
REMARK    2  A    between atoms: C_3  and  C_4
REMARK    3  A    between atoms: C_3  and  C_5
REMARK    4  A    between atoms: C_5  and  O_7
REMARK    5  A    between atoms: O_7  and  C_8
REMARK    6  A    between atoms: C_14  and  C_15
REMARK    7  A    between atoms: C_15  and  O_16
REMARK    8  A    between atoms: O_16  and  C_17
REMARK    9  A    between atoms: C_17  and  C_19
REMARK   10  A    between atoms: C_19  and  O_20
REMARK   11  A    between atoms: C_19  and  C_21
REMARK   12  A    between atoms: C_19  and  C_24
REMARK   13  A    between atoms: C_21  and  C_22
REMARK   14  A    between atoms: C_21  and  O_23
REMARK   15  A    between atoms: C_24  and  C_25
REMARK   16  A    between atoms: C_24  and  C_26
REMARK   17  A    between atoms: C_24  and  O_27
REMARK                            x       y       z     vdW  Elec       q    Type
REMARK                         _______ _______ _______ _____ _____    ______ ____
ROOT
ATOM      1  C   UNL     1       2.828   6.934  18.880  0.00  0.00    +0.000 C 
ENDROOT
BRANCH   1   8
ATOM      2  C   UNL     1       4.462   4.136  19.617  0.00  0.00    +0.000 C 
ATOM      3  C   UNL     1       4.509   2.614  19.620  0.00  0.00    +0.000 C 
ATOM      4  C   UNL     1       3.205   2.184  18.964  0.00  0.00    +0.000 C 
ATOM      5  N   UNL     1       2.218   3.207  19.309  0.00  0.00    +0.000 NA
ATOM      6  C   UNL     1       1.306   3.535  18.195  0.00  0.00    +0.000 C 
ATOM      7  C   UNL     1       1.487   4.992  17.948  0.00  0.00    +0.000 C 
ATOM      8  C   UNL     1       2.405   5.510  18.768  0.00  0.00    +0.000 C 
ATOM      9  C   UNL     1       2.955   4.451  19.664  0.00  0.00    +0.000 C 
BRANCH   2  10
ATOM     10  O   UNL     1       5.107   4.652  18.437  0.00  0.00    +0.000 OA
BRANCH  10  11
ATOM     11  C   UNL     1       6.166   5.471  18.670  0.00  0.00    +0.000 C 
ATOM     12  O   UNL     1       6.822   5.488  19.701  0.00  0.00    +0.000 OA
BRANCH  11  15
ATOM     13  C   UNL     1       8.386   7.684  18.579  0.00  0.00    +0.000 C 
ATOM     14  C   UNL     1       7.391   7.360  17.513  0.00  0.00    +0.000 C 
ATOM     15  C   UNL     1       6.425   6.420  17.546  0.00  0.00    +0.000 C 
ATOM     16  C   UNL     1       5.471   6.261  16.388  0.00  0.00    +0.000 C 
ENDBRANCH  11  15
ENDBRANCH  10  11
ENDBRANCH   2  10
ENDBRANCH   1   8
BRANCH   1  17
ATOM     17  O   UNL     1       1.816   7.677  19.579  0.00  0.00    +0.000 OA
BRANCH  17  18
ATOM     18  C   UNL     1       1.534   8.914  19.074  0.00  0.00    +0.000 C 
ATOM     19  O   UNL     1       2.064   9.398  18.082  0.00  0.00    +0.000 OA
BRANCH  18  20
ATOM     20  C   UNL     1       0.452   9.633  19.918  0.00  0.00    +0.000 C 
BRANCH  20  21
ATOM     21  C   UNL     1      -0.286  10.689  19.000  0.00  0.00    +0.000 C 
ATOM     22  C   UNL     1      -0.994  10.034  17.798  0.00  0.00    +0.000 C 
ATOM     23  C   UNL     1      -1.341  11.485  19.784  0.00  0.00    +0.000 C 
BRANCH  21  24
ATOM     24  O   UNL     1       0.612  11.667  18.456  0.00  0.00    +0.000 OA
ATOM     25  H   UNL     1       0.890  11.369  17.564  0.00  0.00    +0.000 HD
ENDBRANCH  21  24
ENDBRANCH  20  21
BRANCH  20  26
ATOM     26  O   UNL     1      -0.525   8.695  20.425  0.00  0.00    +0.000 OA
ATOM     27  H   UNL     1      -0.059   7.968  20.874  0.00  0.00    +0.000 HD
ENDBRANCH  20  26
BRANCH  20  28
ATOM     28  C   UNL     1       1.149  10.249  21.178  0.00  0.00    +0.000 C 
ATOM     29  C   UNL     1       0.487   9.987  22.525  0.00  0.00    +0.000 C 
BRANCH  28  30
ATOM     30  O   UNL     1       1.336  11.676  21.081  0.00  0.00    +0.000 OA
ATOM     31  H   UNL     1       2.072  11.871  20.478  0.00  0.00    +0.000 HD
ENDBRANCH  28  30
ENDBRANCH  20  28
ENDBRANCH  18  20
ENDBRANCH  17  18
ENDBRANCH   1  17
TORSDOF 12
ENDMDL
MODEL 9
REMARK VINA RESULT:      -6.1      1.535      2.088
REMARK  Name = 
REMARK  17 active torsions:
REMARK  status: ('A' for Active; 'I' for Inactive)
REMARK    1  A    between atoms: C_1  and  C_2
REMARK    2  A    between atoms: C_3  and  C_4
REMARK    3  A    between atoms: C_3  and  C_5
REMARK    4  A    between atoms: C_5  and  O_7
REMARK    5  A    between atoms: O_7  and  C_8
REMARK    6  A    between atoms: C_14  and  C_15
REMARK    7  A    between atoms: C_15  and  O_16
REMARK    8  A    between atoms: O_16  and  C_17
REMARK    9  A    between atoms: C_17  and  C_19
REMARK   10  A    between atoms: C_19  and  O_20
REMARK   11  A    between atoms: C_19  and  C_21
REMARK   12  A    between atoms: C_19  and  C_24
REMARK   13  A    between atoms: C_21  and  C_22
REMARK   14  A    between atoms: C_21  and  O_23
REMARK   15  A    between atoms: C_24  and  C_25
REMARK   16  A    between atoms: C_24  and  C_26
REMARK   17  A    between atoms: C_24  and  O_27
REMARK                            x       y       z     vdW  Elec       q    Type
REMARK                         _______ _______ _______ _____ _____    ______ ____
ROOT
ATOM      1  C   UNL     1       3.023   7.391  17.308  0.00  0.00    +0.000 C 
ENDROOT
BRANCH   1   8
ATOM      2  C   UNL     1       1.974   7.309  20.460  0.00  0.00    +0.000 C 
ATOM      3  C   UNL     1       1.060   7.861  21.546  0.00  0.00    +0.000 C 
ATOM      4  C   UNL     1       0.237   8.936  20.852  0.00  0.00    +0.000 C 
ATOM      5  N   UNL     1       1.098   9.502  19.814  0.00  0.00    +0.000 NA
ATOM      6  C   UNL     1       0.380   9.796  18.558  0.00  0.00    +0.000 C 
ATOM      7  C   UNL     1       1.068   8.994  17.509  0.00  0.00    +0.000 C 
ATOM      8  C   UNL     1       2.062   8.271  18.030  0.00  0.00    +0.000 C 
ATOM      9  C   UNL     1       2.154   8.501  19.501  0.00  0.00    +0.000 C 
BRANCH   2  10
ATOM     10  O   UNL     1       1.365   6.167  19.828  0.00  0.00    +0.000 OA
BRANCH  10  11
ATOM     11  C   UNL     1       1.844   4.961  20.232  0.00  0.00    +0.000 C 
ATOM     12  O   UNL     1       2.117   4.670  21.387  0.00  0.00    +0.000 OA
BRANCH  11  15
ATOM     13  C   UNL     1       3.775   2.491  20.230  0.00  0.00    +0.000 C 
ATOM     14  C   UNL     1       2.897   2.951  19.112  0.00  0.00    +0.000 C 
ATOM     15  C   UNL     1       2.074   4.017  19.097  0.00  0.00    +0.000 C 
ATOM     16  C   UNL     1       1.291   4.363  17.855  0.00  0.00    +0.000 C 
ENDBRANCH  11  15
ENDBRANCH  10  11
ENDBRANCH   2  10
ENDBRANCH   1   8
BRANCH   1  17
ATOM     17  O   UNL     1       4.344   7.595  17.836  0.00  0.00    +0.000 OA
BRANCH  17  18
ATOM     18  C   UNL     1       5.061   6.462  18.095  0.00  0.00    +0.000 C 
ATOM     19  O   UNL     1       4.931   5.770  19.097  0.00  0.00    +0.000 OA
BRANCH  18  20
ATOM     20  C   UNL     1       6.065   6.158  16.955  0.00  0.00    +0.000 C 
BRANCH  20  21
ATOM     21  C   UNL     1       6.103   4.594  16.719  0.00  0.00    +0.000 C 
ATOM     22  C   UNL     1       4.750   4.035  16.239  0.00  0.00    +0.000 C 
ATOM     23  C   UNL     1       7.164   4.202  15.678  0.00  0.00    +0.000 C 
BRANCH  21  24
ATOM     24  O   UNL     1       6.442   3.867  17.909  0.00  0.00    +0.000 OA
ATOM     25  H   UNL     1       5.898   3.052  17.938  0.00  0.00    +0.000 HD
ENDBRANCH  21  24
ENDBRANCH  20  21
BRANCH  20  26
ATOM     26  O   UNL     1       5.669   6.804  15.723  0.00  0.00    +0.000 OA
ATOM     27  H   UNL     1       4.732   6.606  15.552  0.00  0.00    +0.000 HD
ENDBRANCH  20  26
BRANCH  20  28
ATOM     28  C   UNL     1       7.446   6.785  17.344  0.00  0.00    +0.000 C 
ATOM     29  C   UNL     1       7.965   6.485  18.746  0.00  0.00    +0.000 C 
BRANCH  28  30
ATOM     30  O   UNL     1       7.482   8.219  17.190  0.00  0.00    +0.000 OA
ATOM     31  H   UNL     1       7.974   8.616  17.927  0.00  0.00    +0.000 HD
ENDBRANCH  28  30
ENDBRANCH  20  28
ENDBRANCH  18  20
ENDBRANCH  17  18
ENDBRANCH   1  17
TORSDOF 12
ENDMDL
