MODEL 1
REMARK VINA RESULT:      -5.7      0.000      0.000
REMARK  Name = 
REMARK  5 active torsions:
REMARK  status: ('A' for Active; 'I' for Inactive)
REMARK    1  A    between atoms: N_1  and  C_2
REMARK    2  A    between atoms: C_9  and  N_10
REMARK    3  A    between atoms: C_13  and  C_14
REMARK    4  A    between atoms: C_14  and  C_16
REMARK    5  A    between atoms: C_23  and  O_24
REMARK                            x       y       z     vdW  Elec       q    Type
REMARK                         _______ _______ _______ _____ _____    ______ ____
ROOT
ATOM      1  C   UNL     1       6.413   5.694  16.913  0.00  0.00    +0.000 A 
ATOM      2  C   UNL     1       6.635   5.604  15.533  0.00  0.00    +0.000 A 
ATOM      3  C   UNL     1       6.120   4.545  14.790  0.00  0.00    +0.000 A 
ATOM      4  C   UNL     1       5.341   3.578  15.414  0.00  0.00    +0.000 A 
ATOM      5  C   UNL     1       5.034   3.682  16.779  0.00  0.00    +0.000 A 
ATOM      6  C   UNL     1       5.542   4.767  17.528  0.00  0.00    +0.000 A 
ATOM      7  C   UNL     1       5.156   4.904  18.986  0.00  0.00    +0.000 C 
ATOM      8  C   UNL     1       3.758   4.309  19.327  0.00  0.00    +0.000 C 
ATOM      9  C   UNL     1       3.809   2.822  18.878  0.00  0.00    +0.000 C 
ATOM     10  C   UNL     1       4.086   2.661  17.375  0.00  0.00    +0.000 C 
ENDROOT
BRANCH   8  11
ATOM     11  N   UNL     1       2.589   5.044  18.756  0.00  0.00    +0.000 NA
ATOM     12  C   UNL     1       2.884   6.371  18.201  0.00  0.00    +0.000 C 
ATOM     13  C   UNL     1       3.288   7.373  19.285  0.00  0.00    +0.000 C 
ATOM     14  C   UNL     1       2.198   7.554  20.346  0.00  0.00    +0.000 C 
ATOM     15  C   UNL     1       1.585   6.213  20.781  0.00  0.00    +0.000 C 
ATOM     16  C   UNL     1       1.435   5.169  19.661  0.00  0.00    +0.000 C 
BRANCH  14  17
ATOM     17  C   UNL     1       1.137   8.568  19.881  0.00  0.00    +0.000 C 
ATOM     18  O   UNL     1       0.927   8.725  18.677  0.00  0.00    +0.000 OA
BRANCH  17  19
ATOM     19  C   UNL     1       0.427   9.335  20.912  0.00  0.00    +0.000 A 
ATOM     20  C   UNL     1       0.277   9.101  22.268  0.00  0.00    +0.000 A 
ATOM     21  C   UNL     1      -0.503  10.101  22.920  0.00  0.00    +0.000 A 
ATOM     22  C   UNL     1      -0.920  11.083  22.048  0.00  0.00    +0.000 A 
ATOM     23  S   UNL     1      -0.370  10.789  20.456  0.00  0.00    +0.000 S 
ENDBRANCH  17  19
ENDBRANCH  14  17
ENDBRANCH   8  11
BRANCH   1  24
ATOM     24  N   UNL     1       6.878   6.836  17.588  0.00  0.00    +0.000 N 
ATOM     25  H   UNL     1       6.139   7.383  18.017  0.00  0.00    +0.000 HD
ATOM     26  H   UNL     1       7.498   7.415  17.031  0.00  0.00    +0.000 HD
ENDBRANCH   1  24
BRANCH   9  27
ATOM     27  O   UNL     1       4.804   2.109  19.638  0.00  0.00    +0.000 OA
ATOM     28  H   UNL     1       4.600   2.231  20.583  0.00  0.00    +0.000 HD
ENDBRANCH   9  27
TORSDOF 5
ENDMDL
MODEL 2
REMARK VINA RESULT:      -5.7      3.819      8.418
REMARK  Name = 
REMARK  5 active torsions:
REMARK  status: ('A' for Active; 'I' for Inactive)
REMARK    1  A    between atoms: N_1  and  C_2
REMARK    2  A    between atoms: C_9  and  N_10
REMARK    3  A    between atoms: C_13  and  C_14
REMARK    4  A    between atoms: C_14  and  C_16
REMARK    5  A    between atoms: C_23  and  O_24
REMARK                            x       y       z     vdW  Elec       q    Type
REMARK                         _______ _______ _______ _____ _____    ______ ____
ROOT
ATOM      1  C   UNL     1      -1.409  11.726  22.128  0.00  0.00    +0.000 A 
ATOM      2  C   UNL     1      -2.718  12.195  21.958  0.00  0.00    +0.000 A 
ATOM      3  C   UNL     1      -3.103  12.839  20.785  0.00  0.00    +0.000 A 
ATOM      4  C   UNL     1      -2.192  12.988  19.747  0.00  0.00    +0.000 A 
ATOM      5  C   UNL     1      -0.897  12.458  19.855  0.00  0.00    +0.000 A 
ATOM      6  C   UNL     1      -0.513  11.789  21.039  0.00  0.00    +0.000 A 
ATOM      7  C   UNL     1       0.866  11.168  21.123  0.00  0.00    +0.000 C 
ATOM      8  C   UNL     1       1.436  10.708  19.748  0.00  0.00    +0.000 C 
ATOM      9  C   UNL     1       1.423  11.969  18.840  0.00  0.00    +0.000 C 
ATOM     10  C   UNL     1       0.013  12.551  18.647  0.00  0.00    +0.000 C 
ENDROOT
BRANCH   8  11
ATOM     11  N   UNL     1       0.744   9.540  19.124  0.00  0.00    +0.000 NA
ATOM     12  C   UNL     1       0.529   8.386  20.004  0.00  0.00    +0.000 C 
ATOM     13  C   UNL     1       1.843   7.703  20.393  0.00  0.00    +0.000 C 
ATOM     14  C   UNL     1       2.624   7.207  19.172  0.00  0.00    +0.000 C 
ATOM     15  C   UNL     1       2.645   8.244  18.038  0.00  0.00    +0.000 C 
ATOM     16  C   UNL     1       1.350   9.059  17.873  0.00  0.00    +0.000 C 
BRANCH  14  17
ATOM     17  C   UNL     1       2.110   5.831  18.709  0.00  0.00    +0.000 C 
ATOM     18  O   UNL     1       1.699   5.688  17.556  0.00  0.00    +0.000 OA
BRANCH  17  19
ATOM     19  C   UNL     1       2.109   4.738  19.687  0.00  0.00    +0.000 A 
ATOM     20  C   UNL     1       1.113   4.286  20.536  0.00  0.00    +0.000 A 
ATOM     21  C   UNL     1       1.528   3.185  21.341  0.00  0.00    +0.000 A 
ATOM     22  C   UNL     1       2.829   2.814  21.081  0.00  0.00    +0.000 A 
ATOM     23  S   UNL     1       3.535   3.794  19.871  0.00  0.00    +0.000 S 
ENDBRANCH  17  19
ENDBRANCH  14  17
ENDBRANCH   8  11
BRANCH   1  24
ATOM     24  N   UNL     1      -1.110  11.001  23.295  0.00  0.00    +0.000 N 
ATOM     25  H   UNL     1      -1.926  10.595  23.741  0.00  0.00    +0.000 HD
ATOM     26  H   UNL     1      -0.536  11.512  23.958  0.00  0.00    +0.000 HD
ENDBRANCH   1  24
BRANCH   9  27
ATOM     27  O   UNL     1       2.298  12.978  19.380  0.00  0.00    +0.000 OA
ATOM     28  H   UNL     1       2.230  12.941  20.351  0.00  0.00    +0.000 HD
ENDBRANCH   9  27
TORSDOF 5
ENDMDL
MODEL 3
REMARK VINA RESULT:      -5.6      8.689     10.146
REMARK  Name = 
REMARK  5 active torsions:
REMARK  status: ('A' for Active; 'I' for Inactive)
REMARK    1  A    between atoms: N_1  and  C_2
REMARK    2  A    between atoms: C_9  and  N_10
REMARK    3  A    between atoms: C_13  and  C_14
REMARK    4  A    between atoms: C_14  and  C_16
REMARK    5  A    between atoms: C_23  and  O_24
REMARK                            x       y       z     vdW  Elec       q    Type
REMARK                         _______ _______ _______ _____ _____    ______ ____
ROOT
ATOM      1  C   UNL     1      11.219  13.941  17.480  0.00  0.00    +0.000 A 
ATOM      2  C   UNL     1      11.615  12.627  17.204  0.00  0.00    +0.000 A 
ATOM      3  C   UNL     1      11.562  11.640  18.184  0.00  0.00    +0.000 A 
ATOM      4  C   UNL     1      11.073  11.948  19.448  0.00  0.00    +0.000 A 
ATOM      5  C   UNL     1      10.594  13.236  19.732  0.00  0.00    +0.000 A 
ATOM      6  C   UNL     1      10.632  14.231  18.731  0.00  0.00    +0.000 A 
ATOM      7  C   UNL     1      10.058  15.601  19.028  0.00  0.00    +0.000 C 
ATOM      8  C   UNL     1       8.899  15.586  20.069  0.00  0.00    +0.000 C 
ATOM      9  C   UNL     1       9.482  14.914  21.343  0.00  0.00    +0.000 C 
ATOM     10  C   UNL     1       9.968  13.477  21.091  0.00  0.00    +0.000 C 
ENDROOT
BRANCH   8  11
ATOM     11  N   UNL     1       7.629  14.948  19.609  0.00  0.00    +0.000 NA
ATOM     12  C   UNL     1       7.047  15.504  18.382  0.00  0.00    +0.000 C 
ATOM     13  C   UNL     1       6.535  16.933  18.583  0.00  0.00    +0.000 C 
ATOM     14  C   UNL     1       5.465  17.020  19.676  0.00  0.00    +0.000 C 
ATOM     15  C   UNL     1       5.838  16.195  20.917  0.00  0.00    +0.000 C 
ATOM     16  C   UNL     1       6.570  14.873  20.629  0.00  0.00    +0.000 C 
BRANCH  14  17
ATOM     17  C   UNL     1       4.075  16.659  19.119  0.00  0.00    +0.000 C 
ATOM     18  O   UNL     1       3.707  17.131  18.042  0.00  0.00    +0.000 OA
BRANCH  17  19
ATOM     19  C   UNL     1       3.227  15.772  19.923  0.00  0.00    +0.000 A 
ATOM     20  C   UNL     1       2.502  16.017  21.077  0.00  0.00    +0.000 A 
ATOM     21  C   UNL     1       1.806  14.866  21.549  0.00  0.00    +0.000 A 
ATOM     22  C   UNL     1       2.005  13.771  20.738  0.00  0.00    +0.000 A 
ATOM     23  S   UNL     1       3.028  14.140  19.418  0.00  0.00    +0.000 S 
ENDBRANCH  17  19
ENDBRANCH  14  17
ENDBRANCH   8  11
BRANCH   1  24
ATOM     24  N   UNL     1      11.207  14.867  16.421  0.00  0.00    +0.000 N 
ATOM     25  H   UNL     1      11.198  15.835  16.728  0.00  0.00    +0.000 HD
ATOM     26  H   UNL     1      10.487  14.688  15.729  0.00  0.00    +0.000 HD
ENDBRANCH   1  24
BRANCH   9  27
ATOM     27  O   UNL     1      10.561  15.708  21.874  0.00  0.00    +0.000 OA
ATOM     28  H   UNL     1      11.371  15.471  21.387  0.00  0.00    +0.000 HD
ENDBRANCH   9  27
TORSDOF 5
ENDMDL
MODEL 4
REMARK VINA RESULT:      -5.6      3.484      8.909
REMARK  Name = 
REMARK  5 active torsions:
REMARK  status: ('A' for Active; 'I' for Inactive)
REMARK    1  A    between atoms: N_1  and  C_2
REMARK    2  A    between atoms: C_9  and  N_10
REMARK    3  A    between atoms: C_13  and  C_14
REMARK    4  A    between atoms: C_14  and  C_16
REMARK    5  A    between atoms: C_23  and  O_24
REMARK                            x       y       z     vdW  Elec       q    Type
REMARK                         _______ _______ _______ _____ _____    ______ ____
ROOT
ATOM      1  C   UNL     1      -2.005  12.257  22.184  0.00  0.00    +0.000 A 
ATOM      2  C   UNL     1      -3.380  12.503  22.084  0.00  0.00    +0.000 A 
ATOM      3  C   UNL     1      -3.969  12.800  20.858  0.00  0.00    +0.000 A 
ATOM      4  C   UNL     1      -3.193  12.815  19.705  0.00  0.00    +0.000 A 
ATOM      5  C   UNL     1      -1.828  12.494  19.760  0.00  0.00    +0.000 A 
ATOM      6  C   UNL     1      -1.236  12.176  21.002  0.00  0.00    +0.000 A 
ATOM      7  C   UNL     1       0.224  11.773  21.044  0.00  0.00    +0.000 C 
ATOM      8  C   UNL     1       0.723  11.079  19.742  0.00  0.00    +0.000 C 
ATOM      9  C   UNL     1       0.432  12.080  18.589  0.00  0.00    +0.000 C 
ATOM     10  C   UNL     1      -1.062  12.416  18.455  0.00  0.00    +0.000 C 
ENDROOT
BRANCH   8  11
ATOM     11  N   UNL     1       0.162   9.719  19.482  0.00  0.00    +0.000 NA
ATOM     12  C   UNL     1       0.107   8.823  20.642  0.00  0.00    +0.000 C 
ATOM     13  C   UNL     1       1.502   8.415  21.123  0.00  0.00    +0.000 C 
ATOM     14  C   UNL     1       2.308   7.702  20.033  0.00  0.00    +0.000 C 
ATOM     15  C   UNL     1       2.178   8.398  18.669  0.00  0.00    +0.000 C 
ATOM     16  C   UNL     1       0.792   8.993  18.368  0.00  0.00    +0.000 C 
BRANCH  14  17
ATOM     17  C   UNL     1       1.952   6.205  19.972  0.00  0.00    +0.000 C 
ATOM     18  O   UNL     1       1.111   5.745  20.746  0.00  0.00    +0.000 OA
BRANCH  17  19
ATOM     19  C   UNL     1       2.662   5.373  18.994  0.00  0.00    +0.000 A 
ATOM     20  C   UNL     1       2.188   4.637  17.921  0.00  0.00    +0.000 A 
ATOM     21  C   UNL     1       3.224   3.957  17.215  0.00  0.00    +0.000 A 
ATOM     22  C   UNL     1       4.466   4.199  17.758  0.00  0.00    +0.000 A 
ATOM     23  S   UNL     1       4.373   5.240  19.111  0.00  0.00    +0.000 S 
ENDBRANCH  17  19
ENDBRANCH  14  17
ENDBRANCH   8  11
BRANCH   1  24
ATOM     24  N   UNL     1      -1.489  11.870  23.434  0.00  0.00    +0.000 N 
ATOM     25  H   UNL     1      -0.587  11.409  23.375  0.00  0.00    +0.000 HD
ATOM     26  H   UNL     1      -2.144  11.341  24.001  0.00  0.00    +0.000 HD
ENDBRANCH   1  24
BRANCH   9  27
ATOM     27  O   UNL     1       1.190  13.290  18.780  0.00  0.00    +0.000 OA
ATOM     28  H   UNL     1       2.127  13.041  18.877  0.00  0.00    +0.000 HD
ENDBRANCH   9  27
TORSDOF 5
ENDMDL
MODEL 5
REMARK VINA RESULT:      -5.5      9.480     10.399
REMARK  Name = 
REMARK  5 active torsions:
REMARK  status: ('A' for Active; 'I' for Inactive)
REMARK    1  A    between atoms: N_1  and  C_2
REMARK    2  A    between atoms: C_9  and  N_10
REMARK    3  A    between atoms: C_13  and  C_14
REMARK    4  A    between atoms: C_14  and  C_16
REMARK    5  A    between atoms: C_23  and  O_24
REMARK                            x       y       z     vdW  Elec       q    Type
REMARK                         _______ _______ _______ _____ _____    ______ ____
ROOT
ATOM      1  C   UNL     1      11.311  13.458  17.614  0.00  0.00    +0.000 A 
ATOM      2  C   UNL     1      11.848  12.167  17.690  0.00  0.00    +0.000 A 
ATOM      3  C   UNL     1      11.970  11.510  18.911  0.00  0.00    +0.000 A 
ATOM      4  C   UNL     1      11.518  12.124  20.074  0.00  0.00    +0.000 A 
ATOM      5  C   UNL     1      10.902  13.384  20.021  0.00  0.00    +0.000 A 
ATOM      6  C   UNL     1      10.763  14.041  18.778  0.00  0.00    +0.000 A 
ATOM      7  C   UNL     1      10.045  15.373  18.722  0.00  0.00    +0.000 C 
ATOM      8  C   UNL     1       8.956  15.548  19.823  0.00  0.00    +0.000 C 
ATOM      9  C   UNL     1       9.686  15.340  21.179  0.00  0.00    +0.000 C 
ATOM     10  C   UNL     1      10.328  13.949  21.304  0.00  0.00    +0.000 C 
ENDROOT
BRANCH   8  11
ATOM     11  N   UNL     1       7.749  14.680  19.678  0.00  0.00    +0.000 NA
ATOM     12  C   UNL     1       6.926  14.929  18.488  0.00  0.00    +0.000 C 
ATOM     13  C   UNL     1       6.232  16.293  18.543  0.00  0.00    +0.000 C 
ATOM     14  C   UNL     1       5.320  16.432  19.766  0.00  0.00    +0.000 C 
ATOM     15  C   UNL     1       5.982  15.896  21.046  0.00  0.00    +0.000 C 
ATOM     16  C   UNL     1       6.864  14.650  20.853  0.00  0.00    +0.000 C 
BRANCH  14  17
ATOM     17  C   UNL     1       3.941  15.801  19.503  0.00  0.00    +0.000 C 
ATOM     18  O   UNL     1       3.776  14.594  19.684  0.00  0.00    +0.000 OA
BRANCH  17  19
ATOM     19  C   UNL     1       2.870  16.679  19.016  0.00  0.00    +0.000 A 
ATOM     20  C   UNL     1       1.996  17.505  19.703  0.00  0.00    +0.000 A 
ATOM     21  C   UNL     1       1.093  18.194  18.841  0.00  0.00    +0.000 A 
ATOM     22  C   UNL     1       1.305  17.886  17.515  0.00  0.00    +0.000 A 
ATOM     23  S   UNL     1       2.587  16.773  17.322  0.00  0.00    +0.000 S 
ENDBRANCH  17  19
ENDBRANCH  14  17
ENDBRANCH   8  11
BRANCH   1  24
ATOM     24  N   UNL     1      11.127  14.027  16.341  0.00  0.00    +0.000 N 
ATOM     25  H   UNL     1      10.631  13.423  15.694  0.00  0.00    +0.000 HD
ATOM     26  H   UNL     1      11.979  14.396  15.932  0.00  0.00    +0.000 HD
ENDBRANCH   1  24
BRANCH   9  27
ATOM     27  O   UNL     1      10.688  16.359  21.363  0.00  0.00    +0.000 OA
ATOM     28  H   UNL     1      11.518  15.916  21.618  0.00  0.00    +0.000 HD
ENDBRANCH   9  27
TORSDOF 5
ENDMDL
MODEL 6
REMARK VINA RESULT:      -5.5      3.722      9.297
REMARK  Name = 
REMARK  5 active torsions:
REMARK  status: ('A' for Active; 'I' for Inactive)
REMARK    1  A    between atoms: N_1  and  C_2
REMARK    2  A    between atoms: C_9  and  N_10
REMARK    3  A    between atoms: C_13  and  C_14
REMARK    4  A    between atoms: C_14  and  C_16
REMARK    5  A    between atoms: C_23  and  O_24
REMARK                            x       y       z     vdW  Elec       q    Type
REMARK                         _______ _______ _______ _____ _____    ______ ____
ROOT
ATOM      1  C   UNL     1      -2.280  12.766  22.144  0.00  0.00    +0.000 A 
ATOM      2  C   UNL     1      -3.624  12.736  22.538  0.00  0.00    +0.000 A 
ATOM      3  C   UNL     1      -4.646  12.626  21.599  0.00  0.00    +0.000 A 
ATOM      4  C   UNL     1      -4.334  12.504  20.250  0.00  0.00    +0.000 A 
ATOM      5  C   UNL     1      -2.996  12.450  19.830  0.00  0.00    +0.000 A 
ATOM      6  C   UNL     1      -1.960  12.544  20.787  0.00  0.00    +0.000 A 
ATOM      7  C   UNL     1      -0.521  12.424  20.331  0.00  0.00    +0.000 C 
ATOM      8  C   UNL     1      -0.332  11.540  19.062  0.00  0.00    +0.000 C 
ATOM      9  C   UNL     1      -1.236  12.173  17.967  0.00  0.00    +0.000 C 
ATOM     10  C   UNL     1      -2.721  12.200  18.362  0.00  0.00    +0.000 C 
ENDROOT
BRANCH   8  11
ATOM     11  N   UNL     1      -0.589  10.081  19.251  0.00  0.00    +0.000 NA
ATOM     12  C   UNL     1      -0.058   9.498  20.489  0.00  0.00    +0.000 C 
ATOM     13  C   UNL     1       1.473   9.472  20.503  0.00  0.00    +0.000 C 
ATOM     14  C   UNL     1       2.053   8.670  19.334  0.00  0.00    +0.000 C 
ATOM     15  C   UNL     1       1.339   8.980  18.009  0.00  0.00    +0.000 C 
ATOM     16  C   UNL     1      -0.175   9.229  18.125  0.00  0.00    +0.000 C 
BRANCH  14  17
ATOM     17  C   UNL     1       2.080   7.164  19.656  0.00  0.00    +0.000 C 
ATOM     18  O   UNL     1       1.539   6.749  20.682  0.00  0.00    +0.000 OA
BRANCH  17  19
ATOM     19  C   UNL     1       2.784   6.279  18.722  0.00  0.00    +0.000 A 
ATOM     20  C   UNL     1       3.881   6.511  17.910  0.00  0.00    +0.000 A 
ATOM     21  C   UNL     1       4.253   5.370  17.141  0.00  0.00    +0.000 A 
ATOM     22  C   UNL     1       3.438   4.288  17.392  0.00  0.00    +0.000 A 
ATOM     23  S   UNL     1       2.235   4.658  18.549  0.00  0.00    +0.000 S 
ENDBRANCH  17  19
ENDBRANCH  14  17
ENDBRANCH   8  11
BRANCH   1  24
ATOM     24  N   UNL     1      -1.294  12.783  23.146  0.00  0.00    +0.000 N 
ATOM     25  H   UNL     1      -1.447  13.494  23.854  0.00  0.00    +0.000 HD
ATOM     26  H   UNL     1      -0.346  12.810  22.787  0.00  0.00    +0.000 HD
ENDBRANCH   1  24
BRANCH   9  27
ATOM     27  O   UNL     1      -0.786  13.507  17.663  0.00  0.00    +0.000 OA
ATOM     28  H   UNL     1      -0.020  13.433  17.064  0.00  0.00    +0.000 HD
ENDBRANCH   9  27
TORSDOF 5
ENDMDL
MODEL 7
REMARK VINA RESULT:      -5.4      1.273      1.598
REMARK  Name = 
REMARK  5 active torsions:
REMARK  status: ('A' for Active; 'I' for Inactive)
REMARK    1  A    between atoms: N_1  and  C_2
REMARK    2  A    between atoms: C_9  and  N_10
REMARK    3  A    between atoms: C_13  and  C_14
REMARK    4  A    between atoms: C_14  and  C_16
REMARK    5  A    between atoms: C_23  and  O_24
REMARK                            x       y       z     vdW  Elec       q    Type
REMARK                         _______ _______ _______ _____ _____    ______ ____
ROOT
ATOM      1  C   UNL     1       6.013   5.998  16.475  0.00  0.00    +0.000 A 
ATOM      2  C   UNL     1       6.032   5.763  15.095  0.00  0.00    +0.000 A 
ATOM      3  C   UNL     1       5.511   4.588  14.559  0.00  0.00    +0.000 A 
ATOM      4  C   UNL     1       4.927   3.646  15.397  0.00  0.00    +0.000 A 
ATOM      5  C   UNL     1       4.821   3.888  16.775  0.00  0.00    +0.000 A 
ATOM      6  C   UNL     1       5.334   5.088  17.315  0.00  0.00    +0.000 A 
ATOM      7  C   UNL     1       5.162   5.367  18.794  0.00  0.00    +0.000 C 
ATOM      8  C   UNL     1       3.891   4.714  19.415  0.00  0.00    +0.000 C 
ATOM      9  C   UNL     1       4.010   3.192  19.122  0.00  0.00    +0.000 C 
ATOM     10  C   UNL     1       4.072   2.877  17.619  0.00  0.00    +0.000 C 
ENDROOT
BRANCH   8  11
ATOM     11  N   UNL     1       2.587   5.288  18.964  0.00  0.00    +0.000 NA
ATOM     12  C   UNL     1       2.593   6.727  18.677  0.00  0.00    +0.000 C 
ATOM     13  C   UNL     1       2.798   7.567  19.940  0.00  0.00    +0.000 C 
ATOM     14  C   UNL     1       1.710   7.315  20.989  0.00  0.00    +0.000 C 
ATOM     15  C   UNL     1       1.395   5.820  21.148  0.00  0.00    +0.000 C 
ATOM     16  C   UNL     1       1.447   4.999  19.848  0.00  0.00    +0.000 C 
BRANCH  14  17
ATOM     17  C   UNL     1       0.456   8.159  20.698  0.00  0.00    +0.000 C 
ATOM     18  O   UNL     1      -0.660   7.709  20.964  0.00  0.00    +0.000 OA
BRANCH  17  19
ATOM     19  C   UNL     1       0.647   9.477  20.082  0.00  0.00    +0.000 A 
ATOM     20  C   UNL     1       0.686   9.855  18.750  0.00  0.00    +0.000 A 
ATOM     21  C   UNL     1       0.901  11.254  18.577  0.00  0.00    +0.000 A 
ATOM     22  C   UNL     1       1.009  11.914  19.781  0.00  0.00    +0.000 A 
ATOM     23  S   UNL     1       0.852  10.844  21.105  0.00  0.00    +0.000 S 
ENDBRANCH  17  19
ENDBRANCH  14  17
ENDBRANCH   8  11
BRANCH   1  24
ATOM     24  N   UNL     1       6.469   7.243  16.943  0.00  0.00    +0.000 N 
ATOM     25  H   UNL     1       7.458   7.401  16.782  0.00  0.00    +0.000 HD
ATOM     26  H   UNL     1       6.211   7.437  17.905  0.00  0.00    +0.000 HD
ENDBRANCH   1  24
BRANCH   9  27
ATOM     27  O   UNL     1       5.170   2.649  19.783  0.00  0.00    +0.000 OA
ATOM     28  H   UNL     1       5.813   3.373  19.895  0.00  0.00    +0.000 HD
ENDBRANCH   9  27
TORSDOF 5
ENDMDL
MODEL 8
REMARK VINA RESULT:      -5.4      6.331      9.385
REMARK  Name = 
REMARK  5 active torsions:
REMARK  status: ('A' for Active; 'I' for Inactive)
REMARK    1  A    between atoms: N_1  and  C_2
REMARK    2  A    between atoms: C_9  and  N_10
REMARK    3  A    between atoms: C_13  and  C_14
REMARK    4  A    between atoms: C_14  and  C_16
REMARK    5  A    between atoms: C_23  and  O_24
REMARK                            x       y       z     vdW  Elec       q    Type
REMARK                         _______ _______ _______ _____ _____    ______ ____
ROOT
ATOM      1  C   UNL     1      -1.199  11.257  22.419  0.00  0.00    +0.000 A 
ATOM      2  C   UNL     1      -0.873  10.243  23.328  0.00  0.00    +0.000 A 
ATOM      3  C   UNL     1      -0.043   9.187  22.961  0.00  0.00    +0.000 A 
ATOM      4  C   UNL     1       0.506   9.153  21.684  0.00  0.00    +0.000 A 
ATOM      5  C   UNL     1       0.264  10.195  20.776  0.00  0.00    +0.000 A 
ATOM      6  C   UNL     1      -0.565  11.274  21.157  0.00  0.00    +0.000 A 
ATOM      7  C   UNL     1      -0.773  12.423  20.192  0.00  0.00    +0.000 C 
ATOM      8  C   UNL     1       0.430  12.665  19.232  0.00  0.00    +0.000 C 
ATOM      9  C   UNL     1       0.656  11.319  18.489  0.00  0.00    +0.000 C 
ATOM     10  C   UNL     1       0.982  10.158  19.443  0.00  0.00    +0.000 C 
ENDROOT
BRANCH   8  11
ATOM     11  N   UNL     1       1.673  13.185  19.876  0.00  0.00    +0.000 NA
ATOM     12  C   UNL     1       1.504  14.381  20.709  0.00  0.00    +0.000 C 
ATOM     13  C   UNL     1       1.132  15.614  19.880  0.00  0.00    +0.000 C 
ATOM     14  C   UNL     1       2.188  15.942  18.820  0.00  0.00    +0.000 C 
ATOM     15  C   UNL     1       2.678  14.686  18.084  0.00  0.00    +0.000 C 
ATOM     16  C   UNL     1       2.795  13.422  18.953  0.00  0.00    +0.000 C 
BRANCH  14  17
ATOM     17  C   UNL     1       3.342  16.764  19.424  0.00  0.00    +0.000 C 
ATOM     18  O   UNL     1       3.143  17.927  19.779  0.00  0.00    +0.000 OA
BRANCH  17  19
ATOM     19  C   UNL     1       4.656  16.121  19.530  0.00  0.00    +0.000 A 
ATOM     20  C   UNL     1       5.664  15.968  18.592  0.00  0.00    +0.000 A 
ATOM     21  C   UNL     1       6.796  15.268  19.105  0.00  0.00    +0.000 A 
ATOM     22  C   UNL     1       6.630  14.913  20.426  0.00  0.00    +0.000 A 
ATOM     23  S   UNL     1       5.117  15.425  21.033  0.00  0.00    +0.000 S 
ENDBRANCH  17  19
ENDBRANCH  14  17
ENDBRANCH   8  11
BRANCH   1  24
ATOM     24  N   UNL     1      -1.964  12.343  22.880  0.00  0.00    +0.000 N 
ATOM     25  H   UNL     1      -1.442  12.987  23.465  0.00  0.00    +0.000 HD
ATOM     26  H   UNL     1      -2.840  12.070  23.313  0.00  0.00    +0.000 HD
ENDBRANCH   1  24
BRANCH   9  27
ATOM     27  O   UNL     1      -0.501  10.989  17.696  0.00  0.00    +0.000 OA
ATOM     28  H   UNL     1      -1.193  10.665  18.301  0.00  0.00    +0.000 HD
ENDBRANCH   9  27
TORSDOF 5
ENDMDL
MODEL 9
REMARK VINA RESULT:      -5.4      5.377     11.616
REMARK  Name = 
REMARK  5 active torsions:
REMARK  status: ('A' for Active; 'I' for Inactive)
REMARK    1  A    between atoms: N_1  and  C_2
REMARK    2  A    between atoms: C_9  and  N_10
REMARK    3  A    between atoms: C_13  and  C_14
REMARK    4  A    between atoms: C_14  and  C_16
REMARK    5  A    between atoms: C_23  and  O_24
REMARK                            x       y       z     vdW  Elec       q    Type
REMARK                         _______ _______ _______ _____ _____    ______ ____
ROOT
ATOM      1  C   UNL     1      -5.330  15.712  21.509  0.00  0.00    +0.000 A 
ATOM      2  C   UNL     1      -5.308  17.045  21.939  0.00  0.00    +0.000 A 
ATOM      3  C   UNL     1      -4.848  17.382  23.209  0.00  0.00    +0.000 A 
ATOM      4  C   UNL     1      -4.363  16.390  24.054  0.00  0.00    +0.000 A 
ATOM      5  C   UNL     1      -4.297  15.056  23.622  0.00  0.00    +0.000 A 
ATOM      6  C   UNL     1      -4.749  14.719  22.327  0.00  0.00    +0.000 A 
ATOM      7  C   UNL     1      -4.618  13.288  21.848  0.00  0.00    +0.000 C 
ATOM      8  C   UNL     1      -3.420  12.518  22.481  0.00  0.00    +0.000 C 
ATOM      9  C   UNL     1      -3.632  12.597  24.019  0.00  0.00    +0.000 C 
ATOM     10  C   UNL     1      -3.653  14.041  24.545  0.00  0.00    +0.000 C 
ENDROOT
BRANCH   8  11
ATOM     11  N   UNL     1      -2.064  12.980  22.060  0.00  0.00    +0.000 NA
ATOM     12  C   UNL     1      -1.803  12.949  20.616  0.00  0.00    +0.000 C 
ATOM     13  C   UNL     1      -1.747  11.521  20.070  0.00  0.00    +0.000 C 
ATOM     14  C   UNL     1      -0.660  10.680  20.748  0.00  0.00    +0.000 C 
ATOM     15  C   UNL     1      -0.638  10.883  22.272  0.00  0.00    +0.000 C 
ATOM     16  C   UNL     1      -0.944  12.314  22.745  0.00  0.00    +0.000 C 
BRANCH  14  17
ATOM     17  C   UNL     1       0.714  10.924  20.098  0.00  0.00    +0.000 C 
ATOM     18  O   UNL     1       1.247  12.032  20.189  0.00  0.00    +0.000 OA
BRANCH  17  19
ATOM     19  C   UNL     1       1.329   9.813  19.362  0.00  0.00    +0.000 A 
ATOM     20  C   UNL     1       1.753   9.726  18.046  0.00  0.00    +0.000 A 
ATOM     21  C   UNL     1       2.297   8.448  17.724  0.00  0.00    +0.000 A 
ATOM     22  C   UNL     1       2.287   7.593  18.804  0.00  0.00    +0.000 A 
ATOM     23  S   UNL     1       1.623   8.336  20.192  0.00  0.00    +0.000 S 
ENDBRANCH  17  19
ENDBRANCH  14  17
ENDBRANCH   8  11
BRANCH   1  24
ATOM     24  N   UNL     1      -5.717  15.449  20.183  0.00  0.00    +0.000 N 
ATOM     25  H   UNL     1      -6.592  14.940  20.109  0.00  0.00    +0.000 HD
ATOM     26  H   UNL     1      -4.987  15.024  19.620  0.00  0.00    +0.000 HD
ENDBRANCH   1  24
BRANCH   9  27
ATOM     27  O   UNL     1      -4.851  11.924  24.387  0.00  0.00    +0.000 OA
ATOM     28  H   UNL     1      -5.336  12.505  25.002  0.00  0.00    +0.000 HD
ENDBRANCH   9  27
TORSDOF 5
ENDMDL
