MODEL 1
REMARK VINA RESULT:      -7.6      0.000      0.000
REMARK  Name = 
REMARK  13 active torsions:
REMARK  status: ('A' for Active; 'I' for Inactive)
REMARK    1  A    between atoms: C_1  and  C_2
REMARK    2  A    between atoms: C_2  and  C_3
REMARK    3  A    between atoms: C_4  and  C_5
REMARK    4  A    between atoms: C_6  and  C_7
REMARK    5  A    between atoms: C_7  and  C_8
REMARK    6  A    between atoms: C_8  and  C_9
REMARK    7  A    between atoms: C_9  and  O_10
REMARK    8  A    between atoms: O_10  and  C_11
REMARK    9  A    between atoms: C_14  and  C_15
REMARK   10  A    between atoms: C_15  and  C_16
REMARK   11  A    between atoms: C_15  and  C_17
REMARK   12  A    between atoms: C_17  and  O_19
REMARK   13  A    between atoms: O_19  and  C_20
REMARK                            x       y       z     vdW  Elec       q    Type
REMARK                         _______ _______ _______ _____ _____    ______ ____
ROOT
ATOM      1  C   UNL     1       5.482   5.793  17.083  0.00  0.00    +0.000 C 
ATOM      2  C   UNL     1       6.025   4.434  17.586  0.00  0.00    +0.000 C 
ATOM      3  C   UNL     1       5.442   4.082  18.959  0.00  0.00    +0.000 C 
ATOM      4  C   UNL     1       3.918   4.247  18.947  0.00  0.00    +0.000 C 
ATOM      5  O   UNL     1       3.688   5.627  18.612  0.00  0.00    +0.000 OA
ATOM      6  O   UNL     1       4.046   5.800  17.204  0.00  0.00    +0.000 OA
ENDROOT
BRANCH   1   7
ATOM      7  O   UNL     1       6.137   6.773  17.903  0.00  0.00    +0.000 OA
ATOM      8  C   UNL     1       7.535   6.897  17.723  0.00  0.00    +0.000 C 
ENDBRANCH   1   7
BRANCH   4   9
ATOM      9  C   UNL     1       3.181   3.278  17.998  0.00  0.00    +0.000 C 
ATOM     10  C   UNL     1       3.508   1.810  18.259  0.00  0.00    +0.000 C 
BRANCH   9  11
ATOM     11  C   UNL     1       1.688   3.475  18.130  0.00  0.00    +0.000 C 
ATOM     12  O   UNL     1       1.001   4.135  17.362  0.00  0.00    +0.000 OA
BRANCH  11  13
ATOM     13  O   UNL     1       1.235   2.861  19.261  0.00  0.00    +0.000 OA
ATOM     14  C   UNL     1       0.800   3.754  20.285  0.00  0.00    +0.000 C 
ENDBRANCH  11  13
ENDBRANCH   9  11
ENDBRANCH   4   9
BRANCH   1  15
ATOM     15  C   UNL     1       5.798   5.995  15.581  0.00  0.00    +0.000 C 
BRANCH  15  16
ATOM     16  C   UNL     1       6.407   4.754  14.908  0.00  0.00    +0.000 C 
BRANCH  16  18
ATOM     17  C   UNL     1       6.050   3.425  12.819  0.00  0.00    +0.000 C 
ATOM     18  C   UNL     1       5.586   4.281  13.742  0.00  0.00    +0.000 C 
BRANCH  17  20
ATOM     19  C   UNL     1       4.076   3.531  11.384  0.00  0.00    +0.000 C 
ATOM     20  C   UNL     1       5.267   2.992  11.688  0.00  0.00    +0.000 C 
BRANCH  19  22
ATOM     21  C   UNL     1       2.722   4.320   9.438  0.00  0.00    +0.000 C 
ATOM     22  C   UNL     1       3.253   3.115  10.199  0.00  0.00    +0.000 C 
ENDBRANCH  19  22
ENDBRANCH  17  20
ENDBRANCH  16  18
ENDBRANCH  15  16
ENDBRANCH   1  15
TORSDOF 9
ENDMDL
MODEL 2
REMARK VINA RESULT:      -6.9      0.995      1.092
REMARK  Name = 
REMARK  13 active torsions:
REMARK  status: ('A' for Active; 'I' for Inactive)
REMARK    1  A    between atoms: C_1  and  C_2
REMARK    2  A    between atoms: C_2  and  C_3
REMARK    3  A    between atoms: C_4  and  C_5
REMARK    4  A    between atoms: C_6  and  C_7
REMARK    5  A    between atoms: C_7  and  C_8
REMARK    6  A    between atoms: C_8  and  C_9
REMARK    7  A    between atoms: C_9  and  O_10
REMARK    8  A    between atoms: O_10  and  C_11
REMARK    9  A    between atoms: C_14  and  C_15
REMARK   10  A    between atoms: C_15  and  C_16
REMARK   11  A    between atoms: C_15  and  C_17
REMARK   12  A    between atoms: C_17  and  O_19
REMARK   13  A    between atoms: O_19  and  C_20
REMARK                            x       y       z     vdW  Elec       q    Type
REMARK                         _______ _______ _______ _____ _____    ______ ____
ROOT
ATOM      1  C   UNL     1       5.998   5.193  17.175  0.00  0.00    +0.000 C 
ATOM      2  C   UNL     1       6.054   4.948  18.702  0.00  0.00    +0.000 C 
ATOM      3  C   UNL     1       4.743   5.369  19.376  0.00  0.00    +0.000 C 
ATOM      4  C   UNL     1       3.546   4.768  18.631  0.00  0.00    +0.000 C 
ATOM      5  O   UNL     1       3.639   5.278  17.289  0.00  0.00    +0.000 OA
ATOM      6  O   UNL     1       4.782   4.623  16.652  0.00  0.00    +0.000 OA
ENDROOT
BRANCH   1   7
ATOM      7  O   UNL     1       6.078   6.619  17.032  0.00  0.00    +0.000 OA
ATOM      8  C   UNL     1       7.296   7.214  17.437  0.00  0.00    +0.000 C 
ENDBRANCH   1   7
BRANCH   4   9
ATOM      9  C   UNL     1       3.479   3.226  18.673  0.00  0.00    +0.000 C 
ATOM     10  C   UNL     1       4.274   2.618  19.826  0.00  0.00    +0.000 C 
BRANCH   9  11
ATOM     11  C   UNL     1       2.038   2.783  18.789  0.00  0.00    +0.000 C 
ATOM     12  O   UNL     1       1.190   2.935  17.919  0.00  0.00    +0.000 OA
BRANCH  11  13
ATOM     13  O   UNL     1       1.812   2.249  20.024  0.00  0.00    +0.000 OA
ATOM     14  C   UNL     1       1.038   3.073  20.893  0.00  0.00    +0.000 C 
ENDBRANCH  11  13
ENDBRANCH   9  11
ENDBRANCH   4   9
BRANCH   1  15
ATOM     15  C   UNL     1       7.165   4.474  16.455  0.00  0.00    +0.000 C 
BRANCH  15  16
ATOM     16  C   UNL     1       7.226   4.757  14.945  0.00  0.00    +0.000 C 
BRANCH  16  18
ATOM     17  C   UNL     1       6.170   3.765  12.907  0.00  0.00    +0.000 C 
ATOM     18  C   UNL     1       6.093   4.110  14.201  0.00  0.00    +0.000 C 
BRANCH  17  20
ATOM     19  C   UNL     1       4.419   3.799  11.204  0.00  0.00    +0.000 C 
ATOM     20  C   UNL     1       5.072   3.165  12.190  0.00  0.00    +0.000 C 
BRANCH  19  22
ATOM     21  C   UNL     1       2.685   4.184   9.447  0.00  0.00    +0.000 C 
ATOM     22  C   UNL     1       3.289   3.189  10.426  0.00  0.00    +0.000 C 
ENDBRANCH  19  22
ENDBRANCH  17  20
ENDBRANCH  16  18
ENDBRANCH  15  16
ENDBRANCH   1  15
TORSDOF 9
ENDMDL
MODEL 3
REMARK VINA RESULT:      -6.8      1.625      2.001
REMARK  Name = 
REMARK  13 active torsions:
REMARK  status: ('A' for Active; 'I' for Inactive)
REMARK    1  A    between atoms: C_1  and  C_2
REMARK    2  A    between atoms: C_2  and  C_3
REMARK    3  A    between atoms: C_4  and  C_5
REMARK    4  A    between atoms: C_6  and  C_7
REMARK    5  A    between atoms: C_7  and  C_8
REMARK    6  A    between atoms: C_8  and  C_9
REMARK    7  A    between atoms: C_9  and  O_10
REMARK    8  A    between atoms: O_10  and  C_11
REMARK    9  A    between atoms: C_14  and  C_15
REMARK   10  A    between atoms: C_15  and  C_16
REMARK   11  A    between atoms: C_15  and  C_17
REMARK   12  A    between atoms: C_17  and  O_19
REMARK   13  A    between atoms: O_19  and  C_20
REMARK                            x       y       z     vdW  Elec       q    Type
REMARK                         _______ _______ _______ _____ _____    ______ ____
ROOT
ATOM      1  C   UNL     1       5.736   5.091  17.262  0.00  0.00    +0.000 C 
ATOM      2  C   UNL     1       4.881   3.801  17.269  0.00  0.00    +0.000 C 
ATOM      3  C   UNL     1       4.414   3.458  18.688  0.00  0.00    +0.000 C 
ATOM      4  C   UNL     1       3.796   4.692  19.356  0.00  0.00    +0.000 C 
ATOM      5  O   UNL     1       4.840   5.681  19.367  0.00  0.00    +0.000 OA
ATOM      6  O   UNL     1       5.038   6.122  17.986  0.00  0.00    +0.000 OA
ENDROOT
BRANCH   1   7
ATOM      7  O   UNL     1       6.983   4.705  17.860  0.00  0.00    +0.000 OA
ATOM      8  C   UNL     1       7.790   5.761  18.346  0.00  0.00    +0.000 C 
ENDBRANCH   1   7
BRANCH   4   9
ATOM      9  C   UNL     1       2.506   5.203  18.679  0.00  0.00    +0.000 C 
ATOM     10  C   UNL     1       1.319   4.256  18.848  0.00  0.00    +0.000 C 
BRANCH   9  11
ATOM     11  C   UNL     1       2.135   6.553  19.247  0.00  0.00    +0.000 C 
ATOM     12  O   UNL     1       2.221   7.613  18.641  0.00  0.00    +0.000 OA
BRANCH  11  13
ATOM     13  O   UNL     1       1.749   6.422  20.550  0.00  0.00    +0.000 OA
ATOM     14  C   UNL     1       1.396   7.647  21.189  0.00  0.00    +0.000 C 
ENDBRANCH  11  13
ENDBRANCH   9  11
ENDBRANCH   4   9
BRANCH   1  15
ATOM     15  C   UNL     1       5.928   5.620  15.819  0.00  0.00    +0.000 C 
BRANCH  15  16
ATOM     16  C   UNL     1       6.554   4.591  14.864  0.00  0.00    +0.000 C 
BRANCH  16  18
ATOM     17  C   UNL     1       5.938   3.397  12.754  0.00  0.00    +0.000 C 
ATOM     18  C   UNL     1       5.573   4.100  13.837  0.00  0.00    +0.000 C 
BRANCH  17  20
ATOM     19  C   UNL     1       4.130   3.778  11.156  0.00  0.00    +0.000 C 
ATOM     20  C   UNL     1       4.996   2.949  11.758  0.00  0.00    +0.000 C 
BRANCH  19  22
ATOM     21  C   UNL     1       2.576   4.531   9.351  0.00  0.00    +0.000 C 
ATOM     22  C   UNL     1       3.157   3.342  10.100  0.00  0.00    +0.000 C 
ENDBRANCH  19  22
ENDBRANCH  17  20
ENDBRANCH  16  18
ENDBRANCH  15  16
ENDBRANCH   1  15
TORSDOF 9
ENDMDL
MODEL 4
REMARK VINA RESULT:      -6.8      3.489      5.623
REMARK  Name = 
REMARK  13 active torsions:
REMARK  status: ('A' for Active; 'I' for Inactive)
REMARK    1  A    between atoms: C_1  and  C_2
REMARK    2  A    between atoms: C_2  and  C_3
REMARK    3  A    between atoms: C_4  and  C_5
REMARK    4  A    between atoms: C_6  and  C_7
REMARK    5  A    between atoms: C_7  and  C_8
REMARK    6  A    between atoms: C_8  and  C_9
REMARK    7  A    between atoms: C_9  and  O_10
REMARK    8  A    between atoms: O_10  and  C_11
REMARK    9  A    between atoms: C_14  and  C_15
REMARK   10  A    between atoms: C_15  and  C_16
REMARK   11  A    between atoms: C_15  and  C_17
REMARK   12  A    between atoms: C_17  and  O_19
REMARK   13  A    between atoms: O_19  and  C_20
REMARK                            x       y       z     vdW  Elec       q    Type
REMARK                         _______ _______ _______ _____ _____    ______ ____
ROOT
ATOM      1  C   UNL     1       4.720   4.494  17.441  0.00  0.00    +0.000 C 
ATOM      2  C   UNL     1       3.667   3.491  16.912  0.00  0.00    +0.000 C 
ATOM      3  C   UNL     1       3.672   2.200  17.737  0.00  0.00    +0.000 C 
ATOM      4  C   UNL     1       3.614   2.526  19.234  0.00  0.00    +0.000 C 
ATOM      5  O   UNL     1       4.782   3.325  19.493  0.00  0.00    +0.000 OA
ATOM      6  O   UNL     1       4.566   4.629  18.867  0.00  0.00    +0.000 OA
ENDROOT
BRANCH   1   7
ATOM      7  O   UNL     1       5.983   3.937  17.045  0.00  0.00    +0.000 OA
ATOM      8  C   UNL     1       7.125   4.717  17.345  0.00  0.00    +0.000 C 
ENDBRANCH   1   7
BRANCH   4   9
ATOM      9  C   UNL     1       2.311   3.220  19.684  0.00  0.00    +0.000 C 
ATOM     10  C   UNL     1       1.049   2.486  19.236  0.00  0.00    +0.000 C 
BRANCH   9  11
ATOM     11  C   UNL     1       2.294   3.342  21.190  0.00  0.00    +0.000 C 
ATOM     12  O   UNL     1       2.153   2.404  21.964  0.00  0.00    +0.000 OA
BRANCH  11  13
ATOM     13  O   UNL     1       2.398   4.653  21.554  0.00  0.00    +0.000 OA
ATOM     14  C   UNL     1       1.710   5.561  20.695  0.00  0.00    +0.000 C 
ENDBRANCH  11  13
ENDBRANCH   9  11
ENDBRANCH   4   9
BRANCH   1  15
ATOM     15  C   UNL     1       4.497   5.902  16.839  0.00  0.00    +0.000 C 
BRANCH  15  16
ATOM     16  C   UNL     1       4.272   6.996  17.896  0.00  0.00    +0.000 C 
BRANCH  16  18
ATOM     17  C   UNL     1       2.493   8.749  17.767  0.00  0.00    +0.000 C 
ATOM     18  C   UNL     1       2.845   7.465  17.932  0.00  0.00    +0.000 C 
BRANCH  17  20
ATOM     19  C   UNL     1       0.629   9.876  18.874  0.00  0.00    +0.000 C 
ATOM     20  C   UNL     1       1.124   9.199  17.827  0.00  0.00    +0.000 C 
BRANCH  19  22
ATOM     21  C   UNL     1      -1.527  10.147  17.643  0.00  0.00    +0.000 C 
ATOM     22  C   UNL     1      -0.784  10.376  18.950  0.00  0.00    +0.000 C 
ENDBRANCH  19  22
ENDBRANCH  17  20
ENDBRANCH  16  18
ENDBRANCH  15  16
ENDBRANCH   1  15
TORSDOF 9
ENDMDL
MODEL 5
REMARK VINA RESULT:      -6.7      3.116      6.491
REMARK  Name = 
REMARK  13 active torsions:
REMARK  status: ('A' for Active; 'I' for Inactive)
REMARK    1  A    between atoms: C_1  and  C_2
REMARK    2  A    between atoms: C_2  and  C_3
REMARK    3  A    between atoms: C_4  and  C_5
REMARK    4  A    between atoms: C_6  and  C_7
REMARK    5  A    between atoms: C_7  and  C_8
REMARK    6  A    between atoms: C_8  and  C_9
REMARK    7  A    between atoms: C_9  and  O_10
REMARK    8  A    between atoms: O_10  and  C_11
REMARK    9  A    between atoms: C_14  and  C_15
REMARK   10  A    between atoms: C_15  and  C_16
REMARK   11  A    between atoms: C_15  and  C_17
REMARK   12  A    between atoms: C_17  and  O_19
REMARK   13  A    between atoms: O_19  and  C_20
REMARK                            x       y       z     vdW  Elec       q    Type
REMARK                         _______ _______ _______ _____ _____    ______ ____
ROOT
ATOM      1  C   UNL     1       5.966   5.378  17.418  0.00  0.00    +0.000 C 
ATOM      2  C   UNL     1       4.806   4.930  16.496  0.00  0.00    +0.000 C 
ATOM      3  C   UNL     1       4.204   3.604  16.973  0.00  0.00    +0.000 C 
ATOM      4  C   UNL     1       3.897   3.670  18.474  0.00  0.00    +0.000 C 
ATOM      5  O   UNL     1       5.160   3.937  19.108  0.00  0.00    +0.000 OA
ATOM      6  O   UNL     1       5.526   5.316  18.789  0.00  0.00    +0.000 OA
ENDROOT
BRANCH   1   7
ATOM      7  O   UNL     1       7.042   4.478  17.114  0.00  0.00    +0.000 OA
ATOM      8  C   UNL     1       7.453   4.440  15.760  0.00  0.00    +0.000 C 
ENDBRANCH   1   7
BRANCH   4   9
ATOM      9  C   UNL     1       2.814   4.702  18.857  0.00  0.00    +0.000 C 
ATOM     10  C   UNL     1       1.618   4.703  17.908  0.00  0.00    +0.000 C 
BRANCH   9  11
ATOM     11  C   UNL     1       2.323   4.425  20.259  0.00  0.00    +0.000 C 
ATOM     12  O   UNL     1       2.441   5.194  21.204  0.00  0.00    +0.000 OA
BRANCH  11  13
ATOM     13  O   UNL     1       1.786   3.172  20.327  0.00  0.00    +0.000 OA
ATOM     14  C   UNL     1       1.877   2.558  21.611  0.00  0.00    +0.000 C 
ENDBRANCH  11  13
ENDBRANCH   9  11
ENDBRANCH   4   9
BRANCH   1  15
ATOM     15  C   UNL     1       6.352   6.852  17.146  0.00  0.00    +0.000 C 
BRANCH  15  16
ATOM     16  C   UNL     1       7.581   7.324  17.940  0.00  0.00    +0.000 C 
BRANCH  16  18
ATOM     17  C   UNL     1       8.789   9.458  18.430  0.00  0.00    +0.000 C 
ATOM     18  C   UNL     1       7.868   8.783  17.727  0.00  0.00    +0.000 C 
BRANCH  17  20
ATOM     19  C   UNL     1      10.266  11.347  17.963  0.00  0.00    +0.000 C 
ATOM     20  C   UNL     1       9.045  10.865  18.239  0.00  0.00    +0.000 C 
BRANCH  19  22
ATOM     21  C   UNL     1      11.873  13.216  18.369  0.00  0.00    +0.000 C 
ATOM     22  C   UNL     1      10.554  12.803  17.735  0.00  0.00    +0.000 C 
ENDBRANCH  19  22
ENDBRANCH  17  20
ENDBRANCH  16  18
ENDBRANCH  15  16
ENDBRANCH   1  15
TORSDOF 9
ENDMDL
MODEL 6
REMARK VINA RESULT:      -6.6      3.367      6.797
REMARK  Name = 
REMARK  13 active torsions:
REMARK  status: ('A' for Active; 'I' for Inactive)
REMARK    1  A    between atoms: C_1  and  C_2
REMARK    2  A    between atoms: C_2  and  C_3
REMARK    3  A    between atoms: C_4  and  C_5
REMARK    4  A    between atoms: C_6  and  C_7
REMARK    5  A    between atoms: C_7  and  C_8
REMARK    6  A    between atoms: C_8  and  C_9
REMARK    7  A    between atoms: C_9  and  O_10
REMARK    8  A    between atoms: O_10  and  C_11
REMARK    9  A    between atoms: C_14  and  C_15
REMARK   10  A    between atoms: C_15  and  C_16
REMARK   11  A    between atoms: C_15  and  C_17
REMARK   12  A    between atoms: C_17  and  O_19
REMARK   13  A    between atoms: O_19  and  C_20
REMARK                            x       y       z     vdW  Elec       q    Type
REMARK                         _______ _______ _______ _____ _____    ______ ____
ROOT
ATOM      1  C   UNL     1       6.849   5.433  18.026  0.00  0.00    +0.000 C 
ATOM      2  C   UNL     1       5.613   5.788  17.165  0.00  0.00    +0.000 C 
ATOM      3  C   UNL     1       4.601   4.638  17.152  0.00  0.00    +0.000 C 
ATOM      4  C   UNL     1       4.322   4.161  18.582  0.00  0.00    +0.000 C 
ATOM      5  O   UNL     1       5.597   3.738  19.096  0.00  0.00    +0.000 OA
ATOM      6  O   UNL     1       6.404   4.940  19.305  0.00  0.00    +0.000 OA
ENDROOT
BRANCH   1   7
ATOM      7  O   UNL     1       7.567   4.462  17.250  0.00  0.00    +0.000 OA
ATOM      8  C   UNL     1       7.401   4.545  15.847  0.00  0.00    +0.000 C 
ENDBRANCH   1   7
BRANCH   4   9
ATOM      9  C   UNL     1       3.642   5.213  19.483  0.00  0.00    +0.000 C 
ATOM     10  C   UNL     1       2.929   6.311  18.698  0.00  0.00    +0.000 C 
BRANCH   9  11
ATOM     11  C   UNL     1       2.640   4.535  20.389  0.00  0.00    +0.000 C 
ATOM     12  O   UNL     1       2.052   5.082  21.313  0.00  0.00    +0.000 OA
BRANCH  11  13
ATOM     13  O   UNL     1       2.536   3.213  20.064  0.00  0.00    +0.000 OA
ATOM     14  C   UNL     1       1.198   2.724  19.998  0.00  0.00    +0.000 C 
ENDBRANCH  11  13
ENDBRANCH   9  11
ENDBRANCH   4   9
BRANCH   1  15
ATOM     15  C   UNL     1       7.705   6.690  18.312  0.00  0.00    +0.000 C 
BRANCH  15  16
ATOM     16  C   UNL     1       7.410   7.865  17.367  0.00  0.00    +0.000 C 
BRANCH  16  18
ATOM     17  C   UNL     1       8.935   9.207  18.827  0.00  0.00    +0.000 C 
ATOM     18  C   UNL     1       8.008   9.153  17.858  0.00  0.00    +0.000 C 
BRANCH  17  20
ATOM     19  C   UNL     1      10.190  11.281  18.530  0.00  0.00    +0.000 C 
ATOM     20  C   UNL     1       9.489  10.446  19.312  0.00  0.00    +0.000 C 
BRANCH  19  22
ATOM     21  C   UNL     1      11.946  12.377  19.928  0.00  0.00    +0.000 C 
ATOM     22  C   UNL     1      10.757  12.587  19.004  0.00  0.00    +0.000 C 
ENDBRANCH  19  22
ENDBRANCH  17  20
ENDBRANCH  16  18
ENDBRANCH  15  16
ENDBRANCH   1  15
TORSDOF 9
ENDMDL
MODEL 7
REMARK VINA RESULT:      -6.6      1.426      1.926
REMARK  Name = 
REMARK  13 active torsions:
REMARK  status: ('A' for Active; 'I' for Inactive)
REMARK    1  A    between atoms: C_1  and  C_2
REMARK    2  A    between atoms: C_2  and  C_3
REMARK    3  A    between atoms: C_4  and  C_5
REMARK    4  A    between atoms: C_6  and  C_7
REMARK    5  A    between atoms: C_7  and  C_8
REMARK    6  A    between atoms: C_8  and  C_9
REMARK    7  A    between atoms: C_9  and  O_10
REMARK    8  A    between atoms: O_10  and  C_11
REMARK    9  A    between atoms: C_14  and  C_15
REMARK   10  A    between atoms: C_15  and  C_16
REMARK   11  A    between atoms: C_15  and  C_17
REMARK   12  A    between atoms: C_17  and  O_19
REMARK   13  A    between atoms: O_19  and  C_20
REMARK                            x       y       z     vdW  Elec       q    Type
REMARK                         _______ _______ _______ _____ _____    ______ ____
ROOT
ATOM      1  C   UNL     1       5.063   4.495  17.448  0.00  0.00    +0.000 C 
ATOM      2  C   UNL     1       4.308   3.191  17.094  0.00  0.00    +0.000 C 
ATOM      3  C   UNL     1       4.097   2.322  18.339  0.00  0.00    +0.000 C 
ATOM      4  C   UNL     1       3.512   3.162  19.480  0.00  0.00    +0.000 C 
ATOM      5  O   UNL     1       4.476   4.202  19.718  0.00  0.00    +0.000 OA
ATOM      6  O   UNL     1       4.422   5.117  18.578  0.00  0.00    +0.000 OA
ENDROOT
BRANCH   1   7
ATOM      7  O   UNL     1       6.412   4.076  17.706  0.00  0.00    +0.000 OA
ATOM      8  C   UNL     1       7.266   5.052  18.272  0.00  0.00    +0.000 C 
ENDBRANCH   1   7
BRANCH   4   9
ATOM      9  C   UNL     1       2.100   3.719  19.201  0.00  0.00    +0.000 C 
ATOM     10  C   UNL     1       1.222   2.763  18.396  0.00  0.00    +0.000 C 
BRANCH   9  11
ATOM     11  C   UNL     1       1.408   4.029  20.509  0.00  0.00    +0.000 C 
ATOM     12  O   UNL     1       1.319   3.255  21.452  0.00  0.00    +0.000 OA
BRANCH  11  13
ATOM     13  O   UNL     1       0.849   5.274  20.457  0.00  0.00    +0.000 OA
ATOM     14  C   UNL     1       1.785   6.346  20.540  0.00  0.00    +0.000 C 
ENDBRANCH  11  13
ENDBRANCH   9  11
ENDBRANCH   4   9
BRANCH   1  15
ATOM     15  C   UNL     1       4.987   5.512  16.284  0.00  0.00    +0.000 C 
BRANCH  15  16
ATOM     16  C   UNL     1       6.004   5.242  15.162  0.00  0.00    +0.000 C 
BRANCH  16  18
ATOM     17  C   UNL     1       5.859   3.661  13.229  0.00  0.00    +0.000 C 
ATOM     18  C   UNL     1       5.352   4.689  13.927  0.00  0.00    +0.000 C 
BRANCH  17  20
ATOM     19  C   UNL     1       4.067   3.603  11.570  0.00  0.00    +0.000 C 
ATOM     20  C   UNL     1       5.243   3.149  12.030  0.00  0.00    +0.000 C 
BRANCH  19  22
ATOM     21  C   UNL     1       2.815   4.243   9.506  0.00  0.00    +0.000 C 
ATOM     22  C   UNL     1       3.416   3.103  10.313  0.00  0.00    +0.000 C 
ENDBRANCH  19  22
ENDBRANCH  17  20
ENDBRANCH  16  18
ENDBRANCH  15  16
ENDBRANCH   1  15
TORSDOF 9
ENDMDL
MODEL 8
REMARK VINA RESULT:      -6.6      3.266      6.947
REMARK  Name = 
REMARK  13 active torsions:
REMARK  status: ('A' for Active; 'I' for Inactive)
REMARK    1  A    between atoms: C_1  and  C_2
REMARK    2  A    between atoms: C_2  and  C_3
REMARK    3  A    between atoms: C_4  and  C_5
REMARK    4  A    between atoms: C_6  and  C_7
REMARK    5  A    between atoms: C_7  and  C_8
REMARK    6  A    between atoms: C_8  and  C_9
REMARK    7  A    between atoms: C_9  and  O_10
REMARK    8  A    between atoms: O_10  and  C_11
REMARK    9  A    between atoms: C_14  and  C_15
REMARK   10  A    between atoms: C_15  and  C_16
REMARK   11  A    between atoms: C_15  and  C_17
REMARK   12  A    between atoms: C_17  and  O_19
REMARK   13  A    between atoms: O_19  and  C_20
REMARK                            x       y       z     vdW  Elec       q    Type
REMARK                         _______ _______ _______ _____ _____    ______ ____
ROOT
ATOM      1  C   UNL     1       6.598   5.200  17.909  0.00  0.00    +0.000 C 
ATOM      2  C   UNL     1       5.473   5.983  17.191  0.00  0.00    +0.000 C 
ATOM      3  C   UNL     1       4.227   5.110  17.006  0.00  0.00    +0.000 C 
ATOM      4  C   UNL     1       3.851   4.433  18.330  0.00  0.00    +0.000 C 
ATOM      5  O   UNL     1       5.000   3.647  18.693  0.00  0.00    +0.000 OA
ATOM      6  O   UNL     1       6.057   4.576  19.090  0.00  0.00    +0.000 OA
ENDROOT
BRANCH   1   7
ATOM      7  O   UNL     1       7.077   4.267  16.928  0.00  0.00    +0.000 OA
ATOM      8  C   UNL     1       7.228   4.773  15.615  0.00  0.00    +0.000 C 
ENDBRANCH   1   7
BRANCH   4   9
ATOM      9  C   UNL     1       3.428   5.411  19.446  0.00  0.00    +0.000 C 
ATOM     10  C   UNL     1       2.909   6.746  18.916  0.00  0.00    +0.000 C 
BRANCH   9  11
ATOM     11  C   UNL     1       2.354   4.775  20.298  0.00  0.00    +0.000 C 
ATOM     12  O   UNL     1       1.626   5.383  21.072  0.00  0.00    +0.000 OA
BRANCH  11  13
ATOM     13  O   UNL     1       2.359   3.421  20.122  0.00  0.00    +0.000 OA
ATOM     14  C   UNL     1       2.661   2.673  21.298  0.00  0.00    +0.000 C 
ENDBRANCH  11  13
ENDBRANCH   9  11
ENDBRANCH   4   9
BRANCH   1  15
ATOM     15  C   UNL     1       7.717   6.156  18.390  0.00  0.00    +0.000 C 
BRANCH  15  16
ATOM     16  C   UNL     1       7.649   7.554  17.754  0.00  0.00    +0.000 C 
BRANCH  16  18
ATOM     17  C   UNL     1       8.639   9.827  18.089  0.00  0.00    +0.000 C 
ATOM     18  C   UNL     1       8.522   8.546  18.470  0.00  0.00    +0.000 C 
BRANCH  17  20
ATOM     19  C   UNL     1       9.423  10.997  20.084  0.00  0.00    +0.000 C 
ATOM     20  C   UNL     1       9.496  10.770  18.764  0.00  0.00    +0.000 C 
BRANCH  19  22
ATOM     21  C   UNL     1       9.568  12.696  21.910  0.00  0.00    +0.000 C 
ATOM     22  C   UNL     1      10.319  11.954  20.815  0.00  0.00    +0.000 C 
ENDBRANCH  19  22
ENDBRANCH  17  20
ENDBRANCH  16  18
ENDBRANCH  15  16
ENDBRANCH   1  15
TORSDOF 9
ENDMDL
MODEL 9
REMARK VINA RESULT:      -6.5      1.858      2.604
REMARK  Name = 
REMARK  13 active torsions:
REMARK  status: ('A' for Active; 'I' for Inactive)
REMARK    1  A    between atoms: C_1  and  C_2
REMARK    2  A    between atoms: C_2  and  C_3
REMARK    3  A    between atoms: C_4  and  C_5
REMARK    4  A    between atoms: C_6  and  C_7
REMARK    5  A    between atoms: C_7  and  C_8
REMARK    6  A    between atoms: C_8  and  C_9
REMARK    7  A    between atoms: C_9  and  O_10
REMARK    8  A    between atoms: O_10  and  C_11
REMARK    9  A    between atoms: C_14  and  C_15
REMARK   10  A    between atoms: C_15  and  C_16
REMARK   11  A    between atoms: C_15  and  C_17
REMARK   12  A    between atoms: C_17  and  O_19
REMARK   13  A    between atoms: O_19  and  C_20
REMARK                            x       y       z     vdW  Elec       q    Type
REMARK                         _______ _______ _______ _____ _____    ______ ____
ROOT
ATOM      1  C   UNL     1       4.761   4.523  17.687  0.00  0.00    +0.000 C 
ATOM      2  C   UNL     1       3.819   3.458  17.075  0.00  0.00    +0.000 C 
ATOM      3  C   UNL     1       3.771   2.199  17.947  0.00  0.00    +0.000 C 
ATOM      4  C   UNL     1       3.517   2.576  19.411  0.00  0.00    +0.000 C 
ATOM      5  O   UNL     1       4.613   3.434  19.778  0.00  0.00    +0.000 OA
ATOM      6  O   UNL     1       4.427   4.704  19.077  0.00  0.00    +0.000 OA
ENDROOT
BRANCH   1   7
ATOM      7  O   UNL     1       6.083   4.007  17.471  0.00  0.00    +0.000 OA
ATOM      8  C   UNL     1       7.131   4.698  18.124  0.00  0.00    +0.000 C 
ENDBRANCH   1   7
BRANCH   4   9
ATOM      9  C   UNL     1       2.143   3.230  19.671  0.00  0.00    +0.000 C 
ATOM     10  C   UNL     1       0.976   2.433  19.094  0.00  0.00    +0.000 C 
BRANCH   9  11
ATOM     11  C   UNL     1       1.932   3.396  21.158  0.00  0.00    +0.000 C 
ATOM     12  O   UNL     1       1.550   2.510  21.911  0.00  0.00    +0.000 OA
BRANCH  11  13
ATOM     13  O   UNL     1       2.170   4.690  21.522  0.00  0.00    +0.000 OA
ATOM     14  C   UNL     1       1.710   5.662  20.585  0.00  0.00    +0.000 C 
ENDBRANCH  11  13
ENDBRANCH   9  11
ENDBRANCH   4   9
BRANCH   1  15
ATOM     15  C   UNL     1       4.560   5.898  17.004  0.00  0.00    +0.000 C 
BRANCH  15  16
ATOM     16  C   UNL     1       5.645   6.237  15.969  0.00  0.00    +0.000 C 
BRANCH  16  18
ATOM     17  C   UNL     1       6.489   4.609  14.267  0.00  0.00    +0.000 C 
ATOM     18  C   UNL     1       5.514   5.411  14.720  0.00  0.00    +0.000 C 
BRANCH  17  20
ATOM     19  C   UNL     1       5.189   3.394  12.594  0.00  0.00    +0.000 C 
ATOM     20  C   UNL     1       6.368   3.837  13.055  0.00  0.00    +0.000 C 
BRANCH  19  22
ATOM     21  C   UNL     1       5.980   1.420  11.283  0.00  0.00    +0.000 C 
ATOM     22  C   UNL     1       5.034   2.610  11.323  0.00  0.00    +0.000 C 
ENDBRANCH  19  22
ENDBRANCH  17  20
ENDBRANCH  16  18
ENDBRANCH  15  16
ENDBRANCH   1  15
TORSDOF 9
ENDMDL
