MODEL 1
REMARK VINA RESULT:      -7.5      0.000      0.000
REMARK  Name = 
REMARK  6 active torsions:
REMARK  status: ('A' for Active; 'I' for Inactive)
REMARK    1  A    between atoms: C_1  and  O_2
REMARK    2  A    between atoms: O_2  and  C_3
REMARK    3  A    between atoms: C_5  and  N_6
REMARK    4  A    between atoms: C_10  and  C_11
REMARK    5  A    between atoms: N_13  and  C_14
REMARK    6  A    between atoms: C_18  and  C_19
REMARK                            x       y       z     vdW  Elec       q    Type
REMARK                         _______ _______ _______ _____ _____    ______ ____
ROOT
ATOM      1  C   UNL     1       2.673   7.849  18.220  0.00  0.00    +0.000 C 
ATOM      2  O   UNL     1       2.648   8.819  17.451  0.00  0.00    +0.000 OA
ATOM      3  N   UNL     1       2.034   7.893  19.451  0.00  0.00    +0.000 N 
ATOM      4  H   UNL     1       2.265   7.168  20.130  0.00  0.00    +0.000 HD
ENDROOT
BRANCH   3   5
ATOM      5  C   UNL     1       1.250   9.060  19.844  0.00  0.00    +0.000 C 
ATOM      6  C   UNL     1       0.242   9.556  18.807  0.00  0.00    +0.000 C 
ATOM      7  C   UNL     1      -0.286  10.922  19.267  0.00  0.00    +0.000 C 
ATOM      8  N   UNL     1      -0.920  10.870  20.598  0.00  0.00    +0.000 NA
ATOM      9  C   UNL     1      -1.300  12.234  21.082  0.00  0.00    +0.000 C 
ATOM     10  C   UNL     1      -2.286  12.946  20.147  0.00  0.00    +0.000 C 
ATOM     11  C   UNL     1      -1.921  12.160  22.499  0.00  0.00    +0.000 C 
ATOM     12  O   UNL     1      -1.048  11.519  23.436  0.00  0.00    +0.000 OA
ATOM     13  C   UNL     1      -0.717  10.194  22.987  0.00  0.00    +0.000 C 
ATOM     14  C   UNL     1      -0.015  10.254  21.617  0.00  0.00    +0.000 C 
ATOM     15  C   UNL     1       0.499   8.874  21.168  0.00  0.00    +0.000 C 
ENDBRANCH   3   5
BRANCH   1  22
ATOM     16  C   UNL     1       2.886   5.297  17.815  0.00  0.00    +0.000 A 
ATOM     17  C   UNL     1       3.665   4.236  17.301  0.00  0.00    +0.000 A 
ATOM     18  C   UNL     1       4.950   4.430  16.788  0.00  0.00    +0.000 A 
ATOM     19  C   UNL     1       5.490   5.721  16.866  0.00  0.00    +0.000 A 
ATOM     20 CL   UNL     1       7.118   6.016  16.359  0.00  0.00    +0.000 Cl
ATOM     21  C   UNL     1       4.719   6.791  17.321  0.00  0.00    +0.000 A 
ATOM     22  C   UNL     1       3.401   6.606  17.788  0.00  0.00    +0.000 A 
BRANCH  18  23
ATOM     23  N   UNL     1       5.720   3.307  16.437  0.00  0.00    +0.000 N 
ATOM     24  H   UNL     1       6.618   3.245  16.906  0.00  0.00    +0.000 HD
ATOM     25  H   UNL     1       5.195   2.437  16.486  0.00  0.00    +0.000 HD
ENDBRANCH  18  23
BRANCH  16  27
ATOM     26  C   UNL     1       1.453   3.849  19.011  0.00  0.00    +0.000 C 
ATOM     27  O   UNL     1       1.625   5.085  18.315  0.00  0.00    +0.000 OA
ENDBRANCH  16  27
ENDBRANCH   1  22
TORSDOF 4
ENDMDL
MODEL 2
REMARK VINA RESULT:      -7.4      2.262      2.825
REMARK  Name = 
REMARK  6 active torsions:
REMARK  status: ('A' for Active; 'I' for Inactive)
REMARK    1  A    between atoms: C_1  and  O_2
REMARK    2  A    between atoms: O_2  and  C_3
REMARK    3  A    between atoms: C_5  and  N_6
REMARK    4  A    between atoms: C_10  and  C_11
REMARK    5  A    between atoms: N_13  and  C_14
REMARK    6  A    between atoms: C_18  and  C_19
REMARK                            x       y       z     vdW  Elec       q    Type
REMARK                         _______ _______ _______ _____ _____    ______ ____
ROOT
ATOM      1  C   UNL     1       2.641   6.782  19.249  0.00  0.00    +0.000 C 
ATOM      2  O   UNL     1       2.993   7.604  18.393  0.00  0.00    +0.000 OA
ATOM      3  N   UNL     1       1.919   7.176  20.367  0.00  0.00    +0.000 N 
ATOM      4  H   UNL     1       1.845   6.515  21.140  0.00  0.00    +0.000 HD
ENDROOT
BRANCH   3   5
ATOM      5  C   UNL     1       1.489   8.562  20.529  0.00  0.00    +0.000 C 
ATOM      6  C   UNL     1       1.033   9.263  19.249  0.00  0.00    +0.000 C 
ATOM      7  C   UNL     1       0.882  10.761  19.551  0.00  0.00    +0.000 C 
ATOM      8  N   UNL     1      -0.077  11.029  20.640  0.00  0.00    +0.000 NA
ATOM      9  C   UNL     1      -0.103  12.479  21.008  0.00  0.00    +0.000 C 
ATOM     10  C   UNL     1      -0.495  13.387  19.835  0.00  0.00    +0.000 C 
ATOM     11  C   UNL     1      -1.081  12.730  22.182  0.00  0.00    +0.000 C 
ATOM     12  O   UNL     1      -0.767  11.926  23.325  0.00  0.00    +0.000 OA
ATOM     13  C   UNL     1      -0.783  10.532  22.977  0.00  0.00    +0.000 C 
ATOM     14  C   UNL     1       0.251  10.246  21.870  0.00  0.00    +0.000 C 
ATOM     15  C   UNL     1       0.382   8.740  21.574  0.00  0.00    +0.000 C 
ENDBRANCH   3   5
BRANCH   1  22
ATOM     16  C   UNL     1       4.301   4.808  18.987  0.00  0.00    +0.000 A 
ATOM     17  C   UNL     1       4.478   3.410  18.874  0.00  0.00    +0.000 A 
ATOM     18  C   UNL     1       3.400   2.523  18.790  0.00  0.00    +0.000 A 
ATOM     19  C   UNL     1       2.112   3.073  18.746  0.00  0.00    +0.000 A 
ATOM     20 CL   UNL     1       0.735   2.047  18.525  0.00  0.00    +0.000 Cl
ATOM     21  C   UNL     1       1.913   4.444  18.909  0.00  0.00    +0.000 A 
ATOM     22  C   UNL     1       2.998   5.336  19.049  0.00  0.00    +0.000 A 
BRANCH  18  23
ATOM     23  N   UNL     1       3.655   1.167  18.526  0.00  0.00    +0.000 N 
ATOM     24  H   UNL     1       2.824   0.592  18.417  0.00  0.00    +0.000 HD
ATOM     25  H   UNL     1       4.323   1.029  17.771  0.00  0.00    +0.000 HD
ENDBRANCH  18  23
BRANCH  16  27
ATOM     26  C   UNL     1       6.066   5.876  17.837  0.00  0.00    +0.000 C 
ATOM     27  O   UNL     1       5.373   5.662  19.067  0.00  0.00    +0.000 OA
ENDBRANCH  16  27
ENDBRANCH   1  22
TORSDOF 4
ENDMDL
MODEL 3
REMARK VINA RESULT:      -7.2      1.686      1.959
REMARK  Name = 
REMARK  6 active torsions:
REMARK  status: ('A' for Active; 'I' for Inactive)
REMARK    1  A    between atoms: C_1  and  O_2
REMARK    2  A    between atoms: O_2  and  C_3
REMARK    3  A    between atoms: C_5  and  N_6
REMARK    4  A    between atoms: C_10  and  C_11
REMARK    5  A    between atoms: N_13  and  C_14
REMARK    6  A    between atoms: C_18  and  C_19
REMARK                            x       y       z     vdW  Elec       q    Type
REMARK                         _______ _______ _______ _____ _____    ______ ____
ROOT
ATOM      1  C   UNL     1       2.766   6.577  19.271  0.00  0.00    +0.000 C 
ATOM      2  O   UNL     1       3.272   7.433  18.533  0.00  0.00    +0.000 OA
ATOM      3  N   UNL     1       1.903   6.935  20.298  0.00  0.00    +0.000 N 
ATOM      4  H   UNL     1       1.691   6.231  21.004  0.00  0.00    +0.000 HD
ENDROOT
BRANCH   3   5
ATOM      5  C   UNL     1       1.509   8.327  20.491  0.00  0.00    +0.000 C 
ATOM      6  C   UNL     1       1.088   9.074  19.225  0.00  0.00    +0.000 C 
ATOM      7  C   UNL     1       0.974  10.567  19.564  0.00  0.00    +0.000 C 
ATOM      8  N   UNL     1       0.009  10.833  20.649  0.00  0.00    +0.000 NA
ATOM      9  C   UNL     1       0.018  12.273  21.055  0.00  0.00    +0.000 C 
ATOM     10  C   UNL     1      -0.336  13.221  19.902  0.00  0.00    +0.000 C 
ATOM     11  C   UNL     1      -0.967  12.520  22.223  0.00  0.00    +0.000 C 
ATOM     12  O   UNL     1      -0.689  11.678  23.348  0.00  0.00    +0.000 OA
ATOM     13  C   UNL     1      -0.739  10.294  22.963  0.00  0.00    +0.000 C 
ATOM     14  C   UNL     1       0.301  10.009  21.862  0.00  0.00    +0.000 C 
ATOM     15  C   UNL     1       0.395   8.508  21.528  0.00  0.00    +0.000 C 
ENDBRANCH   3   5
BRANCH   1  22
ATOM     16  C   UNL     1       2.680   4.045  19.820  0.00  0.00    +0.000 A 
ATOM     17  C   UNL     1       2.999   2.729  19.416  0.00  0.00    +0.000 A 
ATOM     18  C   UNL     1       3.740   2.459  18.262  0.00  0.00    +0.000 A 
ATOM     19  C   UNL     1       4.233   3.554  17.539  0.00  0.00    +0.000 A 
ATOM     20 CL   UNL     1       5.257   3.301  16.166  0.00  0.00    +0.000 Cl
ATOM     21  C   UNL     1       3.886   4.858  17.891  0.00  0.00    +0.000 A 
ATOM     22  C   UNL     1       3.091   5.130  19.025  0.00  0.00    +0.000 A 
BRANCH  18  23
ATOM     23  N   UNL     1       4.148   1.138  18.008  0.00  0.00    +0.000 N 
ATOM     24  H   UNL     1       4.180   0.539  18.828  0.00  0.00    +0.000 HD
ATOM     25  H   UNL     1       3.644   0.710  17.235  0.00  0.00    +0.000 HD
ENDBRANCH  18  23
BRANCH  16  27
ATOM     26  C   UNL     1       1.664   3.134  21.748  0.00  0.00    +0.000 C 
ATOM     27  O   UNL     1       1.951   4.289  20.958  0.00  0.00    +0.000 OA
ENDBRANCH  16  27
ENDBRANCH   1  22
TORSDOF 4
ENDMDL
MODEL 4
REMARK VINA RESULT:      -7.2      1.907      2.150
REMARK  Name = 
REMARK  6 active torsions:
REMARK  status: ('A' for Active; 'I' for Inactive)
REMARK    1  A    between atoms: C_1  and  O_2
REMARK    2  A    between atoms: O_2  and  C_3
REMARK    3  A    between atoms: C_5  and  N_6
REMARK    4  A    between atoms: C_10  and  C_11
REMARK    5  A    between atoms: N_13  and  C_14
REMARK    6  A    between atoms: C_18  and  C_19
REMARK                            x       y       z     vdW  Elec       q    Type
REMARK                         _______ _______ _______ _____ _____    ______ ____
ROOT
ATOM      1  C   UNL     1       2.589   7.420  18.568  0.00  0.00    +0.000 C 
ATOM      2  O   UNL     1       2.299   7.382  19.771  0.00  0.00    +0.000 OA
ATOM      3  N   UNL     1       2.235   8.507  17.780  0.00  0.00    +0.000 N 
ATOM      4  H   UNL     1       2.297   8.398  16.768  0.00  0.00    +0.000 HD
ENDROOT
BRANCH   3   5
ATOM      5  C   UNL     1       1.575   9.670  18.365  0.00  0.00    +0.000 C 
ATOM      6  C   UNL     1       2.227  11.020  18.062  0.00  0.00    +0.000 C 
ATOM      7  C   UNL     1       1.576  12.079  18.962  0.00  0.00    +0.000 C 
ATOM      8  N   UNL     1       0.117  12.173  18.769  0.00  0.00    +0.000 NA
ATOM      9  C   UNL     1      -0.511  13.111  19.751  0.00  0.00    +0.000 C 
ATOM     10  C   UNL     1       0.043  14.538  19.653  0.00  0.00    +0.000 C 
ATOM     11  C   UNL     1      -2.047  13.158  19.560  0.00  0.00    +0.000 C 
ATOM     12  O   UNL     1      -2.641  11.858  19.654  0.00  0.00    +0.000 OA
ATOM     13  C   UNL     1      -2.064  10.972  18.682  0.00  0.00    +0.000 C 
ATOM     14  C   UNL     1      -0.546  10.840  18.914  0.00  0.00    +0.000 C 
ATOM     15  C   UNL     1       0.090   9.780  17.996  0.00  0.00    +0.000 C 
ENDBRANCH   3   5
BRANCH   1  22
ATOM     16  C   UNL     1       2.869   4.957  17.811  0.00  0.00    +0.000 A 
ATOM     17  C   UNL     1       3.677   3.998  17.159  0.00  0.00    +0.000 A 
ATOM     18  C   UNL     1       4.960   4.294  16.689  0.00  0.00    +0.000 A 
ATOM     19  C   UNL     1       5.466   5.575  16.953  0.00  0.00    +0.000 A 
ATOM     20 CL   UNL     1       7.089   5.979  16.506  0.00  0.00    +0.000 Cl
ATOM     21  C   UNL     1       4.666   6.551  17.547  0.00  0.00    +0.000 A 
ATOM     22  C   UNL     1       3.350   6.269  17.973  0.00  0.00    +0.000 A 
BRANCH  18  23
ATOM     23  N   UNL     1       5.760   3.252  16.190  0.00  0.00    +0.000 N 
ATOM     24  H   UNL     1       5.742   3.149  15.180  0.00  0.00    +0.000 HD
ATOM     25  H   UNL     1       6.707   3.268  16.562  0.00  0.00    +0.000 HD
ENDBRANCH  18  23
BRANCH  16  27
ATOM     26  C   UNL     1       1.332   3.247  18.352  0.00  0.00    +0.000 C 
ATOM     27  O   UNL     1       1.612   4.645  18.265  0.00  0.00    +0.000 OA
ENDBRANCH  16  27
ENDBRANCH   1  22
TORSDOF 4
ENDMDL
MODEL 5
REMARK VINA RESULT:      -7.2      1.005      1.005
REMARK  Name = 
REMARK  6 active torsions:
REMARK  status: ('A' for Active; 'I' for Inactive)
REMARK    1  A    between atoms: C_1  and  O_2
REMARK    2  A    between atoms: O_2  and  C_3
REMARK    3  A    between atoms: C_5  and  N_6
REMARK    4  A    between atoms: C_10  and  C_11
REMARK    5  A    between atoms: N_13  and  C_14
REMARK    6  A    between atoms: C_18  and  C_19
REMARK                            x       y       z     vdW  Elec       q    Type
REMARK                         _______ _______ _______ _____ _____    ______ ____
ROOT
ATOM      1  C   UNL     1       2.527   7.004  18.928  0.00  0.00    +0.000 C 
ATOM      2  O   UNL     1       2.222   6.747  20.100  0.00  0.00    +0.000 OA
ATOM      3  N   UNL     1       2.138   8.195  18.331  0.00  0.00    +0.000 N 
ATOM      4  H   UNL     1       2.219   8.265  17.317  0.00  0.00    +0.000 HD
ENDROOT
BRANCH   3   5
ATOM      5  C   UNL     1       1.421   9.213  19.093  0.00  0.00    +0.000 C 
ATOM      6  C   UNL     1       0.284   9.915  18.348  0.00  0.00    +0.000 C 
ATOM      7  C   UNL     1      -0.169  11.117  19.187  0.00  0.00    +0.000 C 
ATOM      8  N   UNL     1      -0.617  10.732  20.539  0.00  0.00    +0.000 NA
ATOM      9  C   UNL     1      -0.921  11.931  21.382  0.00  0.00    +0.000 C 
ATOM     10  C   UNL     1      -2.020  12.818  20.785  0.00  0.00    +0.000 C 
ATOM     11  C   UNL     1      -1.345  11.505  22.809  0.00  0.00    +0.000 C 
ATOM     12  O   UNL     1      -0.357  10.683  23.441  0.00  0.00    +0.000 OA
ATOM     13  C   UNL     1      -0.097   9.512  22.649  0.00  0.00    +0.000 C 
ATOM     14  C   UNL     1       0.414   9.916  21.252  0.00  0.00    +0.000 C 
ATOM     15  C   UNL     1       0.855   8.696  20.421  0.00  0.00    +0.000 C 
ENDBRANCH   3   5
BRANCH   1  22
ATOM     16  C   UNL     1       2.912   4.732  17.740  0.00  0.00    +0.000 A 
ATOM     17  C   UNL     1       3.772   3.932  16.954  0.00  0.00    +0.000 A 
ATOM     18  C   UNL     1       5.059   4.344  16.597  0.00  0.00    +0.000 A 
ATOM     19  C   UNL     1       5.514   5.566  17.112  0.00  0.00    +0.000 A 
ATOM     20 CL   UNL     1       7.137   6.088  16.811  0.00  0.00    +0.000 Cl
ATOM     21  C   UNL     1       4.663   6.393  17.845  0.00  0.00    +0.000 A 
ATOM     22  C   UNL     1       3.344   6.003  18.160  0.00  0.00    +0.000 A 
BRANCH  18  23
ATOM     23  N   UNL     1       5.909   3.433  15.945  0.00  0.00    +0.000 N 
ATOM     24  H   UNL     1       6.658   3.861  15.409  0.00  0.00    +0.000 HD
ATOM     25  H   UNL     1       6.245   2.696  16.561  0.00  0.00    +0.000 HD
ENDBRANCH  18  23
BRANCH  16  27
ATOM     26  C   UNL     1       1.547   2.920  18.398  0.00  0.00    +0.000 C 
ATOM     27  O   UNL     1       1.651   4.309  18.080  0.00  0.00    +0.000 OA
ENDBRANCH  16  27
ENDBRANCH   1  22
TORSDOF 4
ENDMDL
MODEL 6
REMARK VINA RESULT:      -7.2      2.566      3.281
REMARK  Name = 
REMARK  6 active torsions:
REMARK  status: ('A' for Active; 'I' for Inactive)
REMARK    1  A    between atoms: C_1  and  O_2
REMARK    2  A    between atoms: O_2  and  C_3
REMARK    3  A    between atoms: C_5  and  N_6
REMARK    4  A    between atoms: C_10  and  C_11
REMARK    5  A    between atoms: N_13  and  C_14
REMARK    6  A    between atoms: C_18  and  C_19
REMARK                            x       y       z     vdW  Elec       q    Type
REMARK                         _______ _______ _______ _____ _____    ______ ____
ROOT
ATOM      1  C   UNL     1       2.203   7.422  19.161  0.00  0.00    +0.000 C 
ATOM      2  O   UNL     1       1.990   7.627  20.363  0.00  0.00    +0.000 OA
ATOM      3  N   UNL     1       2.012   8.423  18.218  0.00  0.00    +0.000 N 
ATOM      4  H   UNL     1       1.987   8.150  17.236  0.00  0.00    +0.000 HD
ENDROOT
BRANCH   3   5
ATOM      5  C   UNL     1       1.625   9.770  18.627  0.00  0.00    +0.000 C 
ATOM      6  C   UNL     1       2.283  10.910  17.848  0.00  0.00    +0.000 C 
ATOM      7  C   UNL     1       1.979  12.226  18.576  0.00  0.00    +0.000 C 
ATOM      8  N   UNL     1       0.532  12.481  18.712  0.00  0.00    +0.000 NA
ATOM      9  C   UNL     1       0.261  13.695  19.543  0.00  0.00    +0.000 C 
ATOM     10  C   UNL     1       0.885  14.970  18.960  0.00  0.00    +0.000 C 
ATOM     11  C   UNL     1      -1.262  13.917  19.710  0.00  0.00    +0.000 C 
ATOM     12  O   UNL     1      -1.915  12.770  20.267  0.00  0.00    +0.000 OA
ATOM     13  C   UNL     1      -1.686  11.615  19.444  0.00  0.00    +0.000 C 
ATOM     14  C   UNL     1      -0.177  11.324  19.341  0.00  0.00    +0.000 C 
ATOM     15  C   UNL     1       0.110  10.004  18.599  0.00  0.00    +0.000 C 
ENDBRANCH   3   5
BRANCH   1  22
ATOM     16  C   UNL     1       3.681   5.809  17.771  0.00  0.00    +0.000 A 
ATOM     17  C   UNL     1       4.092   4.477  17.535  0.00  0.00    +0.000 A 
ATOM     18  C   UNL     1       3.528   3.390  18.208  0.00  0.00    +0.000 A 
ATOM     19  C   UNL     1       2.470   3.652  19.089  0.00  0.00    +0.000 A 
ATOM     20 CL   UNL     1       1.644   2.346  19.870  0.00  0.00    +0.000 Cl
ATOM     21  C   UNL     1       2.086   4.962  19.375  0.00  0.00    +0.000 A 
ATOM     22  C   UNL     1       2.691   6.065  18.737  0.00  0.00    +0.000 A 
BRANCH  18  23
ATOM     23  N   UNL     1       3.879   2.088  17.811  0.00  0.00    +0.000 N 
ATOM     24  H   UNL     1       4.877   1.901  17.804  0.00  0.00    +0.000 HD
ATOM     25  H   UNL     1       3.353   1.369  18.303  0.00  0.00    +0.000 HD
ENDBRANCH  18  23
BRANCH  16  27
ATOM     26  C   UNL     1       5.135   6.497  16.040  0.00  0.00    +0.000 C 
ATOM     27  O   UNL     1       4.248   6.864  17.098  0.00  0.00    +0.000 OA
ENDBRANCH  16  27
ENDBRANCH   1  22
TORSDOF 4
ENDMDL
MODEL 7
REMARK VINA RESULT:      -7.0      1.126      1.858
REMARK  Name = 
REMARK  6 active torsions:
REMARK  status: ('A' for Active; 'I' for Inactive)
REMARK    1  A    between atoms: C_1  and  O_2
REMARK    2  A    between atoms: O_2  and  C_3
REMARK    3  A    between atoms: C_5  and  N_6
REMARK    4  A    between atoms: C_10  and  C_11
REMARK    5  A    between atoms: N_13  and  C_14
REMARK    6  A    between atoms: C_18  and  C_19
REMARK                            x       y       z     vdW  Elec       q    Type
REMARK                         _______ _______ _______ _____ _____    ______ ____
ROOT
ATOM      1  C   UNL     1       2.351   7.544  18.461  0.00  0.00    +0.000 C 
ATOM      2  O   UNL     1       1.888   8.338  17.632  0.00  0.00    +0.000 OA
ATOM      3  N   UNL     1       2.040   7.653  19.810  0.00  0.00    +0.000 N 
ATOM      4  H   UNL     1       2.609   7.125  20.471  0.00  0.00    +0.000 HD
ENDROOT
BRANCH   3   5
ATOM      5  C   UNL     1       1.097   8.663  20.279  0.00  0.00    +0.000 C 
ATOM      6  C   UNL     1       1.033   8.850  21.796  0.00  0.00    +0.000 C 
ATOM      7  C   UNL     1      -0.180   9.734  22.119  0.00  0.00    +0.000 C 
ATOM      8  N   UNL     1      -0.120  11.049  21.453  0.00  0.00    +0.000 NA
ATOM      9  C   UNL     1      -1.374  11.836  21.671  0.00  0.00    +0.000 C 
ATOM     10  C   UNL     1      -1.663  12.101  23.155  0.00  0.00    +0.000 C 
ATOM     11  C   UNL     1      -1.307  13.192  20.927  0.00  0.00    +0.000 C 
ATOM     12  O   UNL     1      -1.054  13.025  19.527  0.00  0.00    +0.000 OA
ATOM     13  C   UNL     1       0.171  12.305  19.321  0.00  0.00    +0.000 C 
ATOM     14  C   UNL     1       0.090  10.913  19.979  0.00  0.00    +0.000 C 
ATOM     15  C   UNL     1       1.318  10.044  19.651  0.00  0.00    +0.000 C 
ENDBRANCH   3   5
BRANCH   1  22
ATOM     16  C   UNL     1       2.902   5.085  17.854  0.00  0.00    +0.000 A 
ATOM     17  C   UNL     1       3.836   4.175  17.308  0.00  0.00    +0.000 A 
ATOM     18  C   UNL     1       5.117   4.566  16.910  0.00  0.00    +0.000 A 
ATOM     19  C   UNL     1       5.488   5.898  17.140  0.00  0.00    +0.000 A 
ATOM     20 CL   UNL     1       7.096   6.429  16.782  0.00  0.00    +0.000 Cl
ATOM     21  C   UNL     1       4.564   6.823  17.628  0.00  0.00    +0.000 A 
ATOM     22  C   UNL     1       3.252   6.442  17.979  0.00  0.00    +0.000 A 
BRANCH  18  23
ATOM     23  N   UNL     1       6.040   3.580  16.521  0.00  0.00    +0.000 N 
ATOM     24  H   UNL     1       6.156   3.480  15.517  0.00  0.00    +0.000 HD
ATOM     25  H   UNL     1       6.930   3.656  17.009  0.00  0.00    +0.000 HD
ENDBRANCH  18  23
BRANCH  16  27
ATOM     26  C   UNL     1       1.477   3.265  18.344  0.00  0.00    +0.000 C 
ATOM     27  O   UNL     1       1.648   4.680  18.240  0.00  0.00    +0.000 OA
ENDBRANCH  16  27
ENDBRANCH   1  22
TORSDOF 4
ENDMDL
MODEL 8
REMARK VINA RESULT:      -6.9      1.616      2.210
REMARK  Name = 
REMARK  6 active torsions:
REMARK  status: ('A' for Active; 'I' for Inactive)
REMARK    1  A    between atoms: C_1  and  O_2
REMARK    2  A    between atoms: O_2  and  C_3
REMARK    3  A    between atoms: C_5  and  N_6
REMARK    4  A    between atoms: C_10  and  C_11
REMARK    5  A    between atoms: N_13  and  C_14
REMARK    6  A    between atoms: C_18  and  C_19
REMARK                            x       y       z     vdW  Elec       q    Type
REMARK                         _______ _______ _______ _____ _____    ______ ____
ROOT
ATOM      1  C   UNL     1       1.967   7.771  19.324  0.00  0.00    +0.000 C 
ATOM      2  O   UNL     1       1.466   8.442  18.412  0.00  0.00    +0.000 OA
ATOM      3  N   UNL     1       1.666   8.031  20.654  0.00  0.00    +0.000 N 
ATOM      4  H   UNL     1       2.262   7.607  21.365  0.00  0.00    +0.000 HD
ENDROOT
BRANCH   3   5
ATOM      5  C   UNL     1       0.692   9.057  21.012  0.00  0.00    +0.000 C 
ATOM      6  C   UNL     1       0.476   9.265  22.512  0.00  0.00    +0.000 C 
ATOM      7  C   UNL     1      -0.752  10.165  22.699  0.00  0.00    +0.000 C 
ATOM      8  N   UNL     1      -0.610  11.471  22.027  0.00  0.00    +0.000 NA
ATOM      9  C   UNL     1      -1.870  12.273  22.106  0.00  0.00    +0.000 C 
ATOM     10  C   UNL     1      -2.306  12.561  23.549  0.00  0.00    +0.000 C 
ATOM     11  C   UNL     1      -1.713  13.618  21.355  0.00  0.00    +0.000 C 
ATOM     12  O   UNL     1      -1.321  13.430  19.990  0.00  0.00    +0.000 OA
ATOM     13  C   UNL     1      -0.089  12.694  19.919  0.00  0.00    +0.000 C 
ATOM     14  C   UNL     1      -0.254  11.313  20.583  0.00  0.00    +0.000 C 
ATOM     15  C   UNL     1       0.992  10.427  20.393  0.00  0.00    +0.000 C 
ENDBRANCH   3   5
BRANCH   1  22
ATOM     16  C   UNL     1       3.057   5.445  19.673  0.00  0.00    +0.000 A 
ATOM     17  C   UNL     1       3.922   4.448  19.165  0.00  0.00    +0.000 A 
ATOM     18  C   UNL     1       4.659   4.624  17.991  0.00  0.00    +0.000 A 
ATOM     19  C   UNL     1       4.575   5.870  17.354  0.00  0.00    +0.000 A 
ATOM     20 CL   UNL     1       5.547   6.203  15.961  0.00  0.00    +0.000 Cl
ATOM     21  C   UNL     1       3.689   6.846  17.809  0.00  0.00    +0.000 A 
ATOM     22  C   UNL     1       2.902   6.650  18.964  0.00  0.00    +0.000 A 
BRANCH  18  23
ATOM     23  N   UNL     1       5.610   3.653  17.633  0.00  0.00    +0.000 N 
ATOM     24  H   UNL     1       6.498   4.027  17.312  0.00  0.00    +0.000 HD
ATOM     25  H   UNL     1       5.726   2.932  18.341  0.00  0.00    +0.000 HD
ENDBRANCH  18  23
BRANCH  16  27
ATOM     26  C   UNL     1       1.484   4.111  20.824  0.00  0.00    +0.000 C 
ATOM     27  O   UNL     1       2.342   5.252  20.829  0.00  0.00    +0.000 OA
ENDBRANCH  16  27
ENDBRANCH   1  22
TORSDOF 4
ENDMDL
MODEL 9
REMARK VINA RESULT:      -6.9      2.125      2.651
REMARK  Name = 
REMARK  6 active torsions:
REMARK  status: ('A' for Active; 'I' for Inactive)
REMARK    1  A    between atoms: C_1  and  O_2
REMARK    2  A    between atoms: O_2  and  C_3
REMARK    3  A    between atoms: C_5  and  N_6
REMARK    4  A    between atoms: C_10  and  C_11
REMARK    5  A    between atoms: N_13  and  C_14
REMARK    6  A    between atoms: C_18  and  C_19
REMARK                            x       y       z     vdW  Elec       q    Type
REMARK                         _______ _______ _______ _____ _____    ______ ____
ROOT
ATOM      1  C   UNL     1       2.484   7.208  19.356  0.00  0.00    +0.000 C 
ATOM      2  O   UNL     1       2.663   8.002  18.423  0.00  0.00    +0.000 OA
ATOM      3  N   UNL     1       1.817   7.596  20.510  0.00  0.00    +0.000 N 
ATOM      4  H   UNL     1       1.887   6.987  21.324  0.00  0.00    +0.000 HD
ENDROOT
BRANCH   3   5
ATOM      5  C   UNL     1       1.241   8.933  20.626  0.00  0.00    +0.000 C 
ATOM      6  C   UNL     1       0.629   9.500  19.344  0.00  0.00    +0.000 C 
ATOM      7  C   UNL     1       0.326  10.987  19.575  0.00  0.00    +0.000 C 
ATOM      8  N   UNL     1      -0.589  11.213  20.711  0.00  0.00    +0.000 NA
ATOM      9  C   UNL     1      -0.758  12.671  21.002  0.00  0.00    +0.000 C 
ATOM     10  C   UNL     1      -1.325  13.455  19.811  0.00  0.00    +0.000 C 
ATOM     11  C   UNL     1      -1.684  12.882  22.225  0.00  0.00    +0.000 C 
ATOM     12  O   UNL     1      -1.210  12.189  23.385  0.00  0.00    +0.000 OA
ATOM     13  C   UNL     1      -1.087  10.784  23.114  0.00  0.00    +0.000 C 
ATOM     14  C   UNL     1      -0.097  10.548  21.957  0.00  0.00    +0.000 C 
ATOM     15  C   UNL     1       0.188   9.050  21.734  0.00  0.00    +0.000 C 
ENDBRANCH   3   5
BRANCH   1  22
ATOM     16  C   UNL     1       3.781   5.312  18.155  0.00  0.00    +0.000 A 
ATOM     17  C   UNL     1       4.250   3.979  18.199  0.00  0.00    +0.000 A 
ATOM     18  C   UNL     1       3.934   3.108  19.245  0.00  0.00    +0.000 A 
ATOM     19  C   UNL     1       3.060   3.577  20.236  0.00  0.00    +0.000 A 
ATOM     20 CL   UNL     1       2.529   2.520  21.500  0.00  0.00    +0.000 Cl
ATOM     21  C   UNL     1       2.629   4.904  20.239  0.00  0.00    +0.000 A 
ATOM     22  C   UNL     1       2.992   5.801  19.212  0.00  0.00    +0.000 A 
BRANCH  18  23
ATOM     23  N   UNL     1       4.308   1.757  19.143  0.00  0.00    +0.000 N 
ATOM     24  H   UNL     1       4.929   1.546  18.368  0.00  0.00    +0.000 HD
ATOM     25  H   UNL     1       4.642   1.372  20.024  0.00  0.00    +0.000 HD
ENDBRANCH  18  23
BRANCH  16  27
ATOM     26  C   UNL     1       5.399   5.944  16.554  0.00  0.00    +0.000 C 
ATOM     27  O   UNL     1       4.103   6.151  17.117  0.00  0.00    +0.000 OA
ENDBRANCH  16  27
ENDBRANCH   1  22
TORSDOF 4
ENDMDL
