MODEL 1
REMARK VINA RESULT:      -8.8      0.000      0.000
REMARK  Name = 
REMARK  7 active torsions:
REMARK  status: ('A' for Active; 'I' for Inactive)
REMARK    1  A    between atoms: C_1  and  C_2
REMARK    2  A    between atoms: C_2  and  C_3
REMARK    3  A    between atoms: C_3  and  N_4
REMARK    4  A    between atoms: C_5  and  C_7
REMARK    5  A    between atoms: C_7  and  C_8
REMARK    6  A    between atoms: C_8  and  N_9
REMARK    7  A    between atoms: C_11  and  C_12
REMARK                            x       y       z     vdW  Elec       q    Type
REMARK                         _______ _______ _______ _____ _____    ______ ____
ROOT
ATOM      1  N   UNL     1       5.087   5.016  18.642  0.00  0.00    +0.000 N 
ATOM      2  N   UNL     1       4.309   6.157  18.618  0.00  0.00    +0.000 NA
ATOM      3  C   UNL     1       3.130   6.149  19.175  0.00  0.00    +0.000 A 
ATOM      4  C   UNL     1       2.565   4.915  19.790  0.00  0.00    +0.000 A 
ATOM      5  C   UNL     1       1.239   4.788  20.220  0.00  0.00    +0.000 A 
ATOM      6  C   UNL     1       0.746   3.567  20.669  0.00  0.00    +0.000 A 
ATOM      7  C   UNL     1       1.594   2.477  20.794  0.00  0.00    +0.000 A 
ATOM      8  C   UNL     1       2.928   2.601  20.428  0.00  0.00    +0.000 A 
ATOM      9  C   UNL     1       3.398   3.810  19.890  0.00  0.00    +0.000 A 
ATOM     10  C   UNL     1       4.740   3.856  19.300  0.00  0.00    +0.000 A 
ATOM     11  O   UNL     1       5.440   2.837  19.350  0.00  0.00    +0.000 OA
ENDROOT
BRANCH   3  12
ATOM     12  C   UNL     1       2.334   7.425  19.139  0.00  0.00    +0.000 A 
ATOM     13  C   UNL     1       2.169   8.107  17.926  0.00  0.00    +0.000 A 
ATOM     14  C   UNL     1       1.525   9.353  17.911  0.00  0.00    +0.000 A 
ATOM     15  C   UNL     1       0.945   9.857  19.072  0.00  0.00    +0.000 A 
ATOM     16 CL   UNL     1       0.219  11.416  19.082  0.00  0.00    +0.000 Cl
ATOM     17  C   UNL     1       1.006   9.135  20.257  0.00  0.00    +0.000 A 
ATOM     18  C   UNL     1       1.784   7.981  20.301  0.00  0.00    +0.000 A 
ENDBRANCH   3  12
BRANCH   1  19
ATOM     19  C   UNL     1       6.358   5.064  17.911  0.00  0.00    +0.000 C 
BRANCH  19  20
ATOM     20  C   UNL     1       7.450   5.838  18.646  0.00  0.00    +0.000 C 
BRANCH  20  22
ATOM     21  N   UNL     1       8.417   8.078  18.734  0.00  0.00    +0.000 N 
ATOM     22  C   UNL     1       7.660   7.183  18.000  0.00  0.00    +0.000 C 
ATOM     23  O   UNL     1       7.180   7.455  16.898  0.00  0.00    +0.000 OA
ATOM     24  H   UNL     1       8.725   7.815  19.661  0.00  0.00    +0.000 HD
BRANCH  21  25
ATOM     25  C   UNL     1       8.700   9.403  18.241  0.00  0.00    +0.000 C 
BRANCH  25  27
ATOM     26  C   UNL     1       9.940  11.572  18.673  0.00  0.00    +0.000 C 
ATOM     27  C   UNL     1       9.360  10.307  19.284  0.00  0.00    +0.000 C 
ENDBRANCH  25  27
ENDBRANCH  21  25
ENDBRANCH  20  22
ENDBRANCH  19  20
ENDBRANCH   1  19
TORSDOF 6
ENDMDL
MODEL 2
REMARK VINA RESULT:      -8.8      2.611      4.156
REMARK  Name = 
REMARK  7 active torsions:
REMARK  status: ('A' for Active; 'I' for Inactive)
REMARK    1  A    between atoms: C_1  and  C_2
REMARK    2  A    between atoms: C_2  and  C_3
REMARK    3  A    between atoms: C_3  and  N_4
REMARK    4  A    between atoms: C_5  and  C_7
REMARK    5  A    between atoms: C_7  and  C_8
REMARK    6  A    between atoms: C_8  and  N_9
REMARK    7  A    between atoms: C_11  and  C_12
REMARK                            x       y       z     vdW  Elec       q    Type
REMARK                         _______ _______ _______ _____ _____    ______ ____
ROOT
ATOM      1  N   UNL     1       4.916   5.359  18.136  0.00  0.00    +0.000 N 
ATOM      2  N   UNL     1       4.079   6.452  18.254  0.00  0.00    +0.000 NA
ATOM      3  C   UNL     1       3.023   6.380  19.014  0.00  0.00    +0.000 A 
ATOM      4  C   UNL     1       2.653   5.121  19.721  0.00  0.00    +0.000 A 
ATOM      5  C   UNL     1       1.436   4.921  20.384  0.00  0.00    +0.000 A 
ATOM      6  C   UNL     1       1.107   3.677  20.915  0.00  0.00    +0.000 A 
ATOM      7  C   UNL     1       2.029   2.641  20.885  0.00  0.00    +0.000 A 
ATOM      8  C   UNL     1       3.265   2.841  20.283  0.00  0.00    +0.000 A 
ATOM      9  C   UNL     1       3.556   4.069  19.669  0.00  0.00    +0.000 A 
ATOM     10  C   UNL     1       4.763   4.188  18.846  0.00  0.00    +0.000 A 
ATOM     11  O   UNL     1       5.521   3.213  18.769  0.00  0.00    +0.000 OA
ENDROOT
BRANCH   3  12
ATOM     12  C   UNL     1       2.157   7.606  19.123  0.00  0.00    +0.000 A 
ATOM     13  C   UNL     1       1.840   8.337  17.970  0.00  0.00    +0.000 A 
ATOM     14  C   UNL     1       1.130   9.541  18.084  0.00  0.00    +0.000 A 
ATOM     15  C   UNL     1       0.636   9.950  19.320  0.00  0.00    +0.000 A 
ATOM     16 CL   UNL     1      -0.170  11.461  19.484  0.00  0.00    +0.000 Cl
ATOM     17  C   UNL     1       0.849   9.175  20.453  0.00  0.00    +0.000 A 
ATOM     18  C   UNL     1       1.691   8.069  20.360  0.00  0.00    +0.000 A 
ENDBRANCH   3  12
BRANCH   1  19
ATOM     19  C   UNL     1       6.028   5.475  17.187  0.00  0.00    +0.000 C 
BRANCH  19  20
ATOM     20  C   UNL     1       5.588   5.896  15.787  0.00  0.00    +0.000 C 
BRANCH  20  22
ATOM     21  N   UNL     1       5.702   4.274  13.966  0.00  0.00    +0.000 N 
ATOM     22  C   UNL     1       6.404   5.175  14.745  0.00  0.00    +0.000 C 
ATOM     23  O   UNL     1       7.613   5.380  14.612  0.00  0.00    +0.000 OA
ATOM     24  H   UNL     1       4.726   4.104  14.172  0.00  0.00    +0.000 HD
BRANCH  21  25
ATOM     25  C   UNL     1       6.352   3.512  12.929  0.00  0.00    +0.000 C 
BRANCH  25  27
ATOM     26  C   UNL     1       5.795   1.640  11.312  0.00  0.00    +0.000 C 
ATOM     27  C   UNL     1       5.384   2.997  11.862  0.00  0.00    +0.000 C 
ENDBRANCH  25  27
ENDBRANCH  21  25
ENDBRANCH  20  22
ENDBRANCH  19  20
ENDBRANCH   1  19
TORSDOF 6
ENDMDL
MODEL 3
REMARK VINA RESULT:      -8.7      2.016      3.335
REMARK  Name = 
REMARK  7 active torsions:
REMARK  status: ('A' for Active; 'I' for Inactive)
REMARK    1  A    between atoms: C_1  and  C_2
REMARK    2  A    between atoms: C_2  and  C_3
REMARK    3  A    between atoms: C_3  and  N_4
REMARK    4  A    between atoms: C_5  and  C_7
REMARK    5  A    between atoms: C_7  and  C_8
REMARK    6  A    between atoms: C_8  and  N_9
REMARK    7  A    between atoms: C_11  and  C_12
REMARK                            x       y       z     vdW  Elec       q    Type
REMARK                         _______ _______ _______ _____ _____    ______ ____
ROOT
ATOM      1  N   UNL     1       5.141   4.797  19.142  0.00  0.00    +0.000 N 
ATOM      2  N   UNL     1       4.426   5.972  19.018  0.00  0.00    +0.000 NA
ATOM      3  C   UNL     1       3.157   5.992  19.316  0.00  0.00    +0.000 A 
ATOM      4  C   UNL     1       2.433   4.757  19.732  0.00  0.00    +0.000 A 
ATOM      5  C   UNL     1       1.042   4.671  19.869  0.00  0.00    +0.000 A 
ATOM      6  C   UNL     1       0.424   3.453  20.140  0.00  0.00    +0.000 A 
ATOM      7  C   UNL     1       1.190   2.322  20.379  0.00  0.00    +0.000 A 
ATOM      8  C   UNL     1       2.574   2.403  20.306  0.00  0.00    +0.000 A 
ATOM      9  C   UNL     1       3.188   3.613  19.944  0.00  0.00    +0.000 A 
ATOM     10  C   UNL     1       4.624   3.625  19.649  0.00  0.00    +0.000 A 
ATOM     11  O   UNL     1       5.262   2.574  19.789  0.00  0.00    +0.000 OA
ENDROOT
BRANCH   3  12
ATOM     12  C   UNL     1       2.430   7.302  19.184  0.00  0.00    +0.000 A 
ATOM     13  C   UNL     1       1.873   7.905  20.320  0.00  0.00    +0.000 A 
ATOM     14  C   UNL     1       1.099   9.066  20.181  0.00  0.00    +0.000 A 
ATOM     15  C   UNL     1       0.981   9.688  18.941  0.00  0.00    +0.000 A 
ATOM     16 CL   UNL     1      -0.027  11.068  18.745  0.00  0.00    +0.000 Cl
ATOM     17  C   UNL     1       1.622   9.159  17.828  0.00  0.00    +0.000 A 
ATOM     18  C   UNL     1       2.253   7.922  17.940  0.00  0.00    +0.000 A 
ENDBRANCH   3  12
BRANCH   1  19
ATOM     19  C   UNL     1       6.539   4.821  18.695  0.00  0.00    +0.000 C 
BRANCH  19  20
ATOM     20  C   UNL     1       6.931   6.127  18.006  0.00  0.00    +0.000 C 
BRANCH  20  22
ATOM     21  N   UNL     1       7.289   5.098  15.822  0.00  0.00    +0.000 N 
ATOM     22  C   UNL     1       6.601   6.061  16.537  0.00  0.00    +0.000 C 
ATOM     23  O   UNL     1       5.779   6.821  16.023  0.00  0.00    +0.000 OA
ATOM     24  H   UNL     1       8.000   4.552  16.291  0.00  0.00    +0.000 HD
BRANCH  21  25
ATOM     25  C   UNL     1       7.075   4.919  14.407  0.00  0.00    +0.000 C 
BRANCH  25  27
ATOM     26  C   UNL     1       6.022   3.504  12.586  0.00  0.00    +0.000 C 
ATOM     27  C   UNL     1       6.142   3.752  14.081  0.00  0.00    +0.000 C 
ENDBRANCH  25  27
ENDBRANCH  21  25
ENDBRANCH  20  22
ENDBRANCH  19  20
ENDBRANCH   1  19
TORSDOF 6
ENDMDL
MODEL 4
REMARK VINA RESULT:      -8.7      2.099      3.337
REMARK  Name = 
REMARK  7 active torsions:
REMARK  status: ('A' for Active; 'I' for Inactive)
REMARK    1  A    between atoms: C_1  and  C_2
REMARK    2  A    between atoms: C_2  and  C_3
REMARK    3  A    between atoms: C_3  and  N_4
REMARK    4  A    between atoms: C_5  and  C_7
REMARK    5  A    between atoms: C_7  and  C_8
REMARK    6  A    between atoms: C_8  and  N_9
REMARK    7  A    between atoms: C_11  and  C_12
REMARK                            x       y       z     vdW  Elec       q    Type
REMARK                         _______ _______ _______ _____ _____    ______ ____
ROOT
ATOM      1  N   UNL     1       5.083   4.995  18.810  0.00  0.00    +0.000 N 
ATOM      2  N   UNL     1       4.319   6.144  18.756  0.00  0.00    +0.000 NA
ATOM      3  C   UNL     1       3.109   6.141  19.243  0.00  0.00    +0.000 A 
ATOM      4  C   UNL     1       2.498   4.905  19.806  0.00  0.00    +0.000 A 
ATOM      5  C   UNL     1       1.147   4.786  20.156  0.00  0.00    +0.000 A 
ATOM      6  C   UNL     1       0.617   3.564  20.559  0.00  0.00    +0.000 A 
ATOM      7  C   UNL     1       1.446   2.464  20.718  0.00  0.00    +0.000 A 
ATOM      8  C   UNL     1       2.800   2.580  20.433  0.00  0.00    +0.000 A 
ATOM      9  C   UNL     1       3.313   3.790  19.940  0.00  0.00    +0.000 A 
ATOM     10  C   UNL     1       4.687   3.830  19.430  0.00  0.00    +0.000 A 
ATOM     11  O   UNL     1       5.373   2.803  19.506  0.00  0.00    +0.000 OA
ENDROOT
BRANCH   3  12
ATOM     12  C   UNL     1       2.328   7.426  19.178  0.00  0.00    +0.000 A 
ATOM     13  C   UNL     1       2.213   8.108  17.959  0.00  0.00    +0.000 A 
ATOM     14  C   UNL     1       1.584   9.360  17.921  0.00  0.00    +0.000 A 
ATOM     15  C   UNL     1       0.969   9.872  19.061  0.00  0.00    +0.000 A 
ATOM     16 CL   UNL     1       0.261  11.440  19.045  0.00  0.00    +0.000 Cl
ATOM     17  C   UNL     1       0.981   9.151  20.248  0.00  0.00    +0.000 A 
ATOM     18  C   UNL     1       1.745   7.989  20.320  0.00  0.00    +0.000 A 
ENDBRANCH   3  12
BRANCH   1  19
ATOM     19  C   UNL     1       6.395   5.039  18.155  0.00  0.00    +0.000 C 
BRANCH  19  20
ATOM     20  C   UNL     1       6.617   6.306  17.330  0.00  0.00    +0.000 C 
BRANCH  20  22
ATOM     21  N   UNL     1       7.239   5.236  15.226  0.00  0.00    +0.000 N 
ATOM     22  C   UNL     1       6.321   6.040  15.876  0.00  0.00    +0.000 C 
ATOM     23  O   UNL     1       5.331   6.516  15.319  0.00  0.00    +0.000 OA
ATOM     24  H   UNL     1       8.066   4.933  15.724  0.00  0.00    +0.000 HD
BRANCH  21  25
ATOM     25  C   UNL     1       7.085   4.896  13.833  0.00  0.00    +0.000 C 
BRANCH  25  27
ATOM     26  C   UNL     1       5.271   3.715  12.512  0.00  0.00    +0.000 C 
ATOM     27  C   UNL     1       6.313   3.594  13.613  0.00  0.00    +0.000 C 
ENDBRANCH  25  27
ENDBRANCH  21  25
ENDBRANCH  20  22
ENDBRANCH  19  20
ENDBRANCH   1  19
TORSDOF 6
ENDMDL
MODEL 5
REMARK VINA RESULT:      -8.6      2.984      4.455
REMARK  Name = 
REMARK  7 active torsions:
REMARK  status: ('A' for Active; 'I' for Inactive)
REMARK    1  A    between atoms: C_1  and  C_2
REMARK    2  A    between atoms: C_2  and  C_3
REMARK    3  A    between atoms: C_3  and  N_4
REMARK    4  A    between atoms: C_5  and  C_7
REMARK    5  A    between atoms: C_7  and  C_8
REMARK    6  A    between atoms: C_8  and  N_9
REMARK    7  A    between atoms: C_11  and  C_12
REMARK                            x       y       z     vdW  Elec       q    Type
REMARK                         _______ _______ _______ _____ _____    ______ ____
ROOT
ATOM      1  N   UNL     1       4.298   5.605  16.894  0.00  0.00    +0.000 N 
ATOM      2  N   UNL     1       3.655   6.625  17.567  0.00  0.00    +0.000 NA
ATOM      3  C   UNL     1       2.783   6.341  18.494  0.00  0.00    +0.000 A 
ATOM      4  C   UNL     1       2.410   4.933  18.809  0.00  0.00    +0.000 A 
ATOM      5  C   UNL     1       1.345   4.571  19.643  0.00  0.00    +0.000 A 
ATOM      6  C   UNL     1       0.976   3.237  19.794  0.00  0.00    +0.000 A 
ATOM      7  C   UNL     1       1.726   2.235  19.197  0.00  0.00    +0.000 A 
ATOM      8  C   UNL     1       2.823   2.574  18.415  0.00  0.00    +0.000 A 
ATOM      9  C   UNL     1       3.136   3.924  18.192  0.00  0.00    +0.000 A 
ATOM     10  C   UNL     1       4.147   4.267  17.188  0.00  0.00    +0.000 A 
ATOM     11  O   UNL     1       4.737   3.346  16.609  0.00  0.00    +0.000 OA
ENDROOT
BRANCH   3  12
ATOM     12  C   UNL     1       2.128   7.490  19.211  0.00  0.00    +0.000 A 
ATOM     13  C   UNL     1       1.915   7.414  20.594  0.00  0.00    +0.000 A 
ATOM     14  C   UNL     1       1.204   8.433  21.244  0.00  0.00    +0.000 A 
ATOM     15  C   UNL     1       0.814   9.573  20.546  0.00  0.00    +0.000 A 
ATOM     16 CL   UNL     1      -0.125  10.792  21.314  0.00  0.00    +0.000 Cl
ATOM     17  C   UNL     1       1.119   9.708  19.197  0.00  0.00    +0.000 A 
ATOM     18  C   UNL     1       1.680   8.625  18.524  0.00  0.00    +0.000 A 
ENDBRANCH   3  12
BRANCH   1  19
ATOM     19  C   UNL     1       5.191   5.994  15.796  0.00  0.00    +0.000 C 
BRANCH  19  20
ATOM     20  C   UNL     1       6.540   5.279  15.832  0.00  0.00    +0.000 C 
BRANCH  20  22
ATOM     21  N   UNL     1       6.187   4.033  13.763  0.00  0.00    +0.000 N 
ATOM     22  C   UNL     1       6.987   4.940  14.432  0.00  0.00    +0.000 C 
ATOM     23  O   UNL     1       7.999   5.439  13.936  0.00  0.00    +0.000 OA
ATOM     24  H   UNL     1       5.409   3.610  14.251  0.00  0.00    +0.000 HD
BRANCH  21  25
ATOM     25  C   UNL     1       6.491   3.615  12.416  0.00  0.00    +0.000 C 
BRANCH  25  27
ATOM     26  C   UNL     1       4.251   3.224  11.294  0.00  0.00    +0.000 C 
ATOM     27  C   UNL     1       5.505   2.582  11.868  0.00  0.00    +0.000 C 
ENDBRANCH  25  27
ENDBRANCH  21  25
ENDBRANCH  20  22
ENDBRANCH  19  20
ENDBRANCH   1  19
TORSDOF 6
ENDMDL
MODEL 6
REMARK VINA RESULT:      -8.5      1.351      1.879
REMARK  Name = 
REMARK  7 active torsions:
REMARK  status: ('A' for Active; 'I' for Inactive)
REMARK    1  A    between atoms: C_1  and  C_2
REMARK    2  A    between atoms: C_2  and  C_3
REMARK    3  A    between atoms: C_3  and  N_4
REMARK    4  A    between atoms: C_5  and  C_7
REMARK    5  A    between atoms: C_7  and  C_8
REMARK    6  A    between atoms: C_8  and  N_9
REMARK    7  A    between atoms: C_11  and  C_12
REMARK                            x       y       z     vdW  Elec       q    Type
REMARK                         _______ _______ _______ _____ _____    ______ ____
ROOT
ATOM      1  N   UNL     1       4.119   4.447  17.134  0.00  0.00    +0.000 N 
ATOM      2  N   UNL     1       3.614   5.700  17.424  0.00  0.00    +0.000 NA
ATOM      3  C   UNL     1       2.827   5.859  18.450  0.00  0.00    +0.000 A 
ATOM      4  C   UNL     1       2.401   4.707  19.294  0.00  0.00    +0.000 A 
ATOM      5  C   UNL     1       1.407   4.779  20.278  0.00  0.00    +0.000 A 
ATOM      6  C   UNL     1       0.973   3.635  20.941  0.00  0.00    +0.000 A 
ATOM      7  C   UNL     1       1.594   2.417  20.708  0.00  0.00    +0.000 A 
ATOM      8  C   UNL     1       2.623   2.339  19.779  0.00  0.00    +0.000 A 
ATOM      9  C   UNL     1       2.995   3.478  19.047  0.00  0.00    +0.000 A 
ATOM     10  C   UNL     1       3.917   3.331  17.916  0.00  0.00    +0.000 A 
ATOM     11  O   UNL     1       4.385   2.210  17.680  0.00  0.00    +0.000 OA
ENDROOT
BRANCH   3  12
ATOM     12  C   UNL     1       2.322   7.248  18.733  0.00  0.00    +0.000 A 
ATOM     13  C   UNL     1       1.923   7.591  20.032  0.00  0.00    +0.000 A 
ATOM     14  C   UNL     1       1.346   8.847  20.273  0.00  0.00    +0.000 A 
ATOM     15  C   UNL     1       1.280   9.795  19.257  0.00  0.00    +0.000 A 
ATOM     16 CL   UNL     1       0.507  11.309  19.520  0.00  0.00    +0.000 Cl
ATOM     17  C   UNL     1       1.776   9.504  17.991  0.00  0.00    +0.000 A 
ATOM     18  C   UNL     1       2.197   8.205  17.718  0.00  0.00    +0.000 A 
ENDBRANCH   3  12
BRANCH   1  19
ATOM     19  C   UNL     1       4.916   4.320  15.909  0.00  0.00    +0.000 C 
BRANCH  19  20
ATOM     20  C   UNL     1       5.580   5.628  15.480  0.00  0.00    +0.000 C 
BRANCH  20  22
ATOM     21  N   UNL     1       6.709   7.184  16.985  0.00  0.00    +0.000 N 
ATOM     22  C   UNL     1       6.747   5.940  16.383  0.00  0.00    +0.000 C 
ATOM     23  O   UNL     1       7.664   5.135  16.557  0.00  0.00    +0.000 OA
ATOM     24  H   UNL     1       5.961   7.822  16.747  0.00  0.00    +0.000 HD
BRANCH  21  25
ATOM     25  C   UNL     1       7.757   7.619  17.874  0.00  0.00    +0.000 C 
BRANCH  25  27
ATOM     26  C   UNL     1       8.942   9.622  18.880  0.00  0.00    +0.000 C 
ATOM     27  C   UNL     1       8.094   9.104  17.729  0.00  0.00    +0.000 C 
ENDBRANCH  25  27
ENDBRANCH  21  25
ENDBRANCH  20  22
ENDBRANCH  19  20
ENDBRANCH   1  19
TORSDOF 6
ENDMDL
MODEL 7
REMARK VINA RESULT:      -8.5      1.657      1.798
REMARK  Name = 
REMARK  7 active torsions:
REMARK  status: ('A' for Active; 'I' for Inactive)
REMARK    1  A    between atoms: C_1  and  C_2
REMARK    2  A    between atoms: C_2  and  C_3
REMARK    3  A    between atoms: C_3  and  N_4
REMARK    4  A    between atoms: C_5  and  C_7
REMARK    5  A    between atoms: C_7  and  C_8
REMARK    6  A    between atoms: C_8  and  N_9
REMARK    7  A    between atoms: C_11  and  C_12
REMARK                            x       y       z     vdW  Elec       q    Type
REMARK                         _______ _______ _______ _____ _____    ______ ____
ROOT
ATOM      1  N   UNL     1       4.525   5.359  16.636  0.00  0.00    +0.000 N 
ATOM      2  N   UNL     1       3.850   6.396  17.251  0.00  0.00    +0.000 NA
ATOM      3  C   UNL     1       2.922   6.135  18.129  0.00  0.00    +0.000 A 
ATOM      4  C   UNL     1       2.521   4.736  18.447  0.00  0.00    +0.000 A 
ATOM      5  C   UNL     1       1.405   4.396  19.222  0.00  0.00    +0.000 A 
ATOM      6  C   UNL     1       1.017   3.068  19.375  0.00  0.00    +0.000 A 
ATOM      7  C   UNL     1       1.794   2.050  18.843  0.00  0.00    +0.000 A 
ATOM      8  C   UNL     1       2.938   2.367  18.122  0.00  0.00    +0.000 A 
ATOM      9  C   UNL     1       3.274   3.711  17.894  0.00  0.00    +0.000 A 
ATOM     10  C   UNL     1       4.346   4.028  16.945  0.00  0.00    +0.000 A 
ATOM     11  O   UNL     1       4.963   3.093  16.420  0.00  0.00    +0.000 OA
ENDROOT
BRANCH   3  12
ATOM     12  C   UNL     1       2.234   7.302  18.784  0.00  0.00    +0.000 A 
ATOM     13  C   UNL     1       1.823   8.392  18.006  0.00  0.00    +0.000 A 
ATOM     14  C   UNL     1       1.286   9.527  18.630  0.00  0.00    +0.000 A 
ATOM     15  C   UNL     1       1.048   9.528  20.001  0.00  0.00    +0.000 A 
ATOM     16 CL   UNL     1       0.461  10.941  20.788  0.00  0.00    +0.000 Cl
ATOM     17  C   UNL     1       1.349   8.408  20.767  0.00  0.00    +0.000 A 
ATOM     18  C   UNL     1       2.030   7.350  20.169  0.00  0.00    +0.000 A 
ENDBRANCH   3  12
BRANCH   1  19
ATOM     19  C   UNL     1       5.484   5.722  15.587  0.00  0.00    +0.000 C 
BRANCH  19  20
ATOM     20  C   UNL     1       6.908   5.252  15.881  0.00  0.00    +0.000 C 
BRANCH  20  22
ATOM     21  N   UNL     1       7.725   7.219  17.072  0.00  0.00    +0.000 N 
ATOM     22  C   UNL     1       7.409   5.876  17.158  0.00  0.00    +0.000 C 
ATOM     23  O   UNL     1       7.529   5.222  18.196  0.00  0.00    +0.000 OA
ATOM     24  H   UNL     1       7.667   7.681  16.175  0.00  0.00    +0.000 HD
BRANCH  21  25
ATOM     25  C   UNL     1       8.216   7.949  18.216  0.00  0.00    +0.000 C 
BRANCH  25  27
ATOM     26  C   UNL     1       9.145  10.168  19.016  0.00  0.00    +0.000 C 
ATOM     27  C   UNL     1       8.281   9.460  17.984  0.00  0.00    +0.000 C 
ENDBRANCH  25  27
ENDBRANCH  21  25
ENDBRANCH  20  22
ENDBRANCH  19  20
ENDBRANCH   1  19
TORSDOF 6
ENDMDL
MODEL 8
REMARK VINA RESULT:      -8.4      1.670      1.861
REMARK  Name = 
REMARK  7 active torsions:
REMARK  status: ('A' for Active; 'I' for Inactive)
REMARK    1  A    between atoms: C_1  and  C_2
REMARK    2  A    between atoms: C_2  and  C_3
REMARK    3  A    between atoms: C_3  and  N_4
REMARK    4  A    between atoms: C_5  and  C_7
REMARK    5  A    between atoms: C_7  and  C_8
REMARK    6  A    between atoms: C_8  and  N_9
REMARK    7  A    between atoms: C_11  and  C_12
REMARK                            x       y       z     vdW  Elec       q    Type
REMARK                         _______ _______ _______ _____ _____    ______ ____
ROOT
ATOM      1  N   UNL     1       5.658   6.214  17.335  0.00  0.00    +0.000 N 
ATOM      2  N   UNL     1       4.695   7.105  17.767  0.00  0.00    +0.000 NA
ATOM      3  C   UNL     1       3.513   6.670  18.102  0.00  0.00    +0.000 A 
ATOM      4  C   UNL     1       3.146   5.231  17.973  0.00  0.00    +0.000 A 
ATOM      5  C   UNL     1       1.844   4.737  18.123  0.00  0.00    +0.000 A 
ATOM      6  C   UNL     1       1.552   3.400  17.865  0.00  0.00    +0.000 A 
ATOM      7  C   UNL     1       2.572   2.513  17.554  0.00  0.00    +0.000 A 
ATOM      8  C   UNL     1       3.878   2.975  17.460  0.00  0.00    +0.000 A 
ATOM      9  C   UNL     1       4.153   4.341  17.632  0.00  0.00    +0.000 A 
ATOM     10  C   UNL     1       5.490   4.847  17.306  0.00  0.00    +0.000 A 
ATOM     11  O   UNL     1       6.354   4.037  16.946  0.00  0.00    +0.000 OA
ENDROOT
BRANCH   3  12
ATOM     12  C   UNL     1       2.509   7.680  18.586  0.00  0.00    +0.000 A 
ATOM     13  C   UNL     1       2.002   8.637  17.696  0.00  0.00    +0.000 A 
ATOM     14  C   UNL     1       1.155   9.648  18.172  0.00  0.00    +0.000 A 
ATOM     15  C   UNL     1       0.720   9.635  19.494  0.00  0.00    +0.000 A 
ATOM     16 CL   UNL     1      -0.257  10.911  20.108  0.00  0.00    +0.000 Cl
ATOM     17  C   UNL     1       1.129   8.626  20.358  0.00  0.00    +0.000 A 
ATOM     18  C   UNL     1       2.095   7.722  19.923  0.00  0.00    +0.000 A 
ENDBRANCH   3  12
BRANCH   1  19
ATOM     19  C   UNL     1       6.932   6.782  16.879  0.00  0.00    +0.000 C 
BRANCH  19  20
ATOM     20  C   UNL     1       7.884   7.128  18.023  0.00  0.00    +0.000 C 
BRANCH  20  22
ATOM     21  N   UNL     1       8.985   9.047  19.053  0.00  0.00    +0.000 N 
ATOM     22  C   UNL     1       8.047   8.623  18.130  0.00  0.00    +0.000 C 
ATOM     23  O   UNL     1       7.381   9.399  17.442  0.00  0.00    +0.000 OA
ATOM     24  H   UNL     1       9.449   8.361  19.633  0.00  0.00    +0.000 HD
BRANCH  21  25
ATOM     25  C   UNL     1       9.249  10.450  19.264  0.00  0.00    +0.000 C 
BRANCH  25  27
ATOM     26  C   UNL     1      11.521  11.573  19.217  0.00  0.00    +0.000 C 
ATOM     27  C   UNL     1      10.385  10.987  18.393  0.00  0.00    +0.000 C 
ENDBRANCH  25  27
ENDBRANCH  21  25
ENDBRANCH  20  22
ENDBRANCH  19  20
ENDBRANCH   1  19
TORSDOF 6
ENDMDL
MODEL 9
REMARK VINA RESULT:      -8.4      2.748      4.327
REMARK  Name = 
REMARK  7 active torsions:
REMARK  status: ('A' for Active; 'I' for Inactive)
REMARK    1  A    between atoms: C_1  and  C_2
REMARK    2  A    between atoms: C_2  and  C_3
REMARK    3  A    between atoms: C_3  and  N_4
REMARK    4  A    between atoms: C_5  and  C_7
REMARK    5  A    between atoms: C_7  and  C_8
REMARK    6  A    between atoms: C_8  and  N_9
REMARK    7  A    between atoms: C_11  and  C_12
REMARK                            x       y       z     vdW  Elec       q    Type
REMARK                         _______ _______ _______ _____ _____    ______ ____
ROOT
ATOM      1  N   UNL     1       4.888   5.495  17.983  0.00  0.00    +0.000 N 
ATOM      2  N   UNL     1       4.048   6.581  18.129  0.00  0.00    +0.000 NA
ATOM      3  C   UNL     1       3.026   6.506  18.936  0.00  0.00    +0.000 A 
ATOM      4  C   UNL     1       2.699   5.249  19.666  0.00  0.00    +0.000 A 
ATOM      5  C   UNL     1       1.513   5.043  20.383  0.00  0.00    +0.000 A 
ATOM      6  C   UNL     1       1.218   3.801  20.936  0.00  0.00    +0.000 A 
ATOM      7  C   UNL     1       2.146   2.772  20.872  0.00  0.00    +0.000 A 
ATOM      8  C   UNL     1       3.353   2.978  20.216  0.00  0.00    +0.000 A 
ATOM      9  C   UNL     1       3.607   4.204  19.582  0.00  0.00    +0.000 A 
ATOM     10  C   UNL     1       4.777   4.327  18.707  0.00  0.00    +0.000 A 
ATOM     11  O   UNL     1       5.539   3.357  18.603  0.00  0.00    +0.000 OA
ENDROOT
BRANCH   3  12
ATOM     12  C   UNL     1       2.156   7.726  19.074  0.00  0.00    +0.000 A 
ATOM     13  C   UNL     1       1.701   8.114  20.341  0.00  0.00    +0.000 A 
ATOM     14  C   UNL     1       0.798   9.181  20.458  0.00  0.00    +0.000 A 
ATOM     15  C   UNL     1       0.448   9.930  19.338  0.00  0.00    +0.000 A 
ATOM     16 CL   UNL     1      -0.715  11.192  19.457  0.00  0.00    +0.000 Cl
ATOM     17  C   UNL     1       0.982   9.622  18.093  0.00  0.00    +0.000 A 
ATOM     18  C   UNL     1       1.746   8.466  17.957  0.00  0.00    +0.000 A 
ENDBRANCH   3  12
BRANCH   1  19
ATOM     19  C   UNL     1       5.958   5.612  16.986  0.00  0.00    +0.000 C 
BRANCH  19  20
ATOM     20  C   UNL     1       5.446   5.611  15.547  0.00  0.00    +0.000 C 
BRANCH  20  22
ATOM     21  N   UNL     1       5.874   4.521  13.405  0.00  0.00    +0.000 N 
ATOM     22  C   UNL     1       6.074   4.480  14.772  0.00  0.00    +0.000 C 
ATOM     23  O   UNL     1       6.713   3.587  15.332  0.00  0.00    +0.000 OA
ATOM     24  H   UNL     1       5.283   5.244  13.016  0.00  0.00    +0.000 HD
BRANCH  21  25
ATOM     25  C   UNL     1       6.417   3.506  12.536  0.00  0.00    +0.000 C 
BRANCH  25  27
ATOM     26  C   UNL     1       4.201   3.372  11.311  0.00  0.00    +0.000 C 
ATOM     27  C   UNL     1       5.347   2.592  11.935  0.00  0.00    +0.000 C 
ENDBRANCH  25  27
ENDBRANCH  21  25
ENDBRANCH  20  22
ENDBRANCH  19  20
ENDBRANCH   1  19
TORSDOF 6
ENDMDL
