MODEL 1
REMARK VINA RESULT:      -7.5      0.000      0.000
REMARK  Name = 
REMARK  7 active torsions:
REMARK  status: ('A' for Active; 'I' for Inactive)
REMARK    1  A    between atoms: C_1  and  O_2
REMARK    2  A    between atoms: O_2  and  C_3
REMARK    3  A    between atoms: C_6  and  N_7
REMARK    4  A    between atoms: C_8  and  C_10
REMARK    5  A    between atoms: C_10  and  S_11
REMARK    6  A    between atoms: S_11  and  C_12
REMARK    7  A    between atoms: C_15  and  C_16
REMARK                            x       y       z     vdW  Elec       q    Type
REMARK                         _______ _______ _______ _____ _____    ______ ____
ROOT
ATOM      1  C   UNL     1       7.362   7.374  17.435  0.00  0.00    +0.000 C 
ENDROOT
BRANCH   1   3
ATOM      2  N   UNL     1       7.302   5.636  15.687  0.00  0.00    +0.000 N 
ATOM      3  C   UNL     1       6.603   6.634  16.347  0.00  0.00    +0.000 C 
ATOM      4  O   UNL     1       5.405   6.878  16.190  0.00  0.00    +0.000 OA
ATOM      5  H   UNL     1       8.228   5.414  16.040  0.00  0.00    +0.000 HD
BRANCH   2   9
ATOM      6  C   UNL     1       5.980   3.396  12.353  0.00  0.00    +0.000 A 
ATOM      7  C   UNL     1       5.260   3.362  13.544  0.00  0.00    +0.000 A 
ATOM      8  C   UNL     1       5.678   4.104  14.650  0.00  0.00    +0.000 A 
ATOM      9  C   UNL     1       6.835   4.879  14.591  0.00  0.00    +0.000 A 
ATOM     10  C   UNL     1       7.551   4.928  13.389  0.00  0.00    +0.000 A 
ATOM     11  C   UNL     1       7.132   4.177  12.277  0.00  0.00    +0.000 A 
BRANCH   6  13
ATOM     12  C   UNL     1       6.088   1.331  11.203  0.00  0.00    +0.000 C 
ATOM     13  O   UNL     1       5.476   2.604  11.362  0.00  0.00    +0.000 OA
ENDBRANCH   6  13
ENDBRANCH   2   9
ENDBRANCH   1   3
BRANCH   1  14
ATOM     14  S   UNL     1       7.854   6.360  18.842  0.00  0.00    +0.000 S 
BRANCH  14  15
ATOM     15  C   UNL     1       6.515   5.256  18.962  0.00  0.00    +0.000 A 
ATOM     16  N   UNL     1       6.587   4.065  18.361  0.00  0.00    +0.000 NA
ATOM     17  N   UNL     1       5.379   3.555  18.639  0.00  0.00    +0.000 N 
ATOM     18  C   UNL     1       4.631   4.423  19.379  0.00  0.00    +0.000 A 
ATOM     19  N   UNL     1       5.338   5.512  19.615  0.00  0.00    +0.000 NA
ATOM     20  H   UNL     1       5.117   2.641  18.293  0.00  0.00    +0.000 HD
BRANCH  18  21
ATOM     21  C   UNL     1       3.292   4.129  19.768  0.00  0.00    +0.000 A 
ATOM     22  C   UNL     1       2.270   4.991  20.127  0.00  0.00    +0.000 A 
ATOM     23  C   UNL     1       1.128   4.198  20.403  0.00  0.00    +0.000 A 
ATOM     24  C   UNL     1       1.514   2.895  20.202  0.00  0.00    +0.000 A 
ATOM     25  O   UNL     1       2.815   2.840  19.823  0.00  0.00    +0.000 OA
ENDBRANCH  18  21
ENDBRANCH  14  15
ENDBRANCH   1  14
TORSDOF 6
ENDMDL
MODEL 2
REMARK VINA RESULT:      -7.3      0.621      1.178
REMARK  Name = 
REMARK  7 active torsions:
REMARK  status: ('A' for Active; 'I' for Inactive)
REMARK    1  A    between atoms: C_1  and  O_2
REMARK    2  A    between atoms: O_2  and  C_3
REMARK    3  A    between atoms: C_6  and  N_7
REMARK    4  A    between atoms: C_8  and  C_10
REMARK    5  A    between atoms: C_10  and  S_11
REMARK    6  A    between atoms: S_11  and  C_12
REMARK    7  A    between atoms: C_15  and  C_16
REMARK                            x       y       z     vdW  Elec       q    Type
REMARK                         _______ _______ _______ _____ _____    ______ ____
ROOT
ATOM      1  C   UNL     1       7.579   7.307  17.679  0.00  0.00    +0.000 C 
ENDROOT
BRANCH   1   3
ATOM      2  N   UNL     1       7.430   5.636  15.872  0.00  0.00    +0.000 N 
ATOM      3  C   UNL     1       6.800   6.676  16.538  0.00  0.00    +0.000 C 
ATOM      4  O   UNL     1       5.638   7.037  16.344  0.00  0.00    +0.000 OA
ATOM      5  H   UNL     1       8.315   5.317  16.253  0.00  0.00    +0.000 HD
BRANCH   2   9
ATOM      6  C   UNL     1       5.884   3.586  12.513  0.00  0.00    +0.000 A 
ATOM      7  C   UNL     1       7.095   4.264  12.417  0.00  0.00    +0.000 A 
ATOM      8  C   UNL     1       7.624   4.937  13.519  0.00  0.00    +0.000 A 
ATOM      9  C   UNL     1       6.940   4.960  14.734  0.00  0.00    +0.000 A 
ATOM     10  C   UNL     1       5.730   4.263  14.837  0.00  0.00    +0.000 A 
ATOM     11  C   UNL     1       5.196   3.589  13.726  0.00  0.00    +0.000 A 
BRANCH   6  13
ATOM     12  C   UNL     1       4.070   2.996  11.113  0.00  0.00    +0.000 C 
ATOM     13  O   UNL     1       5.470   2.994  11.354  0.00  0.00    +0.000 OA
ENDBRANCH   6  13
ENDBRANCH   2   9
ENDBRANCH   1   3
BRANCH   1  14
ATOM     14  S   UNL     1       7.917   6.209  19.068  0.00  0.00    +0.000 S 
BRANCH  14  15
ATOM     15  C   UNL     1       6.509   5.187  19.056  0.00  0.00    +0.000 A 
ATOM     16  N   UNL     1       6.513   4.067  18.328  0.00  0.00    +0.000 NA
ATOM     17  N   UNL     1       5.271   3.610  18.540  0.00  0.00    +0.000 N 
ATOM     18  C   UNL     1       4.570   4.438  19.367  0.00  0.00    +0.000 A 
ATOM     19  N   UNL     1       5.343   5.446  19.726  0.00  0.00    +0.000 NA
ATOM     20  H   UNL     1       4.956   2.758  18.094  0.00  0.00    +0.000 HD
BRANCH  18  21
ATOM     21  C   UNL     1       3.210   4.191  19.713  0.00  0.00    +0.000 A 
ATOM     22  C   UNL     1       2.358   4.927  20.519  0.00  0.00    +0.000 A 
ATOM     23  C   UNL     1       1.105   4.266  20.520  0.00  0.00    +0.000 A 
ATOM     24  C   UNL     1       1.258   3.161  19.720  0.00  0.00    +0.000 A 
ATOM     25  O   UNL     1       2.521   3.102  19.230  0.00  0.00    +0.000 OA
ENDBRANCH  18  21
ENDBRANCH  14  15
ENDBRANCH   1  14
TORSDOF 6
ENDMDL
MODEL 3
REMARK VINA RESULT:      -7.3      3.446      7.425
REMARK  Name = 
REMARK  7 active torsions:
REMARK  status: ('A' for Active; 'I' for Inactive)
REMARK    1  A    between atoms: C_1  and  O_2
REMARK    2  A    between atoms: O_2  and  C_3
REMARK    3  A    between atoms: C_6  and  N_7
REMARK    4  A    between atoms: C_8  and  C_10
REMARK    5  A    between atoms: C_10  and  S_11
REMARK    6  A    between atoms: S_11  and  C_12
REMARK    7  A    between atoms: C_15  and  C_16
REMARK                            x       y       z     vdW  Elec       q    Type
REMARK                         _______ _______ _______ _____ _____    ______ ____
ROOT
ATOM      1  C   UNL     1       2.143   3.553  21.666  0.00  0.00    +0.000 C 
ENDROOT
BRANCH   1   3
ATOM      2  N   UNL     1       2.325   5.877  20.865  0.00  0.00    +0.000 N 
ATOM      3  C   UNL     1       1.594   4.700  20.836  0.00  0.00    +0.000 C 
ATOM      4  O   UNL     1       0.618   4.494  20.113  0.00  0.00    +0.000 OA
ATOM      5  H   UNL     1       3.212   5.854  21.359  0.00  0.00    +0.000 HD
BRANCH   2   9
ATOM      6  C   UNL     1       1.213   9.552  19.095  0.00  0.00    +0.000 A 
ATOM      7  C   UNL     1       1.924   8.611  18.355  0.00  0.00    +0.000 A 
ATOM      8  C   UNL     1       2.289   7.389  18.922  0.00  0.00    +0.000 A 
ATOM      9  C   UNL     1       1.967   7.094  20.246  0.00  0.00    +0.000 A 
ATOM     10  C   UNL     1       1.237   8.033  20.985  0.00  0.00    +0.000 A 
ATOM     11  C   UNL     1       0.872   9.264  20.416  0.00  0.00    +0.000 A 
BRANCH   6  13
ATOM     12  C   UNL     1       1.893  11.760  18.581  0.00  0.00    +0.000 C 
ATOM     13  O   UNL     1       0.944  10.713  18.428  0.00  0.00    +0.000 OA
ENDBRANCH   6  13
ENDBRANCH   2   9
ENDBRANCH   1   3
BRANCH   1  14
ATOM     14  S   UNL     1       2.668   2.111  20.719  0.00  0.00    +0.000 S 
BRANCH  14  15
ATOM     15  C   UNL     1       3.831   2.812  19.632  0.00  0.00    +0.000 A 
ATOM     16  N   UNL     1       5.113   2.893  20.001  0.00  0.00    +0.000 NA
ATOM     17  N   UNL     1       5.652   3.517  18.945  0.00  0.00    +0.000 N 
ATOM     18  C   UNL     1       4.713   3.789  17.993  0.00  0.00    +0.000 A 
ATOM     19  N   UNL     1       3.542   3.333  18.399  0.00  0.00    +0.000 NA
ATOM     20  H   UNL     1       6.638   3.744  18.933  0.00  0.00    +0.000 HD
BRANCH  18  21
ATOM     21  C   UNL     1       5.030   4.486  16.792  0.00  0.00    +0.000 A 
ATOM     22  C   UNL     1       4.940   5.837  16.507  0.00  0.00    +0.000 A 
ATOM     23  C   UNL     1       5.397   6.019  15.178  0.00  0.00    +0.000 A 
ATOM     24  C   UNL     1       5.739   4.771  14.721  0.00  0.00    +0.000 A 
ATOM     25  O   UNL     1       5.520   3.838  15.681  0.00  0.00    +0.000 OA
ENDBRANCH  18  21
ENDBRANCH  14  15
ENDBRANCH   1  14
TORSDOF 6
ENDMDL
MODEL 4
REMARK VINA RESULT:      -7.3      3.363      7.479
REMARK  Name = 
REMARK  7 active torsions:
REMARK  status: ('A' for Active; 'I' for Inactive)
REMARK    1  A    between atoms: C_1  and  O_2
REMARK    2  A    between atoms: O_2  and  C_3
REMARK    3  A    between atoms: C_6  and  N_7
REMARK    4  A    between atoms: C_8  and  C_10
REMARK    5  A    between atoms: C_10  and  S_11
REMARK    6  A    between atoms: S_11  and  C_12
REMARK    7  A    between atoms: C_15  and  C_16
REMARK                            x       y       z     vdW  Elec       q    Type
REMARK                         _______ _______ _______ _____ _____    ______ ____
ROOT
ATOM      1  C   UNL     1       2.432   3.536  21.303  0.00  0.00    +0.000 C 
ENDROOT
BRANCH   1   3
ATOM      2  N   UNL     1       2.553   5.843  20.441  0.00  0.00    +0.000 N 
ATOM      3  C   UNL     1       1.746   4.742  20.685  0.00  0.00    +0.000 C 
ATOM      4  O   UNL     1       0.567   4.642  20.339  0.00  0.00    +0.000 OA
ATOM      5  H   UNL     1       3.548   5.727  20.606  0.00  0.00    +0.000 HD
BRANCH   2   9
ATOM      6  C   UNL     1       1.306   9.577  18.900  0.00  0.00    +0.000 A 
ATOM      7  C   UNL     1       1.018   9.238  20.219  0.00  0.00    +0.000 A 
ATOM      8  C   UNL     1       1.432   8.013  20.746  0.00  0.00    +0.000 A 
ATOM      9  C   UNL     1       2.125   7.097  19.956  0.00  0.00    +0.000 A 
ATOM     10  C   UNL     1       2.430   7.445  18.634  0.00  0.00    +0.000 A 
ATOM     11  C   UNL     1       2.010   8.676  18.104  0.00  0.00    +0.000 A 
BRANCH   6  13
ATOM     12  C   UNL     1      -0.475  11.134  18.984  0.00  0.00    +0.000 C 
ATOM     13  O   UNL     1       0.819  10.791  18.507  0.00  0.00    +0.000 OA
ENDBRANCH   6  13
ENDBRANCH   2   9
ENDBRANCH   1   3
BRANCH   1  14
ATOM     14  S   UNL     1       2.848   2.221  20.143  0.00  0.00    +0.000 S 
BRANCH  14  15
ATOM     15  C   UNL     1       4.098   2.974  19.195  0.00  0.00    +0.000 A 
ATOM     16  N   UNL     1       5.100   3.608  19.810  0.00  0.00    +0.000 NA
ATOM     17  N   UNL     1       5.796   4.076  18.764  0.00  0.00    +0.000 N 
ATOM     18  C   UNL     1       5.217   3.723  17.581  0.00  0.00    +0.000 A 
ATOM     19  N   UNL     1       4.137   3.003  17.826  0.00  0.00    +0.000 NA
ATOM     20  H   UNL     1       6.629   4.631  18.912  0.00  0.00    +0.000 HD
BRANCH  18  21
ATOM     21  C   UNL     1       5.745   4.136  16.324  0.00  0.00    +0.000 A 
ATOM     22  C   UNL     1       5.100   4.310  15.112  0.00  0.00    +0.000 A 
ATOM     23  C   UNL     1       6.071   4.754  14.179  0.00  0.00    +0.000 A 
ATOM     24  C   UNL     1       7.256   4.823  14.869  0.00  0.00    +0.000 A 
ATOM     25  O   UNL     1       7.074   4.451  16.160  0.00  0.00    +0.000 OA
ENDBRANCH  18  21
ENDBRANCH  14  15
ENDBRANCH   1  14
TORSDOF 6
ENDMDL
MODEL 5
REMARK VINA RESULT:      -7.2      3.420      7.846
REMARK  Name = 
REMARK  7 active torsions:
REMARK  status: ('A' for Active; 'I' for Inactive)
REMARK    1  A    between atoms: C_1  and  O_2
REMARK    2  A    between atoms: O_2  and  C_3
REMARK    3  A    between atoms: C_6  and  N_7
REMARK    4  A    between atoms: C_8  and  C_10
REMARK    5  A    between atoms: C_10  and  S_11
REMARK    6  A    between atoms: S_11  and  C_12
REMARK    7  A    between atoms: C_15  and  C_16
REMARK                            x       y       z     vdW  Elec       q    Type
REMARK                         _______ _______ _______ _____ _____    ______ ____
ROOT
ATOM      1  C   UNL     1       3.308   3.758  18.716  0.00  0.00    +0.000 C 
ENDROOT
BRANCH   1   3
ATOM      2  N   UNL     1       2.955   6.173  19.068  0.00  0.00    +0.000 N 
ATOM      3  C   UNL     1       2.499   5.017  18.454  0.00  0.00    +0.000 C 
ATOM      4  O   UNL     1       1.572   4.967  17.643  0.00  0.00    +0.000 OA
ATOM      5  H   UNL     1       3.838   6.111  19.565  0.00  0.00    +0.000 HD
BRANCH   2   9
ATOM      6  C   UNL     1       1.037   9.941  19.078  0.00  0.00    +0.000 A 
ATOM      7  C   UNL     1       1.661   9.481  17.921  0.00  0.00    +0.000 A 
ATOM      8  C   UNL     1       2.289   8.235  17.899  0.00  0.00    +0.000 A 
ATOM      9  C   UNL     1       2.322   7.434  19.040  0.00  0.00    +0.000 A 
ATOM     10  C   UNL     1       1.680   7.888  20.198  0.00  0.00    +0.000 A 
ATOM     11  C   UNL     1       1.051   9.145  20.221  0.00  0.00    +0.000 A 
BRANCH   6  13
ATOM     12  C   UNL     1      -0.453  11.547  19.972  0.00  0.00    +0.000 C 
ATOM     13  O   UNL     1       0.486  11.186  18.969  0.00  0.00    +0.000 OA
ENDBRANCH   6  13
ENDBRANCH   2   9
ENDBRANCH   1   3
BRANCH   1  14
ATOM     14  S   UNL     1       5.046   4.039  19.105  0.00  0.00    +0.000 S 
BRANCH  14  15
ATOM     15  C   UNL     1       5.637   4.696  17.606  0.00  0.00    +0.000 A 
ATOM     16  N   UNL     1       5.740   6.020  17.461  0.00  0.00    +0.000 NA
ATOM     17  N   UNL     1       6.169   6.114  16.195  0.00  0.00    +0.000 N 
ATOM     18  C   UNL     1       6.311   4.883  15.624  0.00  0.00    +0.000 A 
ATOM     19  N   UNL     1       5.994   3.956  16.509  0.00  0.00    +0.000 NA
ATOM     20  H   UNL     1       6.329   7.021  15.775  0.00  0.00    +0.000 HD
BRANCH  18  21
ATOM     21  C   UNL     1       6.715   4.718  14.268  0.00  0.00    +0.000 A 
ATOM     22  C   UNL     1       6.237   3.844  13.306  0.00  0.00    +0.000 A 
ATOM     23  C   UNL     1       6.959   4.096  12.113  0.00  0.00    +0.000 A 
ATOM     24  C   UNL     1       7.841   5.105  12.409  0.00  0.00    +0.000 A 
ATOM     25  O   UNL     1       7.707   5.487  13.704  0.00  0.00    +0.000 OA
ENDBRANCH  18  21
ENDBRANCH  14  15
ENDBRANCH   1  14
TORSDOF 6
ENDMDL
MODEL 6
REMARK VINA RESULT:      -7.1      3.183      7.356
REMARK  Name = 
REMARK  7 active torsions:
REMARK  status: ('A' for Active; 'I' for Inactive)
REMARK    1  A    between atoms: C_1  and  O_2
REMARK    2  A    between atoms: O_2  and  C_3
REMARK    3  A    between atoms: C_6  and  N_7
REMARK    4  A    between atoms: C_8  and  C_10
REMARK    5  A    between atoms: C_10  and  S_11
REMARK    6  A    between atoms: S_11  and  C_12
REMARK    7  A    between atoms: C_15  and  C_16
REMARK                            x       y       z     vdW  Elec       q    Type
REMARK                         _______ _______ _______ _____ _____    ______ ____
ROOT
ATOM      1  C   UNL     1       1.915   3.091  21.650  0.00  0.00    +0.000 C 
ENDROOT
BRANCH   1   3
ATOM      2  N   UNL     1       2.303   5.395  20.865  0.00  0.00    +0.000 N 
ATOM      3  C   UNL     1       1.518   4.257  20.762  0.00  0.00    +0.000 C 
ATOM      4  O   UNL     1       0.615   4.096  19.939  0.00  0.00    +0.000 OA
ATOM      5  H   UNL     1       3.130   5.331  21.450  0.00  0.00    +0.000 HD
BRANCH   2   9
ATOM      6  C   UNL     1       1.587   9.110  18.976  0.00  0.00    +0.000 A 
ATOM      7  C   UNL     1       2.234   8.090  18.282  0.00  0.00    +0.000 A 
ATOM      8  C   UNL     1       2.468   6.855  18.889  0.00  0.00    +0.000 A 
ATOM      9  C   UNL     1       2.077   6.624  20.207  0.00  0.00    +0.000 A 
ATOM     10  C   UNL     1       1.412   7.643  20.899  0.00  0.00    +0.000 A 
ATOM     11  C   UNL     1       1.180   8.887  20.290  0.00  0.00    +0.000 A 
BRANCH   6  13
ATOM     12  C   UNL     1       0.366  11.112  18.658  0.00  0.00    +0.000 C 
ATOM     13  O   UNL     1       1.447  10.273  18.274  0.00  0.00    +0.000 OA
ENDBRANCH   6  13
ENDBRANCH   2   9
ENDBRANCH   1   3
BRANCH   1  14
ATOM     14  S   UNL     1       3.483   2.311  21.226  0.00  0.00    +0.000 S 
BRANCH  14  15
ATOM     15  C   UNL     1       3.629   2.714  19.539  0.00  0.00    +0.000 A 
ATOM     16  N   UNL     1       2.957   2.003  18.631  0.00  0.00    +0.000 NA
ATOM     17  N   UNL     1       3.366   2.577  17.491  0.00  0.00    +0.000 N 
ATOM     18  C   UNL     1       4.247   3.591  17.731  0.00  0.00    +0.000 A 
ATOM     19  N   UNL     1       4.421   3.712  19.035  0.00  0.00    +0.000 NA
ATOM     20  H   UNL     1       3.034   2.236  16.598  0.00  0.00    +0.000 HD
BRANCH  18  21
ATOM     21  C   UNL     1       4.858   4.331  16.679  0.00  0.00    +0.000 A 
ATOM     22  C   UNL     1       5.702   3.897  15.671  0.00  0.00    +0.000 A 
ATOM     23  C   UNL     1       6.012   5.022  14.868  0.00  0.00    +0.000 A 
ATOM     24  C   UNL     1       5.346   6.083  15.428  0.00  0.00    +0.000 A 
ATOM     25  O   UNL     1       4.650   5.682  16.521  0.00  0.00    +0.000 OA
ENDBRANCH  18  21
ENDBRANCH  14  15
ENDBRANCH   1  14
TORSDOF 6
ENDMDL
MODEL 7
REMARK VINA RESULT:      -7.1      3.317      7.766
REMARK  Name = 
REMARK  7 active torsions:
REMARK  status: ('A' for Active; 'I' for Inactive)
REMARK    1  A    between atoms: C_1  and  O_2
REMARK    2  A    between atoms: O_2  and  C_3
REMARK    3  A    between atoms: C_6  and  N_7
REMARK    4  A    between atoms: C_8  and  C_10
REMARK    5  A    between atoms: C_10  and  S_11
REMARK    6  A    between atoms: S_11  and  C_12
REMARK    7  A    between atoms: C_15  and  C_16
REMARK                            x       y       z     vdW  Elec       q    Type
REMARK                         _______ _______ _______ _____ _____    ______ ____
ROOT
ATOM      1  C   UNL     1       3.523   3.830  18.385  0.00  0.00    +0.000 C 
ENDROOT
BRANCH   1   3
ATOM      2  N   UNL     1       3.075   6.235  18.690  0.00  0.00    +0.000 N 
ATOM      3  C   UNL     1       2.534   4.982  18.447  0.00  0.00    +0.000 C 
ATOM      4  O   UNL     1       1.352   4.764  18.176  0.00  0.00    +0.000 OA
ATOM      5  H   UNL     1       4.087   6.301  18.714  0.00  0.00    +0.000 HD
BRANCH   2   9
ATOM      6  C   UNL     1       0.894   9.800  19.336  0.00  0.00    +0.000 A 
ATOM      7  C   UNL     1       1.385   9.505  18.067  0.00  0.00    +0.000 A 
ATOM      8  C   UNL     1       2.098   8.327  17.835  0.00  0.00    +0.000 A 
ATOM      9  C   UNL     1       2.350   7.432  18.874  0.00  0.00    +0.000 A 
ATOM     10  C   UNL     1       1.842   7.719  20.147  0.00  0.00    +0.000 A 
ATOM     11  C   UNL     1       1.128   8.906  20.380  0.00  0.00    +0.000 A 
BRANCH   6  13
ATOM     12  C   UNL     1      -1.055  11.048  18.847  0.00  0.00    +0.000 C 
ATOM     13  O   UNL     1       0.240  10.995  19.428  0.00  0.00    +0.000 OA
ENDBRANCH   6  13
ENDBRANCH   2   9
ENDBRANCH   1   3
BRANCH   1  14
ATOM     14  S   UNL     1       5.159   4.196  19.045  0.00  0.00    +0.000 S 
BRANCH  14  15
ATOM     15  C   UNL     1       6.094   4.367  17.587  0.00  0.00    +0.000 A 
ATOM     16  N   UNL     1       7.316   4.903  17.647  0.00  0.00    +0.000 NA
ATOM     17  N   UNL     1       7.666   4.904  16.353  0.00  0.00    +0.000 N 
ATOM     18  C   UNL     1       6.679   4.383  15.568  0.00  0.00    +0.000 A 
ATOM     19  N   UNL     1       5.668   4.016  16.333  0.00  0.00    +0.000 NA
ATOM     20  H   UNL     1       8.562   5.278  16.065  0.00  0.00    +0.000 HD
BRANCH  18  21
ATOM     21  C   UNL     1       6.794   4.313  14.150  0.00  0.00    +0.000 A 
ATOM     22  C   UNL     1       7.556   5.084  13.289  0.00  0.00    +0.000 A 
ATOM     23  C   UNL     1       7.332   4.595  11.978  0.00  0.00    +0.000 A 
ATOM     24  C   UNL     1       6.444   3.556  12.106  0.00  0.00    +0.000 A 
ATOM     25  O   UNL     1       6.110   3.378  13.409  0.00  0.00    +0.000 OA
ENDBRANCH  18  21
ENDBRANCH  14  15
ENDBRANCH   1  14
TORSDOF 6
ENDMDL
MODEL 8
REMARK VINA RESULT:      -7.0      4.316      9.152
REMARK  Name = 
REMARK  7 active torsions:
REMARK  status: ('A' for Active; 'I' for Inactive)
REMARK    1  A    between atoms: C_1  and  O_2
REMARK    2  A    between atoms: O_2  and  C_3
REMARK    3  A    between atoms: C_6  and  N_7
REMARK    4  A    between atoms: C_8  and  C_10
REMARK    5  A    between atoms: C_10  and  S_11
REMARK    6  A    between atoms: S_11  and  C_12
REMARK    7  A    between atoms: C_15  and  C_16
REMARK                            x       y       z     vdW  Elec       q    Type
REMARK                         _______ _______ _______ _____ _____    ______ ____
ROOT
ATOM      1  C   UNL     1       3.316   6.292  18.871  0.00  0.00    +0.000 C 
ENDROOT
BRANCH   1   3
ATOM      2  N   UNL     1       1.974   8.151  19.777  0.00  0.00    +0.000 N 
ATOM      3  C   UNL     1       2.319   6.813  19.891  0.00  0.00    +0.000 C 
ATOM      4  O   UNL     1       1.799   6.014  20.672  0.00  0.00    +0.000 OA
ATOM      5  H   UNL     1       2.339   8.652  18.973  0.00  0.00    +0.000 HD
BRANCH   2   9
ATOM      6  C   UNL     1      -0.573  10.349  22.338  0.00  0.00    +0.000 A 
ATOM      7  C   UNL     1       0.377   9.485  22.876  0.00  0.00    +0.000 A 
ATOM      8  C   UNL     1       1.232   8.761  22.044  0.00  0.00    +0.000 A 
ATOM      9  C   UNL     1       1.139   8.872  20.657  0.00  0.00    +0.000 A 
ATOM     10  C   UNL     1       0.195   9.753  20.116  0.00  0.00    +0.000 A 
ATOM     11  C   UNL     1      -0.668  10.479  20.953  0.00  0.00    +0.000 A 
BRANCH   6  13
ATOM     12  C   UNL     1      -1.747  12.307  22.960  0.00  0.00    +0.000 C 
ATOM     13  O   UNL     1      -1.361  10.973  23.262  0.00  0.00    +0.000 OA
ENDBRANCH   6  13
ENDBRANCH   2   9
ENDBRANCH   1   3
BRANCH   1  14
ATOM     14  S   UNL     1       3.982   4.655  19.225  0.00  0.00    +0.000 S 
BRANCH  14  15
ATOM     15  C   UNL     1       5.223   4.512  18.014  0.00  0.00    +0.000 A 
ATOM     16  N   UNL     1       6.499   4.385  18.390  0.00  0.00    +0.000 NA
ATOM     17  N   UNL     1       7.121   4.358  17.203  0.00  0.00    +0.000 N 
ATOM     18  C   UNL     1       6.234   4.464  16.172  0.00  0.00    +0.000 A 
ATOM     19  N   UNL     1       5.011   4.548  16.661  0.00  0.00    +0.000 NA
ATOM     20  H   UNL     1       8.129   4.284  17.155  0.00  0.00    +0.000 HD
BRANCH  18  21
ATOM     21  C   UNL     1       6.653   4.502  14.811  0.00  0.00    +0.000 A 
ATOM     22  C   UNL     1       6.168   3.802  13.720  0.00  0.00    +0.000 A 
ATOM     23  C   UNL     1       6.913   4.218  12.588  0.00  0.00    +0.000 A 
ATOM     24  C   UNL     1       7.815   5.145  13.047  0.00  0.00    +0.000 A 
ATOM     25  O   UNL     1       7.672   5.323  14.384  0.00  0.00    +0.000 OA
ENDBRANCH  18  21
ENDBRANCH  14  15
ENDBRANCH   1  14
TORSDOF 6
ENDMDL
MODEL 9
REMARK VINA RESULT:      -7.0      3.744      7.596
REMARK  Name = 
REMARK  7 active torsions:
REMARK  status: ('A' for Active; 'I' for Inactive)
REMARK    1  A    between atoms: C_1  and  O_2
REMARK    2  A    between atoms: O_2  and  C_3
REMARK    3  A    between atoms: C_6  and  N_7
REMARK    4  A    between atoms: C_8  and  C_10
REMARK    5  A    between atoms: C_10  and  S_11
REMARK    6  A    between atoms: S_11  and  C_12
REMARK    7  A    between atoms: C_15  and  C_16
REMARK                            x       y       z     vdW  Elec       q    Type
REMARK                         _______ _______ _______ _____ _____    ______ ____
ROOT
ATOM      1  C   UNL     1       2.408   3.931  21.434  0.00  0.00    +0.000 C 
ENDROOT
BRANCH   1   3
ATOM      2  N   UNL     1       2.481   6.220  20.522  0.00  0.00    +0.000 N 
ATOM      3  C   UNL     1       1.699   5.104  20.779  0.00  0.00    +0.000 C 
ATOM      4  O   UNL     1       0.529   4.964  20.418  0.00  0.00    +0.000 OA
ATOM      5  H   UNL     1       3.476   6.136  20.704  0.00  0.00    +0.000 HD
BRANCH   2   9
ATOM      6  C   UNL     1       1.083   9.930  19.050  0.00  0.00    +0.000 A 
ATOM      7  C   UNL     1       1.806   9.079  18.218  0.00  0.00    +0.000 A 
ATOM      8  C   UNL     1       2.265   7.847  18.686  0.00  0.00    +0.000 A 
ATOM      9  C   UNL     1       2.026   7.451  20.002  0.00  0.00    +0.000 A 
ATOM     10  C   UNL     1       1.285   8.298  20.834  0.00  0.00    +0.000 A 
ATOM     11  C   UNL     1       0.826   9.540  20.364  0.00  0.00    +0.000 A 
BRANCH   6  13
ATOM     12  C   UNL     1      -0.617  11.539  18.704  0.00  0.00    +0.000 C 
ATOM     13  O   UNL     1       0.719  11.113  18.474  0.00  0.00    +0.000 OA
ENDBRANCH   6  13
ENDBRANCH   2   9
ENDBRANCH   1   3
BRANCH   1  14
ATOM     14  S   UNL     1       2.116   2.334  20.653  0.00  0.00    +0.000 S 
BRANCH  14  15
ATOM     15  C   UNL     1       3.066   2.475  19.203  0.00  0.00    +0.000 A 
ATOM     16  N   UNL     1       3.538   1.372  18.615  0.00  0.00    +0.000 NA
ATOM     17  N   UNL     1       4.235   1.895  17.596  0.00  0.00    +0.000 N 
ATOM     18  C   UNL     1       4.167   3.258  17.593  0.00  0.00    +0.000 A 
ATOM     19  N   UNL     1       3.412   3.655  18.600  0.00  0.00    +0.000 NA
ATOM     20  H   UNL     1       4.740   1.293  16.958  0.00  0.00    +0.000 HD
BRANCH  18  21
ATOM     21  C   UNL     1       4.860   4.050  16.633  0.00  0.00    +0.000 A 
ATOM     22  C   UNL     1       4.801   5.415  16.409  0.00  0.00    +0.000 A 
ATOM     23  C   UNL     1       5.701   5.707  15.354  0.00  0.00    +0.000 A 
ATOM     24  C   UNL     1       6.259   4.508  14.987  0.00  0.00    +0.000 A 
ATOM     25  O   UNL     1       5.759   3.501  15.746  0.00  0.00    +0.000 OA
ENDBRANCH  18  21
ENDBRANCH  14  15
ENDBRANCH   1  14
TORSDOF 6
ENDMDL
