MODEL 1
REMARK VINA RESULT:      -8.0      0.000      0.000
REMARK  Name = 
REMARK  3 active torsions:
REMARK  status: ('A' for Active; 'I' for Inactive)
REMARK    1  A    between atoms: C_1  and  O_2
REMARK    2  A    between atoms: O_2  and  C_3
REMARK    3  A    between atoms: C_6  and  N_7
REMARK                            x       y       z     vdW  Elec       q    Type
REMARK                         _______ _______ _______ _____ _____    ______ ____
ROOT
ATOM      1  N   UNL     1       6.400   5.150  14.215  0.00  0.00    +0.000 N 
ATOM      2  C   UNL     1       5.504   5.538  15.207  0.00  0.00    +0.000 A 
ATOM      3  N   UNL     1       5.670   6.784  15.668  0.00  0.00    +0.000 NA
ATOM      4  C   UNL     1       5.150   7.047  16.872  0.00  0.00    +0.000 A 
ATOM      5  C   UNL     1       4.519   6.087  17.624  0.00  0.00    +0.000 A 
ATOM      6  C   UNL     1       4.170   4.916  16.975  0.00  0.00    +0.000 A 
ATOM      7  N   UNL     1       4.668   4.634  15.761  0.00  0.00    +0.000 NA
ATOM      8  C   UNL     1       3.583   3.802  17.743  0.00  0.00    +0.000 A 
ATOM      9  C   UNL     1       2.248   3.406  17.578  0.00  0.00    +0.000 A 
ATOM     10  C   UNL     1       1.713   2.374  18.359  0.00  0.00    +0.000 A 
ATOM     11  C   UNL     1       2.527   1.665  19.243  0.00  0.00    +0.000 A 
ATOM     12  C   UNL     1       3.860   2.032  19.410  0.00  0.00    +0.000 A 
ATOM     13  C   UNL     1       4.346   3.159  18.742  0.00  0.00    +0.000 A 
ATOM     14  N   UNL     1       5.563   3.703  19.199  0.00  0.00    +0.000 N 
ATOM     15  C   UNL     1       5.804   5.048  19.396  0.00  0.00    +0.000 C 
ATOM     16  O   UNL     1       6.897   5.430  19.812  0.00  0.00    +0.000 OA
ATOM     17  C   UNL     1       4.664   6.045  19.105  0.00  0.00    +0.000 C 
ATOM     18  H   UNL     1       7.033   5.897  13.976  0.00  0.00    +0.000 HD
ATOM     19  H   UNL     1       6.267   3.085  19.581  0.00  0.00    +0.000 HD
ENDROOT
BRANCH   1  23
ATOM     20  C   UNL     1       6.037   2.050  11.406  0.00  0.00    +0.000 A 
ATOM     21  C   UNL     1       7.289   2.466  11.836  0.00  0.00    +0.000 A 
ATOM     22  C   UNL     1       7.397   3.487  12.772  0.00  0.00    +0.000 A 
ATOM     23  C   UNL     1       6.270   4.112  13.304  0.00  0.00    +0.000 A 
ATOM     24  C   UNL     1       5.006   3.705  12.831  0.00  0.00    +0.000 A 
ATOM     25  C   UNL     1       4.889   2.680  11.895  0.00  0.00    +0.000 A 
BRANCH  20  27
ATOM     26  C   UNL     1       6.051  -0.266  11.005  0.00  0.00    +0.000 C 
ATOM     27  O   UNL     1       6.069   1.052  10.476  0.00  0.00    +0.000 OA
ENDBRANCH  20  27
ENDBRANCH   1  23
TORSDOF 2
ENDMDL
MODEL 2
REMARK VINA RESULT:      -7.6      4.831      8.109
REMARK  Name = 
REMARK  3 active torsions:
REMARK  status: ('A' for Active; 'I' for Inactive)
REMARK    1  A    between atoms: C_1  and  O_2
REMARK    2  A    between atoms: O_2  and  C_3
REMARK    3  A    between atoms: C_6  and  N_7
REMARK                            x       y       z     vdW  Elec       q    Type
REMARK                         _______ _______ _______ _____ _____    ______ ____
ROOT
ATOM      1  N   UNL     1       2.057   8.690  17.635  0.00  0.00    +0.000 N 
ATOM      2  C   UNL     1       2.897   7.658  18.041  0.00  0.00    +0.000 A 
ATOM      3  N   UNL     1       3.964   7.450  17.258  0.00  0.00    +0.000 NA
ATOM      4  C   UNL     1       4.540   6.246  17.344  0.00  0.00    +0.000 A 
ATOM      5  C   UNL     1       4.045   5.253  18.154  0.00  0.00    +0.000 A 
ATOM      6  C   UNL     1       3.112   5.629  19.104  0.00  0.00    +0.000 A 
ATOM      7  N   UNL     1       2.529   6.836  19.047  0.00  0.00    +0.000 NA
ATOM      8  C   UNL     1       2.463   4.600  19.937  0.00  0.00    +0.000 A 
ATOM      9  C   UNL     1       2.710   4.491  21.314  0.00  0.00    +0.000 A 
ATOM     10  C   UNL     1       2.111   3.472  22.063  0.00  0.00    +0.000 A 
ATOM     11  C   UNL     1       1.187   2.611  21.470  0.00  0.00    +0.000 A 
ATOM     12  C   UNL     1       0.916   2.712  20.108  0.00  0.00    +0.000 A 
ATOM     13  C   UNL     1       1.632   3.630  19.336  0.00  0.00    +0.000 A 
ATOM     14  N   UNL     1       1.595   3.463  17.937  0.00  0.00    +0.000 N 
ATOM     15  C   UNL     1       2.691   3.540  17.102  0.00  0.00    +0.000 C 
ATOM     16  O   UNL     1       2.565   3.365  15.891  0.00  0.00    +0.000 OA
ATOM     17  C   UNL     1       4.071   3.826  17.731  0.00  0.00    +0.000 C 
ATOM     18  H   UNL     1       2.407   9.147  16.807  0.00  0.00    +0.000 HD
ATOM     19  H   UNL     1       0.759   3.088  17.506  0.00  0.00    +0.000 HD
ENDROOT
BRANCH   1  23
ATOM     20  C   UNL     1      -0.775  10.828  19.880  0.00  0.00    +0.000 A 
ATOM     21  C   UNL     1      -1.059  10.436  18.579  0.00  0.00    +0.000 A 
ATOM     22  C   UNL     1      -0.118   9.722  17.849  0.00  0.00    +0.000 A 
ATOM     23  C   UNL     1       1.119   9.377  18.391  0.00  0.00    +0.000 A 
ATOM     24  C   UNL     1       1.409   9.813  19.700  0.00  0.00    +0.000 A 
ATOM     25  C   UNL     1       0.469  10.527  20.440  0.00  0.00    +0.000 A 
BRANCH  20  27
ATOM     26  C   UNL     1      -2.610  12.269  19.597  0.00  0.00    +0.000 C 
ATOM     27  O   UNL     1      -1.776  11.535  20.481  0.00  0.00    +0.000 OA
ENDBRANCH  20  27
ENDBRANCH   1  23
TORSDOF 2
ENDMDL
MODEL 3
REMARK VINA RESULT:      -7.6      4.690      8.102
REMARK  Name = 
REMARK  3 active torsions:
REMARK  status: ('A' for Active; 'I' for Inactive)
REMARK    1  A    between atoms: C_1  and  O_2
REMARK    2  A    between atoms: O_2  and  C_3
REMARK    3  A    between atoms: C_6  and  N_7
REMARK                            x       y       z     vdW  Elec       q    Type
REMARK                         _______ _______ _______ _____ _____    ______ ____
ROOT
ATOM      1  N   UNL     1       2.087   8.635  17.684  0.00  0.00    +0.000 N 
ATOM      2  C   UNL     1       2.918   7.587  18.070  0.00  0.00    +0.000 A 
ATOM      3  N   UNL     1       3.962   7.362  17.262  0.00  0.00    +0.000 NA
ATOM      4  C   UNL     1       4.519   6.148  17.333  0.00  0.00    +0.000 A 
ATOM      5  C   UNL     1       4.025   5.162  18.152  0.00  0.00    +0.000 A 
ATOM      6  C   UNL     1       3.121   5.553  19.124  0.00  0.00    +0.000 A 
ATOM      7  N   UNL     1       2.559   6.770  19.083  0.00  0.00    +0.000 NA
ATOM      8  C   UNL     1       2.474   4.534  19.971  0.00  0.00    +0.000 A 
ATOM      9  C   UNL     1       2.751   4.419  21.342  0.00  0.00    +0.000 A 
ATOM     10  C   UNL     1       2.151   3.409  22.104  0.00  0.00    +0.000 A 
ATOM     11  C   UNL     1       1.199   2.566  21.531  0.00  0.00    +0.000 A 
ATOM     12  C   UNL     1       0.898   2.673  20.175  0.00  0.00    +0.000 A 
ATOM     13  C   UNL     1       1.612   3.580  19.388  0.00  0.00    +0.000 A 
ATOM     14  N   UNL     1       1.539   3.416  17.990  0.00  0.00    +0.000 N 
ATOM     15  C   UNL     1       2.617   3.475  17.130  0.00  0.00    +0.000 C 
ATOM     16  O   UNL     1       2.460   3.305  15.922  0.00  0.00    +0.000 OA
ATOM     17  C   UNL     1       4.016   3.735  17.727  0.00  0.00    +0.000 C 
ATOM     18  H   UNL     1       2.426   9.087  16.849  0.00  0.00    +0.000 HD
ATOM     19  H   UNL     1       0.687   3.057  17.579  0.00  0.00    +0.000 HD
ENDROOT
BRANCH   1  23
ATOM     20  C   UNL     1      -0.677  10.698  20.078  0.00  0.00    +0.000 A 
ATOM     21  C   UNL     1       0.503  10.213  20.626  0.00  0.00    +0.000 A 
ATOM     22  C   UNL     1       1.414   9.540  19.822  0.00  0.00    +0.000 A 
ATOM     23  C   UNL     1       1.179   9.337  18.462  0.00  0.00    +0.000 A 
ATOM     24  C   UNL     1      -0.039   9.802  17.928  0.00  0.00    +0.000 A 
ATOM     25  C   UNL     1      -0.957  10.482  18.727  0.00  0.00    +0.000 A 
BRANCH  20  27
ATOM     26  C   UNL     1      -0.906  11.580  22.245  0.00  0.00    +0.000 C 
ATOM     27  O   UNL     1      -1.491  11.327  20.976  0.00  0.00    +0.000 OA
ENDBRANCH  20  27
ENDBRANCH   1  23
TORSDOF 2
ENDMDL
MODEL 4
REMARK VINA RESULT:      -7.5      3.841      7.948
REMARK  Name = 
REMARK  3 active torsions:
REMARK  status: ('A' for Active; 'I' for Inactive)
REMARK    1  A    between atoms: C_1  and  O_2
REMARK    2  A    between atoms: O_2  and  C_3
REMARK    3  A    between atoms: C_6  and  N_7
REMARK                            x       y       z     vdW  Elec       q    Type
REMARK                         _______ _______ _______ _____ _____    ______ ____
ROOT
ATOM      1  N   UNL     1       1.172   6.057  20.816  0.00  0.00    +0.000 N 
ATOM      2  C   UNL     1       1.463   5.012  19.944  0.00  0.00    +0.000 A 
ATOM      3  N   UNL     1       0.945   3.825  20.284  0.00  0.00    +0.000 NA
ATOM      4  C   UNL     1       1.528   2.746  19.751  0.00  0.00    +0.000 A 
ATOM      5  C   UNL     1       2.629   2.836  18.935  0.00  0.00    +0.000 A 
ATOM      6  C   UNL     1       2.936   4.090  18.436  0.00  0.00    +0.000 A 
ATOM      7  N   UNL     1       2.355   5.187  18.945  0.00  0.00    +0.000 NA
ATOM      8  C   UNL     1       4.161   4.278  17.638  0.00  0.00    +0.000 A 
ATOM      9  C   UNL     1       4.119   4.569  16.266  0.00  0.00    +0.000 A 
ATOM     10  C   UNL     1       5.304   4.696  15.531  0.00  0.00    +0.000 A 
ATOM     11  C   UNL     1       6.541   4.627  16.173  0.00  0.00    +0.000 A 
ATOM     12  C   UNL     1       6.604   4.354  17.537  0.00  0.00    +0.000 A 
ATOM     13  C   UNL     1       5.425   4.077  18.233  0.00  0.00    +0.000 A 
ATOM     14  N   UNL     1       5.552   3.466  19.496  0.00  0.00    +0.000 N 
ATOM     15  C   UNL     1       4.791   2.403  19.941  0.00  0.00    +0.000 C 
ATOM     16  O   UNL     1       4.982   1.925  21.058  0.00  0.00    +0.000 OA
ATOM     17  C   UNL     1       3.720   1.824  18.994  0.00  0.00    +0.000 C 
ATOM     18  H   UNL     1       0.581   5.753  21.572  0.00  0.00    +0.000 HD
ATOM     19  H   UNL     1       6.357   3.681  20.070  0.00  0.00    +0.000 HD
ENDROOT
BRANCH   1  23
ATOM     20  C   UNL     1       1.291  10.185  20.058  0.00  0.00    +0.000 A 
ATOM     21  C   UNL     1       0.724   9.702  21.229  0.00  0.00    +0.000 A 
ATOM     22  C   UNL     1       0.699   8.334  21.473  0.00  0.00    +0.000 A 
ATOM     23  C   UNL     1       1.236   7.420  20.568  0.00  0.00    +0.000 A 
ATOM     24  C   UNL     1       1.774   7.923  19.366  0.00  0.00    +0.000 A 
ATOM     25  C   UNL     1       1.807   9.293  19.115  0.00  0.00    +0.000 A 
BRANCH  20  27
ATOM     26  C   UNL     1       1.701  12.052  18.690  0.00  0.00    +0.000 C 
ATOM     27  O   UNL     1       1.239  11.544  19.933  0.00  0.00    +0.000 OA
ENDBRANCH  20  27
ENDBRANCH   1  23
TORSDOF 2
ENDMDL
MODEL 5
REMARK VINA RESULT:      -7.3     11.565     14.002
REMARK  Name = 
REMARK  3 active torsions:
REMARK  status: ('A' for Active; 'I' for Inactive)
REMARK    1  A    between atoms: C_1  and  O_2
REMARK    2  A    between atoms: O_2  and  C_3
REMARK    3  A    between atoms: C_6  and  N_7
REMARK                            x       y       z     vdW  Elec       q    Type
REMARK                         _______ _______ _______ _____ _____    ______ ____
ROOT
ATOM      1  N   UNL     1      -2.127  12.193  23.490  0.00  0.00    +0.000 N 
ATOM      2  C   UNL     1      -3.124  12.999  22.950  0.00  0.00    +0.000 A 
ATOM      3  N   UNL     1      -3.621  13.924  23.781  0.00  0.00    +0.000 NA
ATOM      4  C   UNL     1      -4.829  14.412  23.476  0.00  0.00    +0.000 A 
ATOM      5  C   UNL     1      -5.550  13.961  22.398  0.00  0.00    +0.000 A 
ATOM      6  C   UNL     1      -4.867  13.205  21.462  0.00  0.00    +0.000 A 
ATOM      7  N   UNL     1      -3.649  12.715  21.738  0.00  0.00    +0.000 NA
ATOM      8  C   UNL     1      -5.601  12.603  20.333  0.00  0.00    +0.000 A 
ATOM      9  C   UNL     1      -5.418  13.034  19.011  0.00  0.00    +0.000 A 
ATOM     10  C   UNL     1      -6.166  12.470  17.971  0.00  0.00    +0.000 A 
ATOM     11  C   UNL     1      -7.034  11.408  18.224  0.00  0.00    +0.000 A 
ATOM     12  C   UNL     1      -7.219  10.955  19.528  0.00  0.00    +0.000 A 
ATOM     13  C   UNL     1      -6.586  11.622  20.579  0.00  0.00    +0.000 A 
ATOM     14  N   UNL     1      -7.064  11.374  21.881  0.00  0.00    +0.000 N 
ATOM     15  C   UNL     1      -7.300  12.343  22.835  0.00  0.00    +0.000 C 
ATOM     16  O   UNL     1      -7.733  12.032  23.944  0.00  0.00    +0.000 OA
ATOM     17  C   UNL     1      -7.030  13.816  22.464  0.00  0.00    +0.000 C 
ATOM     18  H   UNL     1      -1.913  12.456  24.439  0.00  0.00    +0.000 HD
ATOM     19  H   UNL     1      -7.433  10.458  22.105  0.00  0.00    +0.000 HD
ENDROOT
BRANCH   1  23
ATOM     20  C   UNL     1       0.759   9.875  21.508  0.00  0.00    +0.000 A 
ATOM     21  C   UNL     1      -0.005   9.325  22.528  0.00  0.00    +0.000 A 
ATOM     22  C   UNL     1      -0.963  10.099  23.170  0.00  0.00    +0.000 A 
ATOM     23  C   UNL     1      -1.187  11.428  22.815  0.00  0.00    +0.000 A 
ATOM     24  C   UNL     1      -0.379  11.985  21.804  0.00  0.00    +0.000 A 
ATOM     25  C   UNL     1       0.583  11.214  21.152  0.00  0.00    +0.000 A 
BRANCH  20  27
ATOM     26  C   UNL     1       1.285   7.649  20.967  0.00  0.00    +0.000 C 
ATOM     27  O   UNL     1       1.673   9.016  20.970  0.00  0.00    +0.000 OA
ENDBRANCH  20  27
ENDBRANCH   1  23
TORSDOF 2
ENDMDL
MODEL 6
REMARK VINA RESULT:      -7.2      3.824      7.901
REMARK  Name = 
REMARK  3 active torsions:
REMARK  status: ('A' for Active; 'I' for Inactive)
REMARK    1  A    between atoms: C_1  and  O_2
REMARK    2  A    between atoms: O_2  and  C_3
REMARK    3  A    between atoms: C_6  and  N_7
REMARK                            x       y       z     vdW  Elec       q    Type
REMARK                         _______ _______ _______ _____ _____    ______ ____
ROOT
ATOM      1  N   UNL     1       1.130   5.984  20.755  0.00  0.00    +0.000 N 
ATOM      2  C   UNL     1       1.446   4.937  19.894  0.00  0.00    +0.000 A 
ATOM      3  N   UNL     1       0.951   3.743  20.245  0.00  0.00    +0.000 NA
ATOM      4  C   UNL     1       1.559   2.671  19.725  0.00  0.00    +0.000 A 
ATOM      5  C   UNL     1       2.660   2.776  18.911  0.00  0.00    +0.000 A 
ATOM      6  C   UNL     1       2.942   4.031  18.401  0.00  0.00    +0.000 A 
ATOM      7  N   UNL     1       2.337   5.121  18.897  0.00  0.00    +0.000 NA
ATOM      8  C   UNL     1       4.166   4.237  17.604  0.00  0.00    +0.000 A 
ATOM      9  C   UNL     1       4.122   4.514  16.230  0.00  0.00    +0.000 A 
ATOM     10  C   UNL     1       5.307   4.658  15.498  0.00  0.00    +0.000 A 
ATOM     11  C   UNL     1       6.543   4.622  16.144  0.00  0.00    +0.000 A 
ATOM     12  C   UNL     1       6.608   4.363  17.510  0.00  0.00    +0.000 A 
ATOM     13  C   UNL     1       5.432   4.069  18.205  0.00  0.00    +0.000 A 
ATOM     14  N   UNL     1       5.567   3.473  19.475  0.00  0.00    +0.000 N 
ATOM     15  C   UNL     1       4.828   2.399  19.928  0.00  0.00    +0.000 C 
ATOM     16  O   UNL     1       5.025   1.935  21.050  0.00  0.00    +0.000 OA
ATOM     17  C   UNL     1       3.772   1.788  18.983  0.00  0.00    +0.000 C 
ATOM     18  H   UNL     1       0.542   5.675  21.513  0.00  0.00    +0.000 HD
ATOM     19  H   UNL     1       6.366   3.711  20.050  0.00  0.00    +0.000 HD
ENDROOT
BRANCH   1  23
ATOM     20  C   UNL     1       1.311  10.105  19.969  0.00  0.00    +0.000 A 
ATOM     21  C   UNL     1       1.779   9.190  19.036  0.00  0.00    +0.000 A 
ATOM     22  C   UNL     1       1.705   7.829  19.303  0.00  0.00    +0.000 A 
ATOM     23  C   UNL     1       1.165   7.346  20.494  0.00  0.00    +0.000 A 
ATOM     24  C   UNL     1       0.728   8.287  21.448  0.00  0.00    +0.000 A 
ATOM     25  C   UNL     1       0.795   9.654  21.186  0.00  0.00    +0.000 A 
BRANCH  20  27
ATOM     26  C   UNL     1       0.353  11.952  18.876  0.00  0.00    +0.000 C 
ATOM     27  O   UNL     1       1.453  11.409  19.591  0.00  0.00    +0.000 OA
ENDBRANCH  20  27
ENDBRANCH   1  23
TORSDOF 2
ENDMDL
MODEL 7
REMARK VINA RESULT:      -7.2     11.430     13.788
REMARK  Name = 
REMARK  3 active torsions:
REMARK  status: ('A' for Active; 'I' for Inactive)
REMARK    1  A    between atoms: C_1  and  O_2
REMARK    2  A    between atoms: O_2  and  C_3
REMARK    3  A    between atoms: C_6  and  N_7
REMARK                            x       y       z     vdW  Elec       q    Type
REMARK                         _______ _______ _______ _____ _____    ______ ____
ROOT
ATOM      1  N   UNL     1      -1.904  12.015  23.335  0.00  0.00    +0.000 N 
ATOM      2  C   UNL     1      -2.869  12.880  22.826  0.00  0.00    +0.000 A 
ATOM      3  N   UNL     1      -3.258  13.852  23.661  0.00  0.00    +0.000 NA
ATOM      4  C   UNL     1      -4.443  14.418  23.404  0.00  0.00    +0.000 A 
ATOM      5  C   UNL     1      -5.246  14.000  22.371  0.00  0.00    +0.000 A 
ATOM      6  C   UNL     1      -4.664  13.181  21.420  0.00  0.00    +0.000 A 
ATOM      7  N   UNL     1      -3.471  12.612  21.647  0.00  0.00    +0.000 NA
ATOM      8  C   UNL     1      -5.493  12.613  20.340  0.00  0.00    +0.000 A 
ATOM      9  C   UNL     1      -5.345  13.006  19.002  0.00  0.00    +0.000 A 
ATOM     10  C   UNL     1      -6.181  12.478  18.011  0.00  0.00    +0.000 A 
ATOM     11  C   UNL     1      -7.108  11.484  18.328  0.00  0.00    +0.000 A 
ATOM     12  C   UNL     1      -7.259  11.068  19.648  0.00  0.00    +0.000 A 
ATOM     13  C   UNL     1      -6.530  11.708  20.653  0.00  0.00    +0.000 A 
ATOM     14  N   UNL     1      -6.960  11.517  21.982  0.00  0.00    +0.000 N 
ATOM     15  C   UNL     1      -7.081  12.517  22.926  0.00  0.00    +0.000 C 
ATOM     16  O   UNL     1      -7.478  12.258  24.060  0.00  0.00    +0.000 OA
ATOM     17  C   UNL     1      -6.728  13.960  22.511  0.00  0.00    +0.000 C 
ATOM     18  H   UNL     1      -1.626  12.279  24.267  0.00  0.00    +0.000 HD
ATOM     19  H   UNL     1      -7.380  10.634  22.242  0.00  0.00    +0.000 HD
ENDROOT
BRANCH   1  23
ATOM     20  C   UNL     1       0.617   9.460  21.157  0.00  0.00    +0.000 A 
ATOM     21  C   UNL     1       0.274  10.707  20.652  0.00  0.00    +0.000 A 
ATOM     22  C   UNL     1      -0.553  11.547  21.386  0.00  0.00    +0.000 A 
ATOM     23  C   UNL     1      -1.055  11.174  22.632  0.00  0.00    +0.000 A 
ATOM     24  C   UNL     1      -0.729   9.890  23.115  0.00  0.00    +0.000 A 
ATOM     25  C   UNL     1       0.104   9.042  22.387  0.00  0.00    +0.000 A 
BRANCH  20  27
ATOM     26  C   UNL     1       1.451   9.158  18.980  0.00  0.00    +0.000 C 
ATOM     27  O   UNL     1       1.422   8.728  20.333  0.00  0.00    +0.000 OA
ENDBRANCH  20  27
ENDBRANCH   1  23
TORSDOF 2
ENDMDL
MODEL 8
REMARK VINA RESULT:      -7.1     11.412     13.867
REMARK  Name = 
REMARK  3 active torsions:
REMARK  status: ('A' for Active; 'I' for Inactive)
REMARK    1  A    between atoms: C_1  and  O_2
REMARK    2  A    between atoms: O_2  and  C_3
REMARK    3  A    between atoms: C_6  and  N_7
REMARK                            x       y       z     vdW  Elec       q    Type
REMARK                         _______ _______ _______ _____ _____    ______ ____
ROOT
ATOM      1  N   UNL     1      -1.711  12.135  17.562  0.00  0.00    +0.000 N 
ATOM      2  C   UNL     1      -3.032  11.737  17.746  0.00  0.00    +0.000 A 
ATOM      3  N   UNL     1      -3.620  11.200  16.669  0.00  0.00    +0.000 NA
ATOM      4  C   UNL     1      -4.957  11.206  16.657  0.00  0.00    +0.000 A 
ATOM      5  C   UNL     1      -5.697  11.770  17.666  0.00  0.00    +0.000 A 
ATOM      6  C   UNL     1      -5.028  12.066  18.841  0.00  0.00    +0.000 A 
ATOM      7  N   UNL     1      -3.687  12.055  18.883  0.00  0.00    +0.000 NA
ATOM      8  C   UNL     1      -5.736  12.767  19.928  0.00  0.00    +0.000 A 
ATOM      9  C   UNL     1      -6.043  12.138  21.144  0.00  0.00    +0.000 A 
ATOM     10  C   UNL     1      -6.756  12.822  22.135  0.00  0.00    +0.000 A 
ATOM     11  C   UNL     1      -7.089  14.166  21.964  0.00  0.00    +0.000 A 
ATOM     12  C   UNL     1      -6.780  14.813  20.770  0.00  0.00    +0.000 A 
ATOM     13  C   UNL     1      -6.205  14.083  19.727  0.00  0.00    +0.000 A 
ATOM     14  N   UNL     1      -6.235  14.662  18.443  0.00  0.00    +0.000 N 
ATOM     15  C   UNL     1      -6.576  13.996  17.283  0.00  0.00    +0.000 C 
ATOM     16  O   UNL     1      -6.589  14.589  16.205  0.00  0.00    +0.000 OA
ATOM     17  C   UNL     1      -6.960  12.505  17.382  0.00  0.00    +0.000 C 
ATOM     18  H   UNL     1      -1.389  11.928  16.630  0.00  0.00    +0.000 HD
ATOM     19  H   UNL     1      -6.180  15.669  18.354  0.00  0.00    +0.000 HD
ENDROOT
BRANCH   1  23
ATOM     20  C   UNL     1       1.259  12.860  20.440  0.00  0.00    +0.000 A 
ATOM     21  C   UNL     1       0.694  13.912  19.732  0.00  0.00    +0.000 A 
ATOM     22  C   UNL     1      -0.294  13.661  18.789  0.00  0.00    +0.000 A 
ATOM     23  C   UNL     1      -0.746  12.368  18.530  0.00  0.00    +0.000 A 
ATOM     24  C   UNL     1      -0.137  11.306  19.229  0.00  0.00    +0.000 A 
ATOM     25  C   UNL     1       0.853  11.549  20.180  0.00  0.00    +0.000 A 
BRANCH  20  27
ATOM     26  C   UNL     1       3.260  14.047  20.778  0.00  0.00    +0.000 C 
ATOM     27  O   UNL     1       2.227  13.239  21.325  0.00  0.00    +0.000 OA
ENDBRANCH  20  27
ENDBRANCH   1  23
TORSDOF 2
ENDMDL
MODEL 9
REMARK VINA RESULT:      -6.9      9.425     12.159
REMARK  Name = 
REMARK  3 active torsions:
REMARK  status: ('A' for Active; 'I' for Inactive)
REMARK    1  A    between atoms: C_1  and  O_2
REMARK    2  A    between atoms: O_2  and  C_3
REMARK    3  A    between atoms: C_6  and  N_7
REMARK                            x       y       z     vdW  Elec       q    Type
REMARK                         _______ _______ _______ _____ _____    ______ ____
ROOT
ATOM      1  N   UNL     1      -3.281  13.398  19.786  0.00  0.00    +0.000 N 
ATOM      2  C   UNL     1      -2.076  13.183  20.449  0.00  0.00    +0.000 A 
ATOM      3  N   UNL     1      -1.417  14.293  20.805  0.00  0.00    +0.000 NA
ATOM      4  C   UNL     1      -0.107  14.159  21.039  0.00  0.00    +0.000 A 
ATOM      5  C   UNL     1       0.547  12.962  20.879  0.00  0.00    +0.000 A 
ATOM      6  C   UNL     1      -0.242  11.831  20.761  0.00  0.00    +0.000 A 
ATOM      7  N   UNL     1      -1.560  11.939  20.540  0.00  0.00    +0.000 NA
ATOM      8  C   UNL     1       0.389  10.527  20.485  0.00  0.00    +0.000 A 
ATOM      9  C   UNL     1       0.413   9.495  21.434  0.00  0.00    +0.000 A 
ATOM     10  C   UNL     1       1.061   8.287  21.152  0.00  0.00    +0.000 A 
ATOM     11  C   UNL     1       1.610   8.060  19.890  0.00  0.00    +0.000 A 
ATOM     12  C   UNL     1       1.583   9.066  18.927  0.00  0.00    +0.000 A 
ATOM     13  C   UNL     1       1.071  10.321  19.266  0.00  0.00    +0.000 A 
ATOM     14  N   UNL     1       1.380  11.395  18.408  0.00  0.00    +0.000 N 
ATOM     15  C   UNL     1       1.790  12.646  18.823  0.00  0.00    +0.000 C 
ATOM     16  O   UNL     1       2.052  13.521  17.999  0.00  0.00    +0.000 OA
ATOM     17  C   UNL     1       1.932  12.904  20.338  0.00  0.00    +0.000 C 
ATOM     18  H   UNL     1      -3.485  14.381  19.700  0.00  0.00    +0.000 HD
ATOM     19  H   UNL     1       1.486  11.220  17.417  0.00  0.00    +0.000 HD
ENDROOT
BRANCH   1  23
ATOM     20  C   UNL     1      -6.452  10.680  19.354  0.00  0.00    +0.000 A 
ATOM     21  C   UNL     1      -6.380  11.505  20.469  0.00  0.00    +0.000 A 
ATOM     22  C   UNL     1      -5.331  12.406  20.596  0.00  0.00    +0.000 A 
ATOM     23  C   UNL     1      -4.337  12.513  19.625  0.00  0.00    +0.000 A 
ATOM     24  C   UNL     1      -4.403  11.644  18.517  0.00  0.00    +0.000 A 
ATOM     25  C   UNL     1      -5.454  10.739  18.380  0.00  0.00    +0.000 A 
BRANCH  20  27
ATOM     26  C   UNL     1      -7.324   8.615  20.062  0.00  0.00    +0.000 C 
ATOM     27  O   UNL     1      -7.522   9.832  19.357  0.00  0.00    +0.000 OA
ENDBRANCH  20  27
ENDBRANCH   1  23
TORSDOF 2
ENDMDL
