MODEL 1
REMARK VINA RESULT:      -8.0      0.000      0.000
REMARK  Name = 
REMARK  10 active torsions:
REMARK  status: ('A' for Active; 'I' for Inactive)
REMARK    1  A    between atoms: C_1  and  C_2
REMARK    2  A    between atoms: C_4  and  C_5
REMARK    3  A    between atoms: C_5  and  C_7
REMARK    4  A    between atoms: C_7  and  C_8
REMARK    5  A    between atoms: C_8  and  C_9
REMARK    6  A    between atoms: N_11  and  C_12
REMARK    7  A    between atoms: N_11  and  C_13
REMARK    8  A    between atoms: C_13  and  C_14
REMARK    9  A    between atoms: N_16  and  C_17
REMARK   10  A    between atoms: C_24  and  C_25
REMARK                            x       y       z     vdW  Elec       q    Type
REMARK                         _______ _______ _______ _____ _____    ______ ____
ROOT
ATOM      1  C   UNL     1       7.640   7.430  17.825  0.00  0.00    +0.000 C 
ATOM      2  O   UNL     1       7.125   7.845  16.780  0.00  0.00    +0.000 OA
ATOM      3  N   UNL     1       7.446   6.124  18.237  0.00  0.00    +0.000 N 
ATOM      4  C   UNL     1       8.118   5.456  19.349  0.00  0.00    +0.000 C 
ENDROOT
BRANCH   1   5
ATOM      5  C   UNL     1       8.477   8.371  18.668  0.00  0.00    +0.000 C 
BRANCH   5   6
ATOM      6  C   UNL     1       8.545   9.762  18.048  0.00  0.00    +0.000 C 
BRANCH   6   7
ATOM      7  C   UNL     1       9.125  10.754  19.048  0.00  0.00    +0.000 C 
ATOM      8  O   UNL     1       9.354  10.402  20.205  0.00  0.00    +0.000 OA
BRANCH   7  12
ATOM      9  C   UNL     1       8.265  15.668  17.825  0.00  0.00    +0.000 C 
ATOM     10  C   UNL     1       8.962  14.373  18.042  0.00  0.00    +0.000 A 
ATOM     11  C   UNL     1       8.441  13.186  18.513  0.00  0.00    +0.000 A 
ATOM     12  C   UNL     1       9.411  12.124  18.586  0.00  0.00    +0.000 A 
ATOM     13  C   UNL     1      10.657  12.571  18.153  0.00  0.00    +0.000 A 
ATOM     14  C   UNL     1      11.973  11.864  18.037  0.00  0.00    +0.000 C 
ATOM     15  S   UNL     1      10.617  14.224  17.682  0.00  0.00    +0.000 S 
ENDBRANCH   7  12
ENDBRANCH   6   7
ENDBRANCH   5   6
ENDBRANCH   1   5
BRANCH   3  16
ATOM     16  C   UNL     1       6.505   5.295  17.473  0.00  0.00    +0.000 C 
BRANCH  16  17
ATOM     17  C   UNL     1       5.430   4.583  18.302  0.00  0.00    +0.000 C 
ATOM     18  O   UNL     1       5.730   3.971  19.329  0.00  0.00    +0.000 OA
ATOM     19  N   UNL     1       4.155   4.640  17.766  0.00  0.00    +0.000 N 
ATOM     20  H   UNL     1       4.111   4.711  16.750  0.00  0.00    +0.000 HD
BRANCH  19  21
ATOM     21  C   UNL     1       3.035   4.072  18.426  0.00  0.00    +0.000 A 
ATOM     22  C   UNL     1       2.717   2.716  18.246  0.00  0.00    +0.000 A 
ATOM     23  C   UNL     1       1.623   2.147  18.904  0.00  0.00    +0.000 A 
ATOM     24  C   UNL     1       0.829   2.926  19.742  0.00  0.00    +0.000 A 
ATOM     25  C   UNL     1       1.135   4.277  19.930  0.00  0.00    +0.000 A 
ATOM     26  C   UNL     1       2.241   4.845  19.285  0.00  0.00    +0.000 A 
ATOM     27 BR   UNL     1       2.546   6.709  19.497  0.00  0.00    +0.000 Br
ENDBRANCH  19  21
ENDBRANCH  16  17
ENDBRANCH   3  16
TORSDOF 7
ENDMDL
MODEL 2
REMARK VINA RESULT:      -7.8      1.756      2.100
REMARK  Name = 
REMARK  10 active torsions:
REMARK  status: ('A' for Active; 'I' for Inactive)
REMARK    1  A    between atoms: C_1  and  C_2
REMARK    2  A    between atoms: C_4  and  C_5
REMARK    3  A    between atoms: C_5  and  C_7
REMARK    4  A    between atoms: C_7  and  C_8
REMARK    5  A    between atoms: C_8  and  C_9
REMARK    6  A    between atoms: N_11  and  C_12
REMARK    7  A    between atoms: N_11  and  C_13
REMARK    8  A    between atoms: C_13  and  C_14
REMARK    9  A    between atoms: N_16  and  C_17
REMARK   10  A    between atoms: C_24  and  C_25
REMARK                            x       y       z     vdW  Elec       q    Type
REMARK                         _______ _______ _______ _____ _____    ______ ____
ROOT
ATOM      1  C   UNL     1       7.442   6.798  17.862  0.00  0.00    +0.000 C 
ATOM      2  O   UNL     1       8.081   6.276  18.784  0.00  0.00    +0.000 OA
ATOM      3  N   UNL     1       6.554   6.053  17.109  0.00  0.00    +0.000 N 
ATOM      4  C   UNL     1       5.619   6.567  16.110  0.00  0.00    +0.000 C 
ENDROOT
BRANCH   1   5
ATOM      5  C   UNL     1       7.652   8.266  17.550  0.00  0.00    +0.000 C 
BRANCH   5   6
ATOM      6  C   UNL     1       8.667   8.898  18.495  0.00  0.00    +0.000 C 
BRANCH   6   7
ATOM      7  C   UNL     1       8.685  10.410  18.312  0.00  0.00    +0.000 C 
ATOM      8  O   UNL     1       8.146  10.919  17.329  0.00  0.00    +0.000 OA
BRANCH   7  12
ATOM      9  C   UNL     1       9.342  12.870  22.773  0.00  0.00    +0.000 C 
ATOM     10  C   UNL     1       9.596  12.339  21.408  0.00  0.00    +0.000 A 
ATOM     11  C   UNL     1       8.777  11.551  20.626  0.00  0.00    +0.000 A 
ATOM     12  C   UNL     1       9.345  11.229  19.343  0.00  0.00    +0.000 A 
ATOM     13  C   UNL     1      10.607  11.805  19.211  0.00  0.00    +0.000 A 
ATOM     14  C   UNL     1      11.593  11.772  18.083  0.00  0.00    +0.000 C 
ATOM     15  S   UNL     1      11.054  12.699  20.609  0.00  0.00    +0.000 S 
ENDBRANCH   7  12
ENDBRANCH   6   7
ENDBRANCH   5   6
ENDBRANCH   1   5
BRANCH   3  16
ATOM     16  C   UNL     1       6.498   4.605  17.346  0.00  0.00    +0.000 C 
BRANCH  16  17
ATOM     17  C   UNL     1       5.412   4.138  18.323  0.00  0.00    +0.000 C 
ATOM     18  O   UNL     1       5.703   3.792  19.470  0.00  0.00    +0.000 OA
ATOM     19  N   UNL     1       4.137   4.086  17.786  0.00  0.00    +0.000 N 
ATOM     20  H   UNL     1       4.091   3.906  16.784  0.00  0.00    +0.000 HD
BRANCH  19  21
ATOM     21  C   UNL     1       3.008   3.719  18.563  0.00  0.00    +0.000 A 
ATOM     22  C   UNL     1       2.589   2.380  18.617  0.00  0.00    +0.000 A 
ATOM     23  C   UNL     1       1.486   2.010  19.393  0.00  0.00    +0.000 A 
ATOM     24  C   UNL     1       0.783   2.972  20.113  0.00  0.00    +0.000 A 
ATOM     25  C   UNL     1       1.190   4.309  20.068  0.00  0.00    +0.000 A 
ATOM     26  C   UNL     1       2.306   4.679  19.306  0.00  0.00    +0.000 A 
ATOM     27 BR   UNL     1       2.749   6.525  19.200  0.00  0.00    +0.000 Br
ENDBRANCH  19  21
ENDBRANCH  16  17
ENDBRANCH   3  16
TORSDOF 7
ENDMDL
MODEL 3
REMARK VINA RESULT:      -7.7      1.802      2.232
REMARK  Name = 
REMARK  10 active torsions:
REMARK  status: ('A' for Active; 'I' for Inactive)
REMARK    1  A    between atoms: C_1  and  C_2
REMARK    2  A    between atoms: C_4  and  C_5
REMARK    3  A    between atoms: C_5  and  C_7
REMARK    4  A    between atoms: C_7  and  C_8
REMARK    5  A    between atoms: C_8  and  C_9
REMARK    6  A    between atoms: N_11  and  C_12
REMARK    7  A    between atoms: N_11  and  C_13
REMARK    8  A    between atoms: C_13  and  C_14
REMARK    9  A    between atoms: N_16  and  C_17
REMARK   10  A    between atoms: C_24  and  C_25
REMARK                            x       y       z     vdW  Elec       q    Type
REMARK                         _______ _______ _______ _____ _____    ______ ____
ROOT
ATOM      1  C   UNL     1       7.808   7.439  18.093  0.00  0.00    +0.000 C 
ATOM      2  O   UNL     1       8.513   6.901  18.956  0.00  0.00    +0.000 OA
ATOM      3  N   UNL     1       6.819   6.723  17.445  0.00  0.00    +0.000 N 
ATOM      4  C   UNL     1       5.812   7.264  16.534  0.00  0.00    +0.000 C 
ENDROOT
BRANCH   1   5
ATOM      5  C   UNL     1       8.047   8.892  17.737  0.00  0.00    +0.000 C 
BRANCH   5   6
ATOM      6  C   UNL     1       8.795   9.623  18.846  0.00  0.00    +0.000 C 
BRANCH   6   7
ATOM      7  C   UNL     1       9.503  10.848  18.282  0.00  0.00    +0.000 C 
ATOM      8  O   UNL     1      10.442  10.712  17.498  0.00  0.00    +0.000 OA
BRANCH   7  12
ATOM      9  C   UNL     1       7.230  15.438  17.902  0.00  0.00    +0.000 C 
ATOM     10  C   UNL     1       7.965  14.274  18.463  0.00  0.00    +0.000 A 
ATOM     11  C   UNL     1       8.294  13.087  17.842  0.00  0.00    +0.000 A 
ATOM     12  C   UNL     1       9.023  12.180  18.690  0.00  0.00    +0.000 A 
ATOM     13  C   UNL     1       9.216  12.740  19.951  0.00  0.00    +0.000 A 
ATOM     14  C   UNL     1       9.906  12.210  21.171  0.00  0.00    +0.000 C 
ATOM     15  S   UNL     1       8.527  14.311  20.067  0.00  0.00    +0.000 S 
ENDBRANCH   7  12
ENDBRANCH   6   7
ENDBRANCH   5   6
ENDBRANCH   1   5
BRANCH   3  16
ATOM     16  C   UNL     1       6.726   5.282  17.711  0.00  0.00    +0.000 C 
BRANCH  16  17
ATOM     17  C   UNL     1       5.683   4.871  18.756  0.00  0.00    +0.000 C 
ATOM     18  O   UNL     1       6.011   4.665  19.927  0.00  0.00    +0.000 OA
ATOM     19  N   UNL     1       4.403   4.698  18.258  0.00  0.00    +0.000 N 
ATOM     20  H   UNL     1       4.349   4.410  17.281  0.00  0.00    +0.000 HD
BRANCH  19  21
ATOM     21  C   UNL     1       3.308   4.363  19.095  0.00  0.00    +0.000 A 
ATOM     22  C   UNL     1       2.689   5.347  19.882  0.00  0.00    +0.000 A 
ATOM     23  C   UNL     1       1.600   5.026  20.698  0.00  0.00    +0.000 A 
ATOM     24  C   UNL     1       1.124   3.719  20.746  0.00  0.00    +0.000 A 
ATOM     25  C   UNL     1       1.732   2.729  19.967  0.00  0.00    +0.000 A 
ATOM     26  C   UNL     1       2.811   3.052  19.136  0.00  0.00    +0.000 A 
ATOM     27 BR   UNL     1       3.662   1.646  18.180  0.00  0.00    +0.000 Br
ENDBRANCH  19  21
ENDBRANCH  16  17
ENDBRANCH   3  16
TORSDOF 7
ENDMDL
MODEL 4
REMARK VINA RESULT:      -7.6      1.450      1.696
REMARK  Name = 
REMARK  10 active torsions:
REMARK  status: ('A' for Active; 'I' for Inactive)
REMARK    1  A    between atoms: C_1  and  C_2
REMARK    2  A    between atoms: C_4  and  C_5
REMARK    3  A    between atoms: C_5  and  C_7
REMARK    4  A    between atoms: C_7  and  C_8
REMARK    5  A    between atoms: C_8  and  C_9
REMARK    6  A    between atoms: N_11  and  C_12
REMARK    7  A    between atoms: N_11  and  C_13
REMARK    8  A    between atoms: C_13  and  C_14
REMARK    9  A    between atoms: N_16  and  C_17
REMARK   10  A    between atoms: C_24  and  C_25
REMARK                            x       y       z     vdW  Elec       q    Type
REMARK                         _______ _______ _______ _____ _____    ______ ____
ROOT
ATOM      1  C   UNL     1       7.922   7.441  18.186  0.00  0.00    +0.000 C 
ATOM      2  O   UNL     1       8.569   6.969  19.129  0.00  0.00    +0.000 OA
ATOM      3  N   UNL     1       7.073   6.641  17.443  0.00  0.00    +0.000 N 
ATOM      4  C   UNL     1       6.132   7.091  16.419  0.00  0.00    +0.000 C 
ENDROOT
BRANCH   1   5
ATOM      5  C   UNL     1       8.078   8.907  17.836  0.00  0.00    +0.000 C 
BRANCH   5   6
ATOM      6  C   UNL     1       8.893   9.648  18.890  0.00  0.00    +0.000 C 
BRANCH   6   7
ATOM      7  C   UNL     1       9.539  10.885  18.280  0.00  0.00    +0.000 C 
ATOM      8  O   UNL     1      10.467  10.766  17.480  0.00  0.00    +0.000 OA
BRANCH   7  12
ATOM      9  C   UNL     1       7.054  15.358  17.839  0.00  0.00    +0.000 C 
ATOM     10  C   UNL     1       7.857  14.245  18.409  0.00  0.00    +0.000 A 
ATOM     11  C   UNL     1       8.219  13.054  17.814  0.00  0.00    +0.000 A 
ATOM     12  C   UNL     1       9.015  12.208  18.664  0.00  0.00    +0.000 A 
ATOM     13  C   UNL     1       9.224  12.816  19.900  0.00  0.00    +0.000 A 
ATOM     14  C   UNL     1       9.976  12.355  21.111  0.00  0.00    +0.000 C 
ATOM     15  S   UNL     1       8.470  14.357  19.992  0.00  0.00    +0.000 S 
ENDBRANCH   7  12
ENDBRANCH   6   7
ENDBRANCH   5   6
ENDBRANCH   1   5
BRANCH   3  16
ATOM     16  C   UNL     1       7.071   5.199  17.719  0.00  0.00    +0.000 C 
BRANCH  16  17
ATOM     17  C   UNL     1       5.866   4.682  18.512  0.00  0.00    +0.000 C 
ATOM     18  O   UNL     1       5.898   4.630  19.743  0.00  0.00    +0.000 OA
ATOM     19  N   UNL     1       4.810   4.238  17.735  0.00  0.00    +0.000 N 
ATOM     20  H   UNL     1       5.066   3.871  16.818  0.00  0.00    +0.000 HD
BRANCH  19  21
ATOM     21  C   UNL     1       3.600   3.769  18.306  0.00  0.00    +0.000 A 
ATOM     22  C   UNL     1       3.397   2.394  18.509  0.00  0.00    +0.000 A 
ATOM     23  C   UNL     1       2.212   1.927  19.085  0.00  0.00    +0.000 A 
ATOM     24  C   UNL     1       1.213   2.824  19.456  0.00  0.00    +0.000 A 
ATOM     25  C   UNL     1       1.403   4.195  19.259  0.00  0.00    +0.000 A 
ATOM     26  C   UNL     1       2.596   4.666  18.698  0.00  0.00    +0.000 A 
ATOM     27 BR   UNL     1       2.755   6.530  18.360  0.00  0.00    +0.000 Br
ENDBRANCH  19  21
ENDBRANCH  16  17
ENDBRANCH   3  16
TORSDOF 7
ENDMDL
MODEL 5
REMARK VINA RESULT:      -7.6      1.764      1.971
REMARK  Name = 
REMARK  10 active torsions:
REMARK  status: ('A' for Active; 'I' for Inactive)
REMARK    1  A    between atoms: C_1  and  C_2
REMARK    2  A    between atoms: C_4  and  C_5
REMARK    3  A    between atoms: C_5  and  C_7
REMARK    4  A    between atoms: C_7  and  C_8
REMARK    5  A    between atoms: C_8  and  C_9
REMARK    6  A    between atoms: N_11  and  C_12
REMARK    7  A    between atoms: N_11  and  C_13
REMARK    8  A    between atoms: C_13  and  C_14
REMARK    9  A    between atoms: N_16  and  C_17
REMARK   10  A    between atoms: C_24  and  C_25
REMARK                            x       y       z     vdW  Elec       q    Type
REMARK                         _______ _______ _______ _____ _____    ______ ____
ROOT
ATOM      1  C   UNL     1       7.782   7.566  17.990  0.00  0.00    +0.000 C 
ATOM      2  O   UNL     1       8.521   7.144  18.888  0.00  0.00    +0.000 OA
ATOM      3  N   UNL     1       6.865   6.731  17.380  0.00  0.00    +0.000 N 
ATOM      4  C   UNL     1       5.826   7.128  16.433  0.00  0.00    +0.000 C 
ENDROOT
BRANCH   1   5
ATOM      5  C   UNL     1       7.900   9.011  17.548  0.00  0.00    +0.000 C 
BRANCH   5   6
ATOM      6  C   UNL     1       8.829   9.800  18.463  0.00  0.00    +0.000 C 
BRANCH   6   7
ATOM      7  C   UNL     1       8.699  11.292  18.183  0.00  0.00    +0.000 C 
ATOM      8  O   UNL     1       7.935  11.690  17.304  0.00  0.00    +0.000 OA
BRANCH   7  12
ATOM      9  C   UNL     1       9.854  14.510  22.015  0.00  0.00    +0.000 C 
ATOM     10  C   UNL     1       9.974  13.693  20.779  0.00  0.00    +0.000 A 
ATOM     11  C   UNL     1       9.038  12.856  20.208  0.00  0.00    +0.000 A 
ATOM     12  C   UNL     1       9.496  12.227  18.997  0.00  0.00    +0.000 A 
ATOM     13  C   UNL     1      10.796  12.628  18.700  0.00  0.00    +0.000 A 
ATOM     14  C   UNL     1      11.705  12.266  17.565  0.00  0.00    +0.000 C 
ATOM     15  S   UNL     1      11.410  13.730  19.867  0.00  0.00    +0.000 S 
ENDBRANCH   7  12
ENDBRANCH   6   7
ENDBRANCH   5   6
ENDBRANCH   1   5
BRANCH   3  16
ATOM     16  C   UNL     1       6.892   5.306  17.733  0.00  0.00    +0.000 C 
BRANCH  16  17
ATOM     17  C   UNL     1       5.968   4.894  18.884  0.00  0.00    +0.000 C 
ATOM     18  O   UNL     1       6.384   4.859  20.044  0.00  0.00    +0.000 OA
ATOM     19  N   UNL     1       4.693   4.520  18.496  0.00  0.00    +0.000 N 
ATOM     20  H   UNL     1       4.620   4.121  17.561  0.00  0.00    +0.000 HD
BRANCH  19  21
ATOM     21  C   UNL     1       3.696   4.154  19.437  0.00  0.00    +0.000 A 
ATOM     22  C   UNL     1       3.695   2.870  20.004  0.00  0.00    +0.000 A 
ATOM     23  C   UNL     1       2.724   2.507  20.943  0.00  0.00    +0.000 A 
ATOM     24  C   UNL     1       1.739   3.417  21.318  0.00  0.00    +0.000 A 
ATOM     25  C   UNL     1       1.730   4.699  20.760  0.00  0.00    +0.000 A 
ATOM     26  C   UNL     1       2.712   5.070  19.833  0.00  0.00    +0.000 A 
ATOM     27 BR   UNL     1       2.588   6.790  19.032  0.00  0.00    +0.000 Br
ENDBRANCH  19  21
ENDBRANCH  16  17
ENDBRANCH   3  16
TORSDOF 7
ENDMDL
MODEL 6
REMARK VINA RESULT:      -7.6      5.803      8.739
REMARK  Name = 
REMARK  10 active torsions:
REMARK  status: ('A' for Active; 'I' for Inactive)
REMARK    1  A    between atoms: C_1  and  C_2
REMARK    2  A    between atoms: C_4  and  C_5
REMARK    3  A    between atoms: C_5  and  C_7
REMARK    4  A    between atoms: C_7  and  C_8
REMARK    5  A    between atoms: C_8  and  C_9
REMARK    6  A    between atoms: N_11  and  C_12
REMARK    7  A    between atoms: N_11  and  C_13
REMARK    8  A    between atoms: C_13  and  C_14
REMARK    9  A    between atoms: N_16  and  C_17
REMARK   10  A    between atoms: C_24  and  C_25
REMARK                            x       y       z     vdW  Elec       q    Type
REMARK                         _______ _______ _______ _____ _____    ______ ____
ROOT
ATOM      1  C   UNL     1       2.366   6.407  19.495  0.00  0.00    +0.000 C 
ATOM      2  O   UNL     1       2.585   5.652  20.450  0.00  0.00    +0.000 OA
ATOM      3  N   UNL     1       1.996   7.723  19.706  0.00  0.00    +0.000 N 
ATOM      4  C   UNL     1       1.868   8.762  18.686  0.00  0.00    +0.000 C 
ENDROOT
BRANCH   1   5
ATOM      5  C   UNL     1       2.491   5.875  18.082  0.00  0.00    +0.000 C 
BRANCH   5   6
ATOM      6  C   UNL     1       2.197   4.380  18.021  0.00  0.00    +0.000 C 
BRANCH   6   7
ATOM      7  C   UNL     1       3.493   3.586  18.111  0.00  0.00    +0.000 C 
ATOM      8  O   UNL     1       3.545   2.564  18.794  0.00  0.00    +0.000 OA
BRANCH   7  12
ATOM      9  C   UNL     1       6.561   4.431  14.079  0.00  0.00    +0.000 C 
ATOM     10  C   UNL     1       6.029   4.430  15.467  0.00  0.00    +0.000 A 
ATOM     11  C   UNL     1       4.850   3.890  15.935  0.00  0.00    +0.000 A 
ATOM     12  C   UNL     1       4.660   4.068  17.351  0.00  0.00    +0.000 A 
ATOM     13  C   UNL     1       5.737   4.757  17.905  0.00  0.00    +0.000 A 
ATOM     14  C   UNL     1       6.016   5.184  19.314  0.00  0.00    +0.000 C 
ATOM     15  S   UNL     1       6.919   5.157  16.722  0.00  0.00    +0.000 S 
ENDBRANCH   7  12
ENDBRANCH   6   7
ENDBRANCH   5   6
ENDBRANCH   1   5
BRANCH   3  16
ATOM     16  C   UNL     1       1.738   8.151  21.086  0.00  0.00    +0.000 C 
BRANCH  16  17
ATOM     17  C   UNL     1       0.397   8.855  21.319  0.00  0.00    +0.000 C 
ATOM     18  O   UNL     1      -0.651   8.208  21.377  0.00  0.00    +0.000 OA
ATOM     19  N   UNL     1       0.473  10.235  21.389  0.00  0.00    +0.000 N 
ATOM     20  H   UNL     1       1.233  10.659  20.858  0.00  0.00    +0.000 HD
BRANCH  19  21
ATOM     21  C   UNL     1      -0.667  11.040  21.646  0.00  0.00    +0.000 A 
ATOM     22  C   UNL     1      -1.160  11.176  22.953  0.00  0.00    +0.000 A 
ATOM     23  C   UNL     1      -2.274  11.979  23.215  0.00  0.00    +0.000 A 
ATOM     24  C   UNL     1      -2.915  12.646  22.174  0.00  0.00    +0.000 A 
ATOM     25  C   UNL     1      -2.434  12.518  20.867  0.00  0.00    +0.000 A 
ATOM     26  C   UNL     1      -1.307  11.729  20.606  0.00  0.00    +0.000 A 
ATOM     27 BR   UNL     1      -0.762  11.511  18.798  0.00  0.00    +0.000 Br
ENDBRANCH  19  21
ENDBRANCH  16  17
ENDBRANCH   3  16
TORSDOF 7
ENDMDL
MODEL 7
REMARK VINA RESULT:      -7.5      6.072      9.169
REMARK  Name = 
REMARK  10 active torsions:
REMARK  status: ('A' for Active; 'I' for Inactive)
REMARK    1  A    between atoms: C_1  and  C_2
REMARK    2  A    between atoms: C_4  and  C_5
REMARK    3  A    between atoms: C_5  and  C_7
REMARK    4  A    between atoms: C_7  and  C_8
REMARK    5  A    between atoms: C_8  and  C_9
REMARK    6  A    between atoms: N_11  and  C_12
REMARK    7  A    between atoms: N_11  and  C_13
REMARK    8  A    between atoms: C_13  and  C_14
REMARK    9  A    between atoms: N_16  and  C_17
REMARK   10  A    between atoms: C_24  and  C_25
REMARK                            x       y       z     vdW  Elec       q    Type
REMARK                         _______ _______ _______ _____ _____    ______ ____
ROOT
ATOM      1  C   UNL     1       1.779   7.849  20.225  0.00  0.00    +0.000 C 
ATOM      2  O   UNL     1       1.450   7.943  21.413  0.00  0.00    +0.000 OA
ATOM      3  N   UNL     1       1.607   8.913  19.359  0.00  0.00    +0.000 N 
ATOM      4  C   UNL     1       2.096   9.002  17.985  0.00  0.00    +0.000 C 
ENDROOT
BRANCH   1   5
ATOM      5  C   UNL     1       2.361   6.546  19.714  0.00  0.00    +0.000 C 
BRANCH   5   6
ATOM      6  C   UNL     1       1.906   5.363  20.561  0.00  0.00    +0.000 C 
BRANCH   6   7
ATOM      7  C   UNL     1       2.838   4.177  20.348  0.00  0.00    +0.000 C 
ATOM      8  O   UNL     1       2.777   3.202  21.098  0.00  0.00    +0.000 OA
BRANCH   7  12
ATOM      9  C   UNL     1       7.283   4.871  17.870  0.00  0.00    +0.000 C 
ATOM     10  C   UNL     1       5.854   4.559  18.137  0.00  0.00    +0.000 A 
ATOM     11  C   UNL     1       5.180   4.580  19.340  0.00  0.00    +0.000 A 
ATOM     12  C   UNL     1       3.789   4.229  19.224  0.00  0.00    +0.000 A 
ATOM     13  C   UNL     1       3.466   3.949  17.898  0.00  0.00    +0.000 A 
ATOM     14  C   UNL     1       2.171   3.543  17.263  0.00  0.00    +0.000 C 
ATOM     15  S   UNL     1       4.823   4.117  16.858  0.00  0.00    +0.000 S 
ENDBRANCH   7  12
ENDBRANCH   6   7
ENDBRANCH   5   6
ENDBRANCH   1   5
BRANCH   3  16
ATOM     16  C   UNL     1       0.900  10.099  19.860  0.00  0.00    +0.000 C 
BRANCH  16  17
ATOM     17  C   UNL     1      -0.107  10.725  18.888  0.00  0.00    +0.000 C 
ATOM     18  O   UNL     1       0.144  11.792  18.324  0.00  0.00    +0.000 OA
ATOM     19  N   UNL     1      -1.299  10.033  18.766  0.00  0.00    +0.000 N 
ATOM     20  H   UNL     1      -1.583   9.504  19.590  0.00  0.00    +0.000 HD
BRANCH  19  21
ATOM     21  C   UNL     1      -2.323  10.449  17.876  0.00  0.00    +0.000 A 
ATOM     22  C   UNL     1      -2.405   9.902  16.585  0.00  0.00    +0.000 A 
ATOM     23  C   UNL     1      -3.420  10.297  15.708  0.00  0.00    +0.000 A 
ATOM     24  C   UNL     1      -4.356  11.247  16.105  0.00  0.00    +0.000 A 
ATOM     25  C   UNL     1      -4.285  11.799  17.388  0.00  0.00    +0.000 A 
ATOM     26  C   UNL     1      -3.280  11.392  18.274  0.00  0.00    +0.000 A 
ATOM     27 BR   UNL     1      -3.172  12.252  19.966  0.00  0.00    +0.000 Br
ENDBRANCH  19  21
ENDBRANCH  16  17
ENDBRANCH   3  16
TORSDOF 7
ENDMDL
MODEL 8
REMARK VINA RESULT:      -7.4      5.713      7.589
REMARK  Name = 
REMARK  10 active torsions:
REMARK  status: ('A' for Active; 'I' for Inactive)
REMARK    1  A    between atoms: C_1  and  C_2
REMARK    2  A    between atoms: C_4  and  C_5
REMARK    3  A    between atoms: C_5  and  C_7
REMARK    4  A    between atoms: C_7  and  C_8
REMARK    5  A    between atoms: C_8  and  C_9
REMARK    6  A    between atoms: N_11  and  C_12
REMARK    7  A    between atoms: N_11  and  C_13
REMARK    8  A    between atoms: C_13  and  C_14
REMARK    9  A    between atoms: N_16  and  C_17
REMARK   10  A    between atoms: C_24  and  C_25
REMARK                            x       y       z     vdW  Elec       q    Type
REMARK                         _______ _______ _______ _____ _____    ______ ____
ROOT
ATOM      1  C   UNL     1       4.546   4.363  18.386  0.00  0.00    +0.000 C 
ATOM      2  O   UNL     1       5.086   5.356  18.889  0.00  0.00    +0.000 OA
ATOM      3  N   UNL     1       3.491   3.736  19.024  0.00  0.00    +0.000 N 
ATOM      4  C   UNL     1       2.658   2.667  18.476  0.00  0.00    +0.000 C 
ENDROOT
BRANCH   1   5
ATOM      5  C   UNL     1       5.060   3.823  17.067  0.00  0.00    +0.000 C 
BRANCH   5   6
ATOM      6  C   UNL     1       6.296   4.582  16.598  0.00  0.00    +0.000 C 
BRANCH   6   7
ATOM      7  C   UNL     1       5.987   5.350  15.320  0.00  0.00    +0.000 C 
ATOM      8  O   UNL     1       5.575   6.508  15.380  0.00  0.00    +0.000 OA
BRANCH   7  12
ATOM      9  C   UNL     1       5.115   2.206  11.353  0.00  0.00    +0.000 C 
ATOM     10  C   UNL     1       5.760   3.216  12.233  0.00  0.00    +0.000 A 
ATOM     11  C   UNL     1       5.321   3.704  13.446  0.00  0.00    +0.000 A 
ATOM     12  C   UNL     1       6.210   4.674  14.029  0.00  0.00    +0.000 A 
ATOM     13  C   UNL     1       7.313   4.882  13.205  0.00  0.00    +0.000 A 
ATOM     14  C   UNL     1       8.505   5.777  13.359  0.00  0.00    +0.000 C 
ATOM     15  S   UNL     1       7.242   3.918  11.783  0.00  0.00    +0.000 S 
ENDBRANCH   7  12
ENDBRANCH   6   7
ENDBRANCH   5   6
ENDBRANCH   1   5
BRANCH   3  16
ATOM     16  C   UNL     1       3.128   4.198  20.369  0.00  0.00    +0.000 C 
BRANCH  16  17
ATOM     17  C   UNL     1       2.054   5.291  20.423  0.00  0.00    +0.000 C 
ATOM     18  O   UNL     1       0.858   4.996  20.470  0.00  0.00    +0.000 OA
ATOM     19  N   UNL     1       2.541   6.584  20.352  0.00  0.00    +0.000 N 
ATOM     20  H   UNL     1       3.415   6.694  19.837  0.00  0.00    +0.000 HD
BRANCH  19  21
ATOM     21  C   UNL     1       1.689   7.715  20.433  0.00  0.00    +0.000 A 
ATOM     22  C   UNL     1       0.942   7.958  21.597  0.00  0.00    +0.000 A 
ATOM     23  C   UNL     1       0.111   9.078  21.690  0.00  0.00    +0.000 A 
ATOM     24  C   UNL     1       0.009   9.963  20.620  0.00  0.00    +0.000 A 
ATOM     25  C   UNL     1       0.747   9.733  19.455  0.00  0.00    +0.000 A 
ATOM     26  C   UNL     1       1.593   8.621  19.367  0.00  0.00    +0.000 A 
ATOM     27 BR   UNL     1       2.492   8.303  17.722  0.00  0.00    +0.000 Br
ENDBRANCH  19  21
ENDBRANCH  16  17
ENDBRANCH   3  16
TORSDOF 7
ENDMDL
MODEL 9
REMARK VINA RESULT:      -7.2      1.983      2.248
REMARK  Name = 
REMARK  10 active torsions:
REMARK  status: ('A' for Active; 'I' for Inactive)
REMARK    1  A    between atoms: C_1  and  C_2
REMARK    2  A    between atoms: C_4  and  C_5
REMARK    3  A    between atoms: C_5  and  C_7
REMARK    4  A    between atoms: C_7  and  C_8
REMARK    5  A    between atoms: C_8  and  C_9
REMARK    6  A    between atoms: N_11  and  C_12
REMARK    7  A    between atoms: N_11  and  C_13
REMARK    8  A    between atoms: C_13  and  C_14
REMARK    9  A    between atoms: N_16  and  C_17
REMARK   10  A    between atoms: C_24  and  C_25
REMARK                            x       y       z     vdW  Elec       q    Type
REMARK                         _______ _______ _______ _____ _____    ______ ____
ROOT
ATOM      1  C   UNL     1       7.808   7.379  18.147  0.00  0.00    +0.000 C 
ATOM      2  O   UNL     1       8.477   6.924  19.083  0.00  0.00    +0.000 OA
ATOM      3  N   UNL     1       6.791   6.633  17.579  0.00  0.00    +0.000 N 
ATOM      4  C   UNL     1       5.821   7.100  16.591  0.00  0.00    +0.000 C 
ENDROOT
BRANCH   1   5
ATOM      5  C   UNL     1       8.121   8.761  17.611  0.00  0.00    +0.000 C 
BRANCH   5   6
ATOM      6  C   UNL     1       8.858   9.606  18.644  0.00  0.00    +0.000 C 
BRANCH   6   7
ATOM      7  C   UNL     1       8.729  11.084  18.302  0.00  0.00    +0.000 C 
ATOM      8  O   UNL     1       7.973  11.446  17.400  0.00  0.00    +0.000 OA
BRANCH   7  12
ATOM      9  C   UNL     1       9.827  14.489  21.988  0.00  0.00    +0.000 C 
ATOM     10  C   UNL     1       9.968  13.606  20.800  0.00  0.00    +0.000 A 
ATOM     11  C   UNL     1       9.037  12.750  20.251  0.00  0.00    +0.000 A 
ATOM     12  C   UNL     1       9.516  12.053  19.086  0.00  0.00    +0.000 A 
ATOM     13  C   UNL     1      10.827  12.425  18.800  0.00  0.00    +0.000 A 
ATOM     14  C   UNL     1      11.760  11.994  17.709  0.00  0.00    +0.000 C 
ATOM     15  S   UNL     1      11.425  13.581  19.923  0.00  0.00    +0.000 S 
ENDBRANCH   7  12
ENDBRANCH   6   7
ENDBRANCH   5   6
ENDBRANCH   1   5
BRANCH   3  16
ATOM     16  C   UNL     1       6.625   5.245  18.027  0.00  0.00    +0.000 C 
BRANCH  16  17
ATOM     17  C   UNL     1       5.252   4.901  18.616  0.00  0.00    +0.000 C 
ATOM     18  O   UNL     1       4.818   5.509  19.596  0.00  0.00    +0.000 OA
ATOM     19  N   UNL     1       4.608   3.842  18.000  0.00  0.00    +0.000 N 
ATOM     20  H   UNL     1       5.220   3.142  17.582  0.00  0.00    +0.000 HD
BRANCH  19  21
ATOM     21  C   UNL     1       3.310   3.421  18.389  0.00  0.00    +0.000 A 
ATOM     22  C   UNL     1       2.174   3.943  17.750  0.00  0.00    +0.000 A 
ATOM     23  C   UNL     1       0.893   3.522  18.119  0.00  0.00    +0.000 A 
ATOM     24  C   UNL     1       0.731   2.584  19.135  0.00  0.00    +0.000 A 
ATOM     25  C   UNL     1       1.854   2.057  19.780  0.00  0.00    +0.000 A 
ATOM     26  C   UNL     1       3.139   2.464  19.399  0.00  0.00    +0.000 A 
ATOM     27 BR   UNL     1       4.622   1.791  20.380  0.00  0.00    +0.000 Br
ENDBRANCH  19  21
ENDBRANCH  16  17
ENDBRANCH   3  16
TORSDOF 7
ENDMDL
