MODEL 1
REMARK VINA RESULT:      -8.6      0.000      0.000
REMARK  Name = 
REMARK  8 active torsions:
REMARK  status: ('A' for Active; 'I' for Inactive)
REMARK    1  A    between atoms: C_2  and  C_4
REMARK    2  A    between atoms: C_4  and  C_5
REMARK    3  A    between atoms: C_9  and  C_10
REMARK    4  A    between atoms: C_10  and  O_12
REMARK    5  A    between atoms: C_20  and  C_21
REMARK    6  A    between atoms: C_21  and  O_22
REMARK    7  A    between atoms: C_21  and  C_23
REMARK    8  A    between atoms: C_21  and  C_27
REMARK                            x       y       z     vdW  Elec       q    Type
REMARK                         _______ _______ _______ _____ _____    ______ ____
ROOT
ATOM      1  C   UNL     1       0.035  10.457  19.729  0.00  0.00    +0.000 C 
ATOM      2  C   UNL     1       0.037   9.203  20.647  0.00  0.00    +0.000 C 
ATOM      3  C   UNL     1       1.457   8.611  20.688  0.00  0.00    +0.000 C 
ATOM      4  N   UNL     1       1.772   8.160  19.343  0.00  0.00    +0.000 N 
ATOM      5  C   UNL     1       2.144   6.884  19.045  0.00  0.00    +0.000 A 
ATOM      6  N   UNL     1       2.454   6.470  17.833  0.00  0.00    +0.000 NA
ATOM      7  C   UNL     1       2.756   5.125  17.818  0.00  0.00    +0.000 A 
ATOM      8  C   UNL     1       2.677   4.469  19.034  0.00  0.00    +0.000 A 
ATOM      9  S   UNL     1       2.206   5.612  20.219  0.00  0.00    +0.000 S 
ATOM     10  C   UNL     1       1.843   9.209  18.327  0.00  0.00    +0.000 C 
ATOM     11  C   UNL     1       0.541  10.021  18.325  0.00  0.00    +0.000 C 
ENDROOT
BRANCH   1  12
ATOM     12  C   UNL     1      -1.325  11.160  19.500  0.00  0.00    +0.000 A 
ATOM     13  C   UNL     1      -1.819  12.025  20.507  0.00  0.00    +0.000 A 
ATOM     14  C   UNL     1      -3.076  12.619  20.418  0.00  0.00    +0.000 A 
ATOM     15  C   UNL     1      -3.843  12.422  19.281  0.00  0.00    +0.000 A 
ATOM     16  C   UNL     1      -3.335  11.661  18.221  0.00  0.00    +0.000 A 
ATOM     17  C   UNL     1      -2.086  11.018  18.331  0.00  0.00    +0.000 A 
BRANCH  16  18
ATOM     18  C   UNL     1      -4.185  11.531  17.016  0.00  0.00    +0.000 C 
ATOM     19  O   UNL     1      -3.976  10.703  16.147  0.00  0.00    +0.000 OA
BRANCH  18  20
ATOM     20  O   UNL     1      -5.235  12.376  17.005  0.00  0.00    +0.000 OA
ATOM     21  H   UNL     1      -5.093  13.213  17.486  0.00  0.00    +0.000 HD
ENDBRANCH  18  20
ENDBRANCH  16  18
ENDBRANCH   1  12
BRANCH   1  23
ATOM     22  N   UNL     1       1.621  12.356  19.616  0.00  0.00    +0.000 N 
ATOM     23  C   UNL     1       0.977  11.462  20.444  0.00  0.00    +0.000 C 
ATOM     24  O   UNL     1       1.166  11.493  21.656  0.00  0.00    +0.000 OA
ATOM     25  H   UNL     1       2.320  12.955  20.036  0.00  0.00    +0.000 HD
ATOM     26  H   UNL     1       1.737  12.144  18.633  0.00  0.00    +0.000 HD
ENDBRANCH   1  23
BRANCH   8  27
ATOM     27  C   UNL     1       2.942   2.997  19.363  0.00  0.00    +0.000 C 
BRANCH  27  28
ATOM     28  C   UNL     1       1.713   2.351  20.047  0.00  0.00    +0.000 C 
ATOM     29  F   UNL     1       1.573   1.040  19.721  0.00  0.00    +0.000 F 
ATOM     30  F   UNL     1       1.666   2.415  21.388  0.00  0.00    +0.000 F 
ATOM     31  F   UNL     1       0.573   2.948  19.596  0.00  0.00    +0.000 F 
ENDBRANCH  27  28
BRANCH  27  32
ATOM     32  C   UNL     1       3.349   2.211  18.090  0.00  0.00    +0.000 C 
ATOM     33  F   UNL     1       4.331   2.838  17.393  0.00  0.00    +0.000 F 
ATOM     34  F   UNL     1       3.851   0.988  18.403  0.00  0.00    +0.000 F 
ATOM     35  F   UNL     1       2.357   1.994  17.204  0.00  0.00    +0.000 F 
ENDBRANCH  27  32
BRANCH  27  36
ATOM     36  O   UNL     1       4.070   2.994  20.308  0.00  0.00    +0.000 OA
ATOM     37  H   UNL     1       3.696   2.901  21.205  0.00  0.00    +0.000 HD
ENDBRANCH  27  36
ENDBRANCH   8  27
TORSDOF 8
ENDMDL
MODEL 2
REMARK VINA RESULT:      -8.6      0.808      1.248
REMARK  Name = 
REMARK  8 active torsions:
REMARK  status: ('A' for Active; 'I' for Inactive)
REMARK    1  A    between atoms: C_2  and  C_4
REMARK    2  A    between atoms: C_4  and  C_5
REMARK    3  A    between atoms: C_9  and  C_10
REMARK    4  A    between atoms: C_10  and  O_12
REMARK    5  A    between atoms: C_20  and  C_21
REMARK    6  A    between atoms: C_21  and  O_22
REMARK    7  A    between atoms: C_21  and  C_23
REMARK    8  A    between atoms: C_21  and  C_27
REMARK                            x       y       z     vdW  Elec       q    Type
REMARK                         _______ _______ _______ _____ _____    ______ ____
ROOT
ATOM      1  C   UNL     1      -0.263  10.656  19.786  0.00  0.00    +0.000 C 
ATOM      2  C   UNL     1      -0.258   9.395  20.694  0.00  0.00    +0.000 C 
ATOM      3  C   UNL     1       1.180   8.860  20.807  0.00  0.00    +0.000 C 
ATOM      4  N   UNL     1       1.583   8.434  19.478  0.00  0.00    +0.000 N 
ATOM      5  C   UNL     1       2.022   7.176  19.191  0.00  0.00    +0.000 A 
ATOM      6  N   UNL     1       2.411   6.785  17.995  0.00  0.00    +0.000 NA
ATOM      7  C   UNL     1       2.767   5.453  17.988  0.00  0.00    +0.000 A 
ATOM      8  C   UNL     1       2.650   4.785  19.193  0.00  0.00    +0.000 A 
ATOM      9  S   UNL     1       2.073   5.898  20.359  0.00  0.00    +0.000 S 
ATOM     10  C   UNL     1       1.665   9.493  18.474  0.00  0.00    +0.000 C 
ATOM     11  C   UNL     1       0.334  10.252  18.408  0.00  0.00    +0.000 C 
ENDROOT
BRANCH   1  12
ATOM     12  C   UNL     1      -1.636  11.307  19.490  0.00  0.00    +0.000 A 
ATOM     13  C   UNL     1      -2.166  12.228  20.427  0.00  0.00    +0.000 A 
ATOM     14  C   UNL     1      -3.435  12.782  20.279  0.00  0.00    +0.000 A 
ATOM     15  C   UNL     1      -4.180  12.485  19.150  0.00  0.00    +0.000 A 
ATOM     16  C   UNL     1      -3.638  11.665  18.153  0.00  0.00    +0.000 A 
ATOM     17  C   UNL     1      -2.376  11.063  18.325  0.00  0.00    +0.000 A 
BRANCH  16  18
ATOM     18  C   UNL     1      -4.467  11.428  16.949  0.00  0.00    +0.000 C 
ATOM     19  O   UNL     1      -4.005  11.015  15.900  0.00  0.00    +0.000 OA
BRANCH  18  20
ATOM     20  O   UNL     1      -5.781  11.662  17.146  0.00  0.00    +0.000 OA
ATOM     21  H   UNL     1      -6.047  12.596  17.063  0.00  0.00    +0.000 HD
ENDBRANCH  18  20
ENDBRANCH  16  18
ENDBRANCH   1  12
BRANCH   1  23
ATOM     22  N   UNL     1       1.253  12.615  19.770  0.00  0.00    +0.000 N 
ATOM     23  C   UNL     1       0.600  11.692  20.556  0.00  0.00    +0.000 C 
ATOM     24  O   UNL     1       0.720  11.722  21.777  0.00  0.00    +0.000 OA
ATOM     25  H   UNL     1       1.904  13.237  20.230  0.00  0.00    +0.000 HD
ATOM     26  H   UNL     1       1.431  12.414  18.793  0.00  0.00    +0.000 HD
ENDBRANCH   1  23
BRANCH   8  27
ATOM     27  C   UNL     1       2.957   3.322  19.526  0.00  0.00    +0.000 C 
BRANCH  27  28
ATOM     28  C   UNL     1       1.949   2.372  18.833  0.00  0.00    +0.000 C 
ATOM     29  F   UNL     1       0.733   2.952  18.660  0.00  0.00    +0.000 F 
ATOM     30  F   UNL     1       2.308   1.880  17.636  0.00  0.00    +0.000 F 
ATOM     31  F   UNL     1       1.712   1.295  19.635  0.00  0.00    +0.000 F 
ENDBRANCH  27  28
BRANCH  27  32
ATOM     32  C   UNL     1       4.415   2.961  19.142  0.00  0.00    +0.000 C 
ATOM     33  F   UNL     1       5.309   3.867  19.618  0.00  0.00    +0.000 F 
ATOM     34  F   UNL     1       4.788   1.769  19.678  0.00  0.00    +0.000 F 
ATOM     35  F   UNL     1       4.659   2.871  17.820  0.00  0.00    +0.000 F 
ENDBRANCH  27  32
BRANCH  27  36
ATOM     36  O   UNL     1       2.802   3.200  20.984  0.00  0.00    +0.000 OA
ATOM     37  H   UNL     1       1.885   2.913  21.155  0.00  0.00    +0.000 HD
ENDBRANCH  27  36
ENDBRANCH   8  27
TORSDOF 8
ENDMDL
MODEL 3
REMARK VINA RESULT:      -8.5      0.141      1.095
REMARK  Name = 
REMARK  8 active torsions:
REMARK  status: ('A' for Active; 'I' for Inactive)
REMARK    1  A    between atoms: C_2  and  C_4
REMARK    2  A    between atoms: C_4  and  C_5
REMARK    3  A    between atoms: C_9  and  C_10
REMARK    4  A    between atoms: C_10  and  O_12
REMARK    5  A    between atoms: C_20  and  C_21
REMARK    6  A    between atoms: C_21  and  O_22
REMARK    7  A    between atoms: C_21  and  C_23
REMARK    8  A    between atoms: C_21  and  C_27
REMARK                            x       y       z     vdW  Elec       q    Type
REMARK                         _______ _______ _______ _____ _____    ______ ____
ROOT
ATOM      1  C   UNL     1      -0.015  10.458  19.799  0.00  0.00    +0.000 C 
ATOM      2  C   UNL     1      -0.040   9.172  20.671  0.00  0.00    +0.000 C 
ATOM      3  C   UNL     1       1.382   8.590  20.752  0.00  0.00    +0.000 C 
ATOM      4  N   UNL     1       1.758   8.190  19.408  0.00  0.00    +0.000 N 
ATOM      5  C   UNL     1       2.155   6.928  19.081  0.00  0.00    +0.000 A 
ATOM      6  N   UNL     1       2.520   6.560  17.870  0.00  0.00    +0.000 NA
ATOM      7  C   UNL     1       2.836   5.219  17.821  0.00  0.00    +0.000 A 
ATOM      8  C   UNL     1       2.710   4.520  19.008  0.00  0.00    +0.000 A 
ATOM      9  S   UNL     1       2.179   5.616  20.211  0.00  0.00    +0.000 S 
ATOM     10  C   UNL     1       1.864   9.274  18.433  0.00  0.00    +0.000 C 
ATOM     11  C   UNL     1       0.555  10.076  18.403  0.00  0.00    +0.000 C 
ENDROOT
BRANCH   1  12
ATOM     12  C   UNL     1      -1.370  11.158  19.536  0.00  0.00    +0.000 A 
ATOM     13  C   UNL     1      -1.857  12.075  20.499  0.00  0.00    +0.000 A 
ATOM     14  C   UNL     1      -3.110  12.673  20.382  0.00  0.00    +0.000 A 
ATOM     15  C   UNL     1      -3.880  12.424  19.257  0.00  0.00    +0.000 A 
ATOM     16  C   UNL     1      -3.378  11.609  18.235  0.00  0.00    +0.000 A 
ATOM     17  C   UNL     1      -2.133  10.963  18.376  0.00  0.00    +0.000 A 
BRANCH  16  18
ATOM     18  C   UNL     1      -4.231  11.424  17.039  0.00  0.00    +0.000 C 
ATOM     19  O   UNL     1      -5.278  12.024  16.876  0.00  0.00    +0.000 OA
BRANCH  18  20
ATOM     20  O   UNL     1      -3.709  10.572  16.133  0.00  0.00    +0.000 OA
ATOM     21  H   UNL     1      -3.574   9.662  16.457  0.00  0.00    +0.000 HD
ENDBRANCH  18  20
ENDBRANCH  16  18
ENDBRANCH   1  12
BRANCH   1  23
ATOM     22  N   UNL     1       1.606  12.331  19.818  0.00  0.00    +0.000 N 
ATOM     23  C   UNL     1       0.886  11.445  20.589  0.00  0.00    +0.000 C 
ATOM     24  O   UNL     1       0.983  11.467  21.812  0.00  0.00    +0.000 OA
ATOM     25  H   UNL     1       2.280  12.916  20.293  0.00  0.00    +0.000 HD
ATOM     26  H   UNL     1       1.792  12.122  18.845  0.00  0.00    +0.000 HD
ENDBRANCH   1  23
BRANCH   8  27
ATOM     27  C   UNL     1       2.975   3.039  19.296  0.00  0.00    +0.000 C 
BRANCH  27  28
ATOM     28  C   UNL     1       1.742   2.373  19.953  0.00  0.00    +0.000 C 
ATOM     29  F   UNL     1       0.588   3.027  19.663  0.00  0.00    +0.000 F 
ATOM     30  F   UNL     1       1.528   1.079  19.661  0.00  0.00    +0.000 F 
ATOM     31  F   UNL     1       1.854   2.445  21.310  0.00  0.00    +0.000 F 
ENDBRANCH  27  28
BRANCH  27  32
ATOM     32  C   UNL     1       3.390   2.290  18.003  0.00  0.00    +0.000 C 
ATOM     33  F   UNL     1       3.814   1.025  18.260  0.00  0.00    +0.000 F 
ATOM     34  F   UNL     1       2.341   2.155  17.150  0.00  0.00    +0.000 F 
ATOM     35  F   UNL     1       4.379   2.867  17.294  0.00  0.00    +0.000 F 
ENDBRANCH  27  32
BRANCH  27  36
ATOM     36  O   UNL     1       4.097   3.009  20.247  0.00  0.00    +0.000 OA
ATOM     37  H   UNL     1       3.752   3.302  21.112  0.00  0.00    +0.000 HD
ENDBRANCH  27  36
ENDBRANCH   8  27
TORSDOF 8
ENDMDL
MODEL 4
REMARK VINA RESULT:      -8.4      0.967      1.775
REMARK  Name = 
REMARK  8 active torsions:
REMARK  status: ('A' for Active; 'I' for Inactive)
REMARK    1  A    between atoms: C_2  and  C_4
REMARK    2  A    between atoms: C_4  and  C_5
REMARK    3  A    between atoms: C_9  and  C_10
REMARK    4  A    between atoms: C_10  and  O_12
REMARK    5  A    between atoms: C_20  and  C_21
REMARK    6  A    between atoms: C_21  and  O_22
REMARK    7  A    between atoms: C_21  and  C_23
REMARK    8  A    between atoms: C_21  and  C_27
REMARK                            x       y       z     vdW  Elec       q    Type
REMARK                         _______ _______ _______ _____ _____    ______ ____
ROOT
ATOM      1  C   UNL     1       0.057  10.327  19.766  0.00  0.00    +0.000 C 
ATOM      2  C   UNL     1      -0.039   8.992  20.556  0.00  0.00    +0.000 C 
ATOM      3  C   UNL     1       1.367   8.381  20.685  0.00  0.00    +0.000 C 
ATOM      4  N   UNL     1       1.817   8.054  19.343  0.00  0.00    +0.000 N 
ATOM      5  C   UNL     1       2.214   6.808  18.964  0.00  0.00    +0.000 A 
ATOM      6  N   UNL     1       2.645   6.505  17.756  0.00  0.00    +0.000 NA
ATOM      7  C   UNL     1       2.944   5.164  17.645  0.00  0.00    +0.000 A 
ATOM      8  C   UNL     1       2.737   4.398  18.778  0.00  0.00    +0.000 A 
ATOM      9  S   UNL     1       2.151   5.430  20.012  0.00  0.00    +0.000 S 
ATOM     10  C   UNL     1       1.996   9.193  18.444  0.00  0.00    +0.000 C 
ATOM     11  C   UNL     1       0.704  10.018  18.386  0.00  0.00    +0.000 C 
ENDROOT
BRANCH   1  12
ATOM     12  C   UNL     1      -1.270  11.066  19.467  0.00  0.00    +0.000 A 
ATOM     13  C   UNL     1      -1.795  11.941  20.449  0.00  0.00    +0.000 A 
ATOM     14  C   UNL     1      -3.029  12.568  20.295  0.00  0.00    +0.000 A 
ATOM     15  C   UNL     1      -3.739  12.393  19.119  0.00  0.00    +0.000 A 
ATOM     16  C   UNL     1      -3.195  11.622  18.085  0.00  0.00    +0.000 A 
ATOM     17  C   UNL     1      -1.971  10.946  18.259  0.00  0.00    +0.000 A 
BRANCH  16  18
ATOM     18  C   UNL     1      -3.983  11.516  16.835  0.00  0.00    +0.000 C 
ATOM     19  O   UNL     1      -5.200  11.545  16.819  0.00  0.00    +0.000 OA
BRANCH  18  20
ATOM     20  O   UNL     1      -3.222  11.439  15.724  0.00  0.00    +0.000 OA
ATOM     21  H   UNL     1      -3.590  11.893  14.944  0.00  0.00    +0.000 HD
ENDBRANCH  18  20
ENDBRANCH  16  18
ENDBRANCH   1  12
BRANCH   1  23
ATOM     22  N   UNL     1       1.588  12.259  20.006  0.00  0.00    +0.000 N 
ATOM     23  C   UNL     1       0.924  11.248  20.665  0.00  0.00    +0.000 C 
ATOM     24  O   UNL     1       1.039  11.120  21.881  0.00  0.00    +0.000 OA
ATOM     25  H   UNL     1       2.242  12.811  20.544  0.00  0.00    +0.000 HD
ATOM     26  H   UNL     1       1.769  12.183  19.012  0.00  0.00    +0.000 HD
ENDBRANCH   1  23
BRANCH   8  27
ATOM     27  C   UNL     1       2.963   2.898  18.991  0.00  0.00    +0.000 C 
BRANCH  27  28
ATOM     28  C   UNL     1       4.067   2.648  20.047  0.00  0.00    +0.000 C 
ATOM     29  F   UNL     1       5.055   3.578  19.988  0.00  0.00    +0.000 F 
ATOM     30  F   UNL     1       3.674   2.594  21.330  0.00  0.00    +0.000 F 
ATOM     31  F   UNL     1       4.687   1.461  19.786  0.00  0.00    +0.000 F 
ENDBRANCH  27  28
BRANCH  27  32
ATOM     32  C   UNL     1       1.642   2.190  19.388  0.00  0.00    +0.000 C 
ATOM     33  F   UNL     1       0.631   2.473  18.526  0.00  0.00    +0.000 F 
ATOM     34  F   UNL     1       1.776   0.838  19.358  0.00  0.00    +0.000 F 
ATOM     35  F   UNL     1       1.170   2.494  20.613  0.00  0.00    +0.000 F 
ENDBRANCH  27  32
BRANCH  27  36
ATOM     36  O   UNL     1       3.416   2.372  17.693  0.00  0.00    +0.000 OA
ATOM     37  H   UNL     1       3.124   1.442  17.640  0.00  0.00    +0.000 HD
ENDBRANCH  27  36
ENDBRANCH   8  27
TORSDOF 8
ENDMDL
MODEL 5
REMARK VINA RESULT:      -8.3      2.936      4.660
REMARK  Name = 
REMARK  8 active torsions:
REMARK  status: ('A' for Active; 'I' for Inactive)
REMARK    1  A    between atoms: C_2  and  C_4
REMARK    2  A    between atoms: C_4  and  C_5
REMARK    3  A    between atoms: C_9  and  C_10
REMARK    4  A    between atoms: C_10  and  O_12
REMARK    5  A    between atoms: C_20  and  C_21
REMARK    6  A    between atoms: C_21  and  O_22
REMARK    7  A    between atoms: C_21  and  C_23
REMARK    8  A    between atoms: C_21  and  C_27
REMARK                            x       y       z     vdW  Elec       q    Type
REMARK                         _______ _______ _______ _____ _____    ______ ____
ROOT
ATOM      1  C   UNL     1       0.840  10.927  19.547  0.00  0.00    +0.000 C 
ATOM      2  C   UNL     1       1.925  10.617  18.478  0.00  0.00    +0.000 C 
ATOM      3  C   UNL     1       1.670   9.218  17.891  0.00  0.00    +0.000 C 
ATOM      4  N   UNL     1       1.847   8.262  18.972  0.00  0.00    +0.000 N 
ATOM      5  C   UNL     1       2.719   7.218  18.918  0.00  0.00    +0.000 A 
ATOM      6  N   UNL     1       2.872   6.332  19.882  0.00  0.00    +0.000 NA
ATOM      7  C   UNL     1       3.847   5.409  19.573  0.00  0.00    +0.000 A 
ATOM      8  C   UNL     1       4.478   5.573  18.353  0.00  0.00    +0.000 A 
ATOM      9  S   UNL     1       3.794   6.944  17.587  0.00  0.00    +0.000 S 
ATOM     10  C   UNL     1       0.894   8.375  20.074  0.00  0.00    +0.000 C 
ATOM     11  C   UNL     1       0.901   9.807  20.624  0.00  0.00    +0.000 C 
ENDROOT
BRANCH   1  12
ATOM     12  C   UNL     1       0.964  12.268  20.308  0.00  0.00    +0.000 A 
ATOM     13  C   UNL     1       2.043  13.130  19.994  0.00  0.00    +0.000 A 
ATOM     14  C   UNL     1       2.277  14.308  20.699  0.00  0.00    +0.000 A 
ATOM     15  C   UNL     1       1.391  14.694  21.692  0.00  0.00    +0.000 A 
ATOM     16  C   UNL     1       0.254  13.919  21.950  0.00  0.00    +0.000 A 
ATOM     17  C   UNL     1       0.044  12.701  21.273  0.00  0.00    +0.000 A 
BRANCH  16  18
ATOM     18  C   UNL     1      -0.678  14.414  22.990  0.00  0.00    +0.000 C 
ATOM     19  O   UNL     1      -1.796  13.956  23.146  0.00  0.00    +0.000 OA
BRANCH  18  20
ATOM     20  O   UNL     1      -0.149  15.377  23.772  0.00  0.00    +0.000 OA
ATOM     21  H   UNL     1      -0.384  16.288  23.514  0.00  0.00    +0.000 HD
ENDBRANCH  18  20
ENDBRANCH  16  18
ENDBRANCH   1  12
BRANCH   1  23
ATOM     22  N   UNL     1      -0.590  11.940  17.797  0.00  0.00    +0.000 N 
ATOM     23  C   UNL     1      -0.492  10.951  18.751  0.00  0.00    +0.000 C 
ATOM     24  O   UNL     1      -1.419  10.165  18.928  0.00  0.00    +0.000 OA
ATOM     25  H   UNL     1      -1.483  12.049  17.334  0.00  0.00    +0.000 HD
ATOM     26  H   UNL     1      -0.008  12.765  17.861  0.00  0.00    +0.000 HD
ENDBRANCH   1  23
BRANCH   8  27
ATOM     27  C   UNL     1       5.590   4.737  17.714  0.00  0.00    +0.000 C 
BRANCH  27  28
ATOM     28  C   UNL     1       5.175   4.243  16.307  0.00  0.00    +0.000 C 
ATOM     29  F   UNL     1       5.112   5.257  15.405  0.00  0.00    +0.000 F 
ATOM     30  F   UNL     1       5.942   3.290  15.752  0.00  0.00    +0.000 F 
ATOM     31  F   UNL     1       3.910   3.738  16.355  0.00  0.00    +0.000 F 
ENDBRANCH  27  28
BRANCH  27  32
ATOM     32  C   UNL     1       6.918   5.535  17.655  0.00  0.00    +0.000 C 
ATOM     33  F   UNL     1       7.204   6.141  18.837  0.00  0.00    +0.000 F 
ATOM     34  F   UNL     1       7.975   4.719  17.401  0.00  0.00    +0.000 F 
ATOM     35  F   UNL     1       6.965   6.511  16.727  0.00  0.00    +0.000 F 
ENDBRANCH  27  32
BRANCH  27  36
ATOM     36  O   UNL     1       5.772   3.571  18.594  0.00  0.00    +0.000 OA
ATOM     37  H   UNL     1       5.793   2.779  18.023  0.00  0.00    +0.000 HD
ENDBRANCH  27  36
ENDBRANCH   8  27
TORSDOF 8
ENDMDL
MODEL 6
REMARK VINA RESULT:      -8.3      2.981      4.666
REMARK  Name = 
REMARK  8 active torsions:
REMARK  status: ('A' for Active; 'I' for Inactive)
REMARK    1  A    between atoms: C_2  and  C_4
REMARK    2  A    between atoms: C_4  and  C_5
REMARK    3  A    between atoms: C_9  and  C_10
REMARK    4  A    between atoms: C_10  and  O_12
REMARK    5  A    between atoms: C_20  and  C_21
REMARK    6  A    between atoms: C_21  and  O_22
REMARK    7  A    between atoms: C_21  and  C_23
REMARK    8  A    between atoms: C_21  and  C_27
REMARK                            x       y       z     vdW  Elec       q    Type
REMARK                         _______ _______ _______ _____ _____    ______ ____
ROOT
ATOM      1  C   UNL     1       0.776  10.908  19.576  0.00  0.00    +0.000 C 
ATOM      2  C   UNL     1       1.882  10.616  18.524  0.00  0.00    +0.000 C 
ATOM      3  C   UNL     1       1.644   9.223  17.916  0.00  0.00    +0.000 C 
ATOM      4  N   UNL     1       1.803   8.255  18.987  0.00  0.00    +0.000 N 
ATOM      5  C   UNL     1       2.680   7.214  18.937  0.00  0.00    +0.000 A 
ATOM      6  N   UNL     1       2.817   6.317  19.893  0.00  0.00    +0.000 NA
ATOM      7  C   UNL     1       3.802   5.401  19.592  0.00  0.00    +0.000 A 
ATOM      8  C   UNL     1       4.456   5.583  18.386  0.00  0.00    +0.000 A 
ATOM      9  S   UNL     1       3.782   6.961  17.625  0.00  0.00    +0.000 S 
ATOM     10  C   UNL     1       0.829   8.350  20.073  0.00  0.00    +0.000 C 
ATOM     11  C   UNL     1       0.820   9.776  20.640  0.00  0.00    +0.000 C 
ENDROOT
BRANCH   1  12
ATOM     12  C   UNL     1       0.880  12.241  20.356  0.00  0.00    +0.000 A 
ATOM     13  C   UNL     1       1.943  13.125  20.050  0.00  0.00    +0.000 A 
ATOM     14  C   UNL     1       2.159  14.297  20.771  0.00  0.00    +0.000 A 
ATOM     15  C   UNL     1       1.271  14.653  21.773  0.00  0.00    +0.000 A 
ATOM     16  C   UNL     1       0.149  13.855  22.025  0.00  0.00    +0.000 A 
ATOM     17  C   UNL     1      -0.043  12.644  21.332  0.00  0.00    +0.000 A 
BRANCH  16  18
ATOM     18  C   UNL     1      -0.786  14.319  23.076  0.00  0.00    +0.000 C 
ATOM     19  O   UNL     1      -0.469  15.124  23.933  0.00  0.00    +0.000 OA
BRANCH  18  20
ATOM     20  O   UNL     1      -2.027  13.804  22.957  0.00  0.00    +0.000 OA
ATOM     21  H   UNL     1      -2.128  13.139  22.251  0.00  0.00    +0.000 HD
ENDBRANCH  18  20
ENDBRANCH  16  18
ENDBRANCH   1  12
BRANCH   1  23
ATOM     22  N   UNL     1      -0.623  11.937  17.810  0.00  0.00    +0.000 N 
ATOM     23  C   UNL     1      -0.541  10.938  18.755  0.00  0.00    +0.000 C 
ATOM     24  O   UNL     1      -1.469  10.149  18.906  0.00  0.00    +0.000 OA
ATOM     25  H   UNL     1      -1.507  12.049  17.331  0.00  0.00    +0.000 HD
ATOM     26  H   UNL     1      -0.045  12.763  17.893  0.00  0.00    +0.000 HD
ENDBRANCH   1  23
BRANCH   8  27
ATOM     27  C   UNL     1       5.583   4.759  17.759  0.00  0.00    +0.000 C 
BRANCH  27  28
ATOM     28  C   UNL     1       5.256   4.399  16.289  0.00  0.00    +0.000 C 
ATOM     29  F   UNL     1       4.014   3.867  16.154  0.00  0.00    +0.000 F 
ATOM     30  F   UNL     1       5.340   5.395  15.391  0.00  0.00    +0.000 F 
ATOM     31  F   UNL     1       6.104   3.422  15.858  0.00  0.00    +0.000 F 
ENDBRANCH  27  28
BRANCH  27  32
ATOM     32  C   UNL     1       6.938   5.505  17.861  0.00  0.00    +0.000 C 
ATOM     33  F   UNL     1       6.990   6.585  17.039  0.00  0.00    +0.000 F 
ATOM     34  F   UNL     1       7.142   5.992  19.113  0.00  0.00    +0.000 F 
ATOM     35  F   UNL     1       8.027   4.770  17.562  0.00  0.00    +0.000 F 
ENDBRANCH  27  32
BRANCH  27  36
ATOM     36  O   UNL     1       5.660   3.518  18.547  0.00  0.00    +0.000 OA
ATOM     37  H   UNL     1       5.548   2.773  17.926  0.00  0.00    +0.000 HD
ENDBRANCH  27  36
ENDBRANCH   8  27
TORSDOF 8
ENDMDL
MODEL 7
REMARK VINA RESULT:      -8.2      0.882      1.160
REMARK  Name = 
REMARK  8 active torsions:
REMARK  status: ('A' for Active; 'I' for Inactive)
REMARK    1  A    between atoms: C_2  and  C_4
REMARK    2  A    between atoms: C_4  and  C_5
REMARK    3  A    between atoms: C_9  and  C_10
REMARK    4  A    between atoms: C_10  and  O_12
REMARK    5  A    between atoms: C_20  and  C_21
REMARK    6  A    between atoms: C_21  and  O_22
REMARK    7  A    between atoms: C_21  and  C_23
REMARK    8  A    between atoms: C_21  and  C_27
REMARK                            x       y       z     vdW  Elec       q    Type
REMARK                         _______ _______ _______ _____ _____    ______ ____
ROOT
ATOM      1  C   UNL     1      -0.413  10.784  19.819  0.00  0.00    +0.000 C 
ATOM      2  C   UNL     1      -0.380   9.528  20.734  0.00  0.00    +0.000 C 
ATOM      3  C   UNL     1       1.074   9.045  20.874  0.00  0.00    +0.000 C 
ATOM      4  N   UNL     1       1.515   8.627  19.554  0.00  0.00    +0.000 N 
ATOM      5  C   UNL     1       2.003   7.384  19.282  0.00  0.00    +0.000 A 
ATOM      6  N   UNL     1       2.426   7.002  18.094  0.00  0.00    +0.000 NA
ATOM      7  C   UNL     1       2.830   5.684  18.099  0.00  0.00    +0.000 A 
ATOM      8  C   UNL     1       2.715   5.016  19.306  0.00  0.00    +0.000 A 
ATOM      9  S   UNL     1       2.078   6.114  20.456  0.00  0.00    +0.000 S 
ATOM     10  C   UNL     1       1.578   9.684  18.546  0.00  0.00    +0.000 C 
ATOM     11  C   UNL     1       0.222  10.396  18.454  0.00  0.00    +0.000 C 
ENDROOT
BRANCH   1  12
ATOM     12  C   UNL     1      -1.802  11.385  19.496  0.00  0.00    +0.000 A 
ATOM     13  C   UNL     1      -2.380  12.292  20.417  0.00  0.00    +0.000 A 
ATOM     14  C   UNL     1      -3.665  12.801  20.245  0.00  0.00    +0.000 A 
ATOM     15  C   UNL     1      -4.380  12.472  19.105  0.00  0.00    +0.000 A 
ATOM     16  C   UNL     1      -3.793  11.665  18.123  0.00  0.00    +0.000 A 
ATOM     17  C   UNL     1      -2.513  11.108  18.320  0.00  0.00    +0.000 A 
BRANCH  16  18
ATOM     18  C   UNL     1      -4.593  11.392  16.907  0.00  0.00    +0.000 C 
ATOM     19  O   UNL     1      -4.096  11.015  15.861  0.00  0.00    +0.000 OA
BRANCH  18  20
ATOM     20  O   UNL     1      -5.920  11.550  17.089  0.00  0.00    +0.000 OA
ATOM     21  H   UNL     1      -6.476  10.880  16.649  0.00  0.00    +0.000 HD
ENDBRANCH  18  20
ENDBRANCH  16  18
ENDBRANCH   1  12
BRANCH   1  23
ATOM     22  N   UNL     1       1.066  12.771  19.818  0.00  0.00    +0.000 N 
ATOM     23  C   UNL     1       0.399  11.853  20.599  0.00  0.00    +0.000 C 
ATOM     24  O   UNL     1       0.470  11.912  21.823  0.00  0.00    +0.000 OA
ATOM     25  H   UNL     1       1.687  13.416  20.290  0.00  0.00    +0.000 HD
ATOM     26  H   UNL     1       1.286  12.553  18.854  0.00  0.00    +0.000 HD
ENDBRANCH   1  23
BRANCH   8  27
ATOM     27  C   UNL     1       3.067   3.567  19.651  0.00  0.00    +0.000 C 
BRANCH  27  28
ATOM     28  C   UNL     1       2.535   3.185  21.054  0.00  0.00    +0.000 C 
ATOM     29  F   UNL     1       3.178   2.107  21.572  0.00  0.00    +0.000 F 
ATOM     30  F   UNL     1       2.579   4.142  21.996  0.00  0.00    +0.000 F 
ATOM     31  F   UNL     1       1.229   2.803  20.959  0.00  0.00    +0.000 F 
ENDBRANCH  27  28
BRANCH  27  32
ATOM     32  C   UNL     1       2.532   2.594  18.569  0.00  0.00    +0.000 C 
ATOM     33  F   UNL     1       1.283   2.931  18.151  0.00  0.00    +0.000 F 
ATOM     34  F   UNL     1       3.306   2.620  17.453  0.00  0.00    +0.000 F 
ATOM     35  F   UNL     1       2.453   1.302  18.942  0.00  0.00    +0.000 F 
ENDBRANCH  27  32
BRANCH  27  36
ATOM     36  O   UNL     1       4.537   3.503  19.666  0.00  0.00    +0.000 OA
ATOM     37  H   UNL     1       4.859   4.086  18.952  0.00  0.00    +0.000 HD
ENDBRANCH  27  36
ENDBRANCH   8  27
TORSDOF 8
ENDMDL
MODEL 8
REMARK VINA RESULT:      -8.1      1.298      1.839
REMARK  Name = 
REMARK  8 active torsions:
REMARK  status: ('A' for Active; 'I' for Inactive)
REMARK    1  A    between atoms: C_2  and  C_4
REMARK    2  A    between atoms: C_4  and  C_5
REMARK    3  A    between atoms: C_9  and  C_10
REMARK    4  A    between atoms: C_10  and  O_12
REMARK    5  A    between atoms: C_20  and  C_21
REMARK    6  A    between atoms: C_21  and  O_22
REMARK    7  A    between atoms: C_21  and  C_23
REMARK    8  A    between atoms: C_21  and  C_27
REMARK                            x       y       z     vdW  Elec       q    Type
REMARK                         _______ _______ _______ _____ _____    ______ ____
ROOT
ATOM      1  C   UNL     1      -0.003  10.284  19.498  0.00  0.00    +0.000 C 
ATOM      2  C   UNL     1       0.100   9.045  20.430  0.00  0.00    +0.000 C 
ATOM      3  C   UNL     1       1.573   8.608  20.528  0.00  0.00    +0.000 C 
ATOM      4  N   UNL     1       1.982   8.183  19.200  0.00  0.00    +0.000 N 
ATOM      5  C   UNL     1       2.498   6.952  18.930  0.00  0.00    +0.000 A 
ATOM      6  N   UNL     1       2.893   6.563  17.735  0.00  0.00    +0.000 NA
ATOM      7  C   UNL     1       3.338   5.258  17.746  0.00  0.00    +0.000 A 
ATOM      8  C   UNL     1       3.285   4.607  18.966  0.00  0.00    +0.000 A 
ATOM      9  S   UNL     1       2.653   5.703  20.121  0.00  0.00    +0.000 S 
ATOM     10  C   UNL     1       1.977   9.225  18.175  0.00  0.00    +0.000 C 
ATOM     11  C   UNL     1       0.598   9.893  18.118  0.00  0.00    +0.000 C 
ENDROOT
BRANCH   1  12
ATOM     12  C   UNL     1      -1.420  10.836  19.214  0.00  0.00    +0.000 A 
ATOM     13  C   UNL     1      -2.136  10.327  18.103  0.00  0.00    +0.000 A 
ATOM     14  C   UNL     1      -3.375  10.840  17.726  0.00  0.00    +0.000 A 
ATOM     15  C   UNL     1      -3.967  11.827  18.498  0.00  0.00    +0.000 A 
ATOM     16  C   UNL     1      -3.333  12.273  19.664  0.00  0.00    +0.000 A 
ATOM     17  C   UNL     1      -2.057  11.792  20.018  0.00  0.00    +0.000 A 
BRANCH  16  18
ATOM     18  C   UNL     1      -4.042  13.294  20.468  0.00  0.00    +0.000 C 
ATOM     19  O   UNL     1      -3.966  13.348  21.683  0.00  0.00    +0.000 OA
BRANCH  18  20
ATOM     20  O   UNL     1      -4.730  14.183  19.724  0.00  0.00    +0.000 OA
ATOM     21  H   UNL     1      -4.765  15.086  20.092  0.00  0.00    +0.000 HD
ENDBRANCH  18  20
ENDBRANCH  16  18
ENDBRANCH   1  12
BRANCH   1  23
ATOM     22  N   UNL     1       1.394  12.328  19.417  0.00  0.00    +0.000 N 
ATOM     23  C   UNL     1       0.801  11.390  20.234  0.00  0.00    +0.000 C 
ATOM     24  O   UNL     1       0.927  11.460  21.453  0.00  0.00    +0.000 OA
ATOM     25  H   UNL     1       2.010  13.000  19.856  0.00  0.00    +0.000 HD
ATOM     26  H   UNL     1       1.577  12.112  18.446  0.00  0.00    +0.000 HD
ENDBRANCH   1  23
BRANCH   8  27
ATOM     27  C   UNL     1       3.693   3.175  19.321  0.00  0.00    +0.000 C 
BRANCH  27  28
ATOM     28  C   UNL     1       3.035   2.723  20.648  0.00  0.00    +0.000 C 
ATOM     29  F   UNL     1       3.812   1.844  21.333  0.00  0.00    +0.000 F 
ATOM     30  F   UNL     1       2.703   3.692  21.517  0.00  0.00    +0.000 F 
ATOM     31  F   UNL     1       1.886   2.040  20.378  0.00  0.00    +0.000 F 
ENDBRANCH  27  28
BRANCH  27  32
ATOM     32  C   UNL     1       3.348   2.199  18.167  0.00  0.00    +0.000 C 
ATOM     33  F   UNL     1       4.150   2.380  17.086  0.00  0.00    +0.000 F 
ATOM     34  F   UNL     1       3.530   0.905  18.541  0.00  0.00    +0.000 F 
ATOM     35  F   UNL     1       2.086   2.280  17.700  0.00  0.00    +0.000 F 
ENDBRANCH  27  32
BRANCH  27  36
ATOM     36  O   UNL     1       5.153   3.206  19.500  0.00  0.00    +0.000 OA
ATOM     37  H   UNL     1       5.553   3.248  18.610  0.00  0.00    +0.000 HD
ENDBRANCH  27  36
ENDBRANCH   8  27
TORSDOF 8
ENDMDL
MODEL 9
REMARK VINA RESULT:      -8.1      8.290     10.796
REMARK  Name = 
REMARK  8 active torsions:
REMARK  status: ('A' for Active; 'I' for Inactive)
REMARK    1  A    between atoms: C_2  and  C_4
REMARK    2  A    between atoms: C_4  and  C_5
REMARK    3  A    between atoms: C_9  and  C_10
REMARK    4  A    between atoms: C_10  and  O_12
REMARK    5  A    between atoms: C_20  and  C_21
REMARK    6  A    between atoms: C_21  and  O_22
REMARK    7  A    between atoms: C_21  and  C_23
REMARK    8  A    between atoms: C_21  and  C_27
REMARK                            x       y       z     vdW  Elec       q    Type
REMARK                         _______ _______ _______ _____ _____    ______ ____
ROOT
ATOM      1  C   UNL     1       6.108   5.740  17.571  0.00  0.00    +0.000 C 
ATOM      2  C   UNL     1       6.115   7.111  16.838  0.00  0.00    +0.000 C 
ATOM      3  C   UNL     1       7.566   7.609  16.716  0.00  0.00    +0.000 C 
ATOM      4  N   UNL     1       8.053   7.842  18.065  0.00  0.00    +0.000 N 
ATOM      5  C   UNL     1       8.555   9.035  18.489  0.00  0.00    +0.000 A 
ATOM      6  N   UNL     1       9.021   9.251  19.702  0.00  0.00    +0.000 NA
ATOM      7  C   UNL     1       9.429  10.557  19.865  0.00  0.00    +0.000 A 
ATOM      8  C   UNL     1       9.276  11.384  18.766  0.00  0.00    +0.000 A 
ATOM      9  S   UNL     1       8.596  10.456  17.498  0.00  0.00    +0.000 S 
ATOM     10  C   UNL     1       8.146   6.656  18.914  0.00  0.00    +0.000 C 
ATOM     11  C   UNL     1       6.791   5.937  18.954  0.00  0.00    +0.000 C 
ENDROOT
BRANCH   1  12
ATOM     12  C   UNL     1       4.728   5.101  17.856  0.00  0.00    +0.000 A 
ATOM     13  C   UNL     1       3.591   5.942  17.921  0.00  0.00    +0.000 A 
ATOM     14  C   UNL     1       2.332   5.456  18.266  0.00  0.00    +0.000 A 
ATOM     15  C   UNL     1       2.163   4.098  18.484  0.00  0.00    +0.000 A 
ATOM     16  C   UNL     1       3.246   3.226  18.318  0.00  0.00    +0.000 A 
ATOM     17  C   UNL     1       4.530   3.722  18.020  0.00  0.00    +0.000 A 
BRANCH  16  18
ATOM     18  C   UNL     1       2.985   1.782  18.517  0.00  0.00    +0.000 C 
ATOM     19  O   UNL     1       3.876   0.953  18.578  0.00  0.00    +0.000 OA
BRANCH  18  20
ATOM     20  O   UNL     1       1.679   1.488  18.676  0.00  0.00    +0.000 OA
ATOM     21  H   UNL     1       1.190   1.334  17.845  0.00  0.00    +0.000 HD
ENDBRANCH  18  20
ENDBRANCH  16  18
ENDBRANCH   1  12
BRANCH   1  23
ATOM     22  N   UNL     1       6.356   4.649  15.361  0.00  0.00    +0.000 N 
ATOM     23  C   UNL     1       6.889   4.789  16.624  0.00  0.00    +0.000 C 
ATOM     24  O   UNL     1       7.910   4.185  16.937  0.00  0.00    +0.000 OA
ATOM     25  H   UNL     1       6.778   3.959  14.755  0.00  0.00    +0.000 HD
ATOM     26  H   UNL     1       5.380   4.861  15.196  0.00  0.00    +0.000 HD
ENDBRANCH   1  23
BRANCH   8  27
ATOM     27  C   UNL     1       9.622  12.868  18.612  0.00  0.00    +0.000 C 
BRANCH  27  28
ATOM     28  C   UNL     1       9.126  13.682  19.832  0.00  0.00    +0.000 C 
ATOM     29  F   UNL     1       7.772  13.780  19.868  0.00  0.00    +0.000 F 
ATOM     30  F   UNL     1       9.507  13.246  21.044  0.00  0.00    +0.000 F 
ATOM     31  F   UNL     1       9.567  14.969  19.732  0.00  0.00    +0.000 F 
ENDBRANCH  27  28
BRANCH  27  32
ATOM     32  C   UNL     1      11.145  13.062  18.395  0.00  0.00    +0.000 C 
ATOM     33  F   UNL     1      11.681  12.081  17.623  0.00  0.00    +0.000 F 
ATOM     34  F   UNL     1      11.409  14.223  17.741  0.00  0.00    +0.000 F 
ATOM     35  F   UNL     1      11.890  13.086  19.518  0.00  0.00    +0.000 F 
ENDBRANCH  27  32
BRANCH  27  36
ATOM     36  O   UNL     1       8.907  13.325  17.410  0.00  0.00    +0.000 OA
ATOM     37  H   UNL     1       8.265  12.628  17.173  0.00  0.00    +0.000 HD
ENDBRANCH  27  36
ENDBRANCH   8  27
TORSDOF 8
ENDMDL
