MODEL 1
REMARK VINA RESULT:      -7.6      0.000      0.000
REMARK  Name = 
REMARK  8 active torsions:
REMARK  status: ('A' for Active; 'I' for Inactive)
REMARK    1  A    between atoms: C_1  and  O_2
REMARK    2  A    between atoms: O_2  and  C_3
REMARK    3  A    between atoms: C_9  and  C_10
REMARK    4  A    between atoms: C_13  and  S_14
REMARK    5  A    between atoms: S_14  and  C_15
REMARK    6  A    between atoms: C_15  and  C_16
REMARK    7  A    between atoms: C_16  and  C_18
REMARK    8  A    between atoms: N_25  and  C_26
REMARK                            x       y       z     vdW  Elec       q    Type
REMARK                         _______ _______ _______ _____ _____    ______ ____
ROOT
ATOM      1  C   UNL     1       1.320   9.233  18.758  0.00  0.00    +0.000 A 
ATOM      2  N   UNL     1       1.849   9.366  17.555  0.00  0.00    +0.000 NA
ATOM      3  N   UNL     1       2.841   8.425  17.410  0.00  0.00    +0.000 NA
ATOM      4  C   UNL     1       2.878   7.721  18.515  0.00  0.00    +0.000 A 
ATOM      5  N   UNL     1       1.923   8.166  19.388  0.00  0.00    +0.000 N 
ATOM      6  C   UNL     1       1.599   7.626  20.684  0.00  0.00    +0.000 C 
ENDROOT
BRANCH   1  13
ATOM      7  C   UNL     1      -2.738  13.236  21.368  0.00  0.00    +0.000 A 
ATOM      8  C   UNL     1      -3.425  12.957  20.195  0.00  0.00    +0.000 A 
ATOM      9  C   UNL     1      -2.904  12.043  19.267  0.00  0.00    +0.000 A 
ATOM     10  C   UNL     1      -1.654  11.409  19.493  0.00  0.00    +0.000 A 
ATOM     11  C   UNL     1      -0.916  10.437  18.721  0.00  0.00    +0.000 A 
ATOM     12 CL   UNL     1      -1.556   9.778  17.264  0.00  0.00    +0.000 Cl
ATOM     13  C   UNL     1       0.303  10.104  19.284  0.00  0.00    +0.000 A 
ATOM     14  S   UNL     1       0.550  10.963  20.744  0.00  0.00    +0.000 S 
ATOM     15  C   UNL     1      -0.966  11.749  20.658  0.00  0.00    +0.000 A 
ATOM     16  C   UNL     1      -1.496  12.647  21.604  0.00  0.00    +0.000 A 
BRANCH   7  18
ATOM     17  C   UNL     1      -2.140  14.880  22.957  0.00  0.00    +0.000 C 
ATOM     18  O   UNL     1      -3.159  14.096  22.346  0.00  0.00    +0.000 OA
ENDBRANCH   7  18
ENDBRANCH   1  13
BRANCH   4  19
ATOM     19  S   UNL     1       3.936   6.395  18.840  0.00  0.00    +0.000 S 
BRANCH  19  20
ATOM     20  C   UNL     1       3.694   5.396  17.350  0.00  0.00    +0.000 C 
BRANCH  20  21
ATOM     21  C   UNL     1       3.573   3.905  17.637  0.00  0.00    +0.000 C 
ATOM     22  O   UNL     1       4.083   3.031  16.939  0.00  0.00    +0.000 OA
BRANCH  21  23
ATOM     23  C   UNL     1       2.808   3.495  18.862  0.00  0.00    +0.000 A 
ATOM     24  C   UNL     1       1.418   3.664  18.967  0.00  0.00    +0.000 A 
ATOM     25  C   UNL     1       0.754   3.325  20.150  0.00  0.00    +0.000 A 
ATOM     26  C   UNL     1       1.473   2.807  21.220  0.00  0.00    +0.000 A 
ATOM     27  F   UNL     1       0.833   2.497  22.355  0.00  0.00    +0.000 F 
ATOM     28  C   UNL     1       2.844   2.612  21.129  0.00  0.00    +0.000 A 
ATOM     29  C   UNL     1       3.513   2.956  19.950  0.00  0.00    +0.000 A 
ENDBRANCH  21  23
ENDBRANCH  20  21
ENDBRANCH  19  20
ENDBRANCH   4  19
TORSDOF 6
ENDMDL
MODEL 2
REMARK VINA RESULT:      -7.6      3.150      9.370
REMARK  Name = 
REMARK  8 active torsions:
REMARK  status: ('A' for Active; 'I' for Inactive)
REMARK    1  A    between atoms: C_1  and  O_2
REMARK    2  A    between atoms: O_2  and  C_3
REMARK    3  A    between atoms: C_9  and  C_10
REMARK    4  A    between atoms: C_13  and  S_14
REMARK    5  A    between atoms: S_14  and  C_15
REMARK    6  A    between atoms: C_15  and  C_16
REMARK    7  A    between atoms: C_16  and  C_18
REMARK    8  A    between atoms: N_25  and  C_26
REMARK                            x       y       z     vdW  Elec       q    Type
REMARK                         _______ _______ _______ _____ _____    ______ ____
ROOT
ATOM      1  C   UNL     1       1.860   7.990  19.735  0.00  0.00    +0.000 A 
ATOM      2  N   UNL     1       1.521   7.862  21.006  0.00  0.00    +0.000 NA
ATOM      3  N   UNL     1       0.976   9.049  21.432  0.00  0.00    +0.000 NA
ATOM      4  C   UNL     1       0.968   9.868  20.407  0.00  0.00    +0.000 A 
ATOM      5  N   UNL     1       1.486   9.244  19.304  0.00  0.00    +0.000 N 
ATOM      6  C   UNL     1       1.601   9.774  17.970  0.00  0.00    +0.000 C 
ENDROOT
BRANCH   1  13
ATOM      7  C   UNL     1       5.148   3.897  16.309  0.00  0.00    +0.000 A 
ATOM      8  C   UNL     1       4.464   3.005  17.124  0.00  0.00    +0.000 A 
ATOM      9  C   UNL     1       3.541   3.473  18.070  0.00  0.00    +0.000 A 
ATOM     10  C   UNL     1       3.309   4.864  18.235  0.00  0.00    +0.000 A 
ATOM     11  C   UNL     1       2.419   5.593  19.107  0.00  0.00    +0.000 A 
ATOM     12 CL   UNL     1       1.329   4.775  20.160  0.00  0.00    +0.000 Cl
ATOM     13  C   UNL     1       2.533   6.966  18.981  0.00  0.00    +0.000 A 
ATOM     14  S   UNL     1       3.711   7.369  17.808  0.00  0.00    +0.000 S 
ATOM     15  C   UNL     1       4.049   5.735  17.435  0.00  0.00    +0.000 A 
ATOM     16  C   UNL     1       4.959   5.269  16.467  0.00  0.00    +0.000 A 
BRANCH   7  18
ATOM     17  C   UNL     1       5.822   4.099  14.053  0.00  0.00    +0.000 C 
ATOM     18  O   UNL     1       6.057   3.551  15.346  0.00  0.00    +0.000 OA
ENDBRANCH   7  18
ENDBRANCH   1  13
BRANCH   4  19
ATOM     19  S   UNL     1       0.364  11.486  20.403  0.00  0.00    +0.000 S 
BRANCH  19  20
ATOM     20  C   UNL     1      -1.414  11.183  20.561  0.00  0.00    +0.000 C 
BRANCH  20  21
ATOM     21  C   UNL     1      -2.257  12.049  19.633  0.00  0.00    +0.000 C 
ATOM     22  O   UNL     1      -2.552  13.218  19.870  0.00  0.00    +0.000 OA
BRANCH  21  23
ATOM     23  C   UNL     1      -2.724  11.433  18.346  0.00  0.00    +0.000 A 
ATOM     24  C   UNL     1      -1.906  10.586  17.581  0.00  0.00    +0.000 A 
ATOM     25  C   UNL     1      -2.359  10.084  16.358  0.00  0.00    +0.000 A 
ATOM     26  C   UNL     1      -3.630  10.415  15.905  0.00  0.00    +0.000 A 
ATOM     27  F   UNL     1      -4.054   9.942  14.726  0.00  0.00    +0.000 F 
ATOM     28  C   UNL     1      -4.463  11.234  16.657  0.00  0.00    +0.000 A 
ATOM     29  C   UNL     1      -4.011  11.743  17.878  0.00  0.00    +0.000 A 
ENDBRANCH  21  23
ENDBRANCH  20  21
ENDBRANCH  19  20
ENDBRANCH   4  19
TORSDOF 6
ENDMDL
MODEL 3
REMARK VINA RESULT:      -7.5      2.663      3.653
REMARK  Name = 
REMARK  8 active torsions:
REMARK  status: ('A' for Active; 'I' for Inactive)
REMARK    1  A    between atoms: C_1  and  O_2
REMARK    2  A    between atoms: O_2  and  C_3
REMARK    3  A    between atoms: C_9  and  C_10
REMARK    4  A    between atoms: C_13  and  S_14
REMARK    5  A    between atoms: S_14  and  C_15
REMARK    6  A    between atoms: C_15  and  C_16
REMARK    7  A    between atoms: C_16  and  C_18
REMARK    8  A    between atoms: N_25  and  C_26
REMARK                            x       y       z     vdW  Elec       q    Type
REMARK                         _______ _______ _______ _____ _____    ______ ____
ROOT
ATOM      1  C   UNL     1       1.394   8.926  19.114  0.00  0.00    +0.000 A 
ATOM      2  N   UNL     1       2.005   9.026  17.947  0.00  0.00    +0.000 NA
ATOM      3  N   UNL     1       2.852   7.952  17.807  0.00  0.00    +0.000 NA
ATOM      4  C   UNL     1       2.719   7.205  18.877  0.00  0.00    +0.000 A 
ATOM      5  N   UNL     1       1.793   7.755  19.721  0.00  0.00    +0.000 N 
ATOM      6  C   UNL     1       1.317   7.218  20.971  0.00  0.00    +0.000 C 
ENDROOT
BRANCH   1  13
ATOM      7  C   UNL     1      -2.155  13.406  21.691  0.00  0.00    +0.000 A 
ATOM      8  C   UNL     1      -2.844  13.236  20.497  0.00  0.00    +0.000 A 
ATOM      9  C   UNL     1      -2.426  12.272  19.568  0.00  0.00    +0.000 A 
ATOM     10  C   UNL     1      -1.279  11.473  19.813  0.00  0.00    +0.000 A 
ATOM     11  C   UNL     1      -0.659  10.420  19.044  0.00  0.00    +0.000 A 
ATOM     12 CL   UNL     1      -1.345   9.871  17.562  0.00  0.00    +0.000 Cl
ATOM     13  C   UNL     1       0.490   9.919  19.630  0.00  0.00    +0.000 A 
ATOM     14  S   UNL     1       0.813  10.719  21.108  0.00  0.00    +0.000 S 
ATOM     15  C   UNL     1      -0.581  11.703  20.999  0.00  0.00    +0.000 A 
ATOM     16  C   UNL     1      -1.010  12.652  21.946  0.00  0.00    +0.000 A 
BRANCH   7  18
ATOM     17  C   UNL     1      -3.807  14.818  22.620  0.00  0.00    +0.000 C 
ATOM     18  O   UNL     1      -2.482  14.302  22.672  0.00  0.00    +0.000 OA
ENDBRANCH   7  18
ENDBRANCH   1  13
BRANCH   4  19
ATOM     19  S   UNL     1       3.546   5.722  19.190  0.00  0.00    +0.000 S 
BRANCH  19  20
ATOM     20  C   UNL     1       3.435   4.924  17.569  0.00  0.00    +0.000 C 
BRANCH  20  21
ATOM     21  C   UNL     1       4.785   4.765  16.882  0.00  0.00    +0.000 C 
ATOM     22  O   UNL     1       4.978   4.033  15.914  0.00  0.00    +0.000 OA
BRANCH  21  23
ATOM     23  C   UNL     1       5.932   5.575  17.413  0.00  0.00    +0.000 A 
ATOM     24  C   UNL     1       6.759   5.114  18.450  0.00  0.00    +0.000 A 
ATOM     25  C   UNL     1       7.778   5.927  18.955  0.00  0.00    +0.000 A 
ATOM     26  C   UNL     1       7.980   7.192  18.418  0.00  0.00    +0.000 A 
ATOM     27  F   UNL     1       8.949   7.972  18.915  0.00  0.00    +0.000 F 
ATOM     28  C   UNL     1       7.188   7.659  17.378  0.00  0.00    +0.000 A 
ATOM     29  C   UNL     1       6.164   6.851  16.874  0.00  0.00    +0.000 A 
ENDBRANCH  21  23
ENDBRANCH  20  21
ENDBRANCH  19  20
ENDBRANCH   4  19
TORSDOF 6
ENDMDL
MODEL 4
REMARK VINA RESULT:      -7.4      2.995      3.886
REMARK  Name = 
REMARK  8 active torsions:
REMARK  status: ('A' for Active; 'I' for Inactive)
REMARK    1  A    between atoms: C_1  and  O_2
REMARK    2  A    between atoms: O_2  and  C_3
REMARK    3  A    between atoms: C_9  and  C_10
REMARK    4  A    between atoms: C_13  and  S_14
REMARK    5  A    between atoms: S_14  and  C_15
REMARK    6  A    between atoms: C_15  and  C_16
REMARK    7  A    between atoms: C_16  and  C_18
REMARK    8  A    between atoms: N_25  and  C_26
REMARK                            x       y       z     vdW  Elec       q    Type
REMARK                         _______ _______ _______ _____ _____    ______ ____
ROOT
ATOM      1  C   UNL     1       1.375   9.601  18.722  0.00  0.00    +0.000 A 
ATOM      2  N   UNL     1       1.848   9.326  17.519  0.00  0.00    +0.000 NA
ATOM      3  N   UNL     1       2.473   8.103  17.567  0.00  0.00    +0.000 NA
ATOM      4  C   UNL     1       2.346   7.644  18.788  0.00  0.00    +0.000 A 
ATOM      5  N   UNL     1       1.637   8.533  19.552  0.00  0.00    +0.000 N 
ATOM      6  C   UNL     1       1.233   8.381  20.927  0.00  0.00    +0.000 C 
ENDROOT
BRANCH   1  13
ATOM      7  C   UNL     1      -1.779  14.715  20.512  0.00  0.00    +0.000 A 
ATOM      8  C   UNL     1      -0.604  15.317  20.084  0.00  0.00    +0.000 A 
ATOM      9  C   UNL     1       0.433  14.544  19.542  0.00  0.00    +0.000 A 
ATOM     10  C   UNL     1       0.316  13.133  19.447  0.00  0.00    +0.000 A 
ATOM     11  C   UNL     1       1.212  12.128  18.924  0.00  0.00    +0.000 A 
ATOM     12 CL   UNL     1       2.711  12.557  18.194  0.00  0.00    +0.000 Cl
ATOM     13  C   UNL     1       0.726  10.839  19.062  0.00  0.00    +0.000 A 
ATOM     14  S   UNL     1      -0.810  10.849  19.816  0.00  0.00    +0.000 S 
ATOM     15  C   UNL     1      -0.857  12.554  19.931  0.00  0.00    +0.000 A 
ATOM     16  C   UNL     1      -1.911  13.328  20.454  0.00  0.00    +0.000 A 
BRANCH   7  18
ATOM     17  C   UNL     1      -3.014  16.726  20.637  0.00  0.00    +0.000 C 
ATOM     18  O   UNL     1      -2.857  15.370  21.042  0.00  0.00    +0.000 OA
ENDBRANCH   7  18
ENDBRANCH   1  13
BRANCH   4  19
ATOM     19  S   UNL     1       2.937   6.131  19.373  0.00  0.00    +0.000 S 
BRANCH  19  20
ATOM     20  C   UNL     1       2.926   5.153  17.850  0.00  0.00    +0.000 C 
BRANCH  20  21
ATOM     21  C   UNL     1       4.272   4.515  17.534  0.00  0.00    +0.000 C 
ATOM     22  O   UNL     1       4.400   3.397  17.038  0.00  0.00    +0.000 OA
BRANCH  21  23
ATOM     23  C   UNL     1       5.505   5.321  17.823  0.00  0.00    +0.000 A 
ATOM     24  C   UNL     1       6.392   4.986  18.859  0.00  0.00    +0.000 A 
ATOM     25  C   UNL     1       7.496   5.798  19.134  0.00  0.00    +0.000 A 
ATOM     26  C   UNL     1       7.722   6.936  18.369  0.00  0.00    +0.000 A 
ATOM     27  F   UNL     1       8.773   7.718  18.645  0.00  0.00    +0.000 F 
ATOM     28  C   UNL     1       6.869   7.273  17.326  0.00  0.00    +0.000 A 
ATOM     29  C   UNL     1       5.761   6.466  17.052  0.00  0.00    +0.000 A 
ENDBRANCH  21  23
ENDBRANCH  20  21
ENDBRANCH  19  20
ENDBRANCH   4  19
TORSDOF 6
ENDMDL
MODEL 5
REMARK VINA RESULT:      -7.4      3.387      9.913
REMARK  Name = 
REMARK  8 active torsions:
REMARK  status: ('A' for Active; 'I' for Inactive)
REMARK    1  A    between atoms: C_1  and  O_2
REMARK    2  A    between atoms: O_2  and  C_3
REMARK    3  A    between atoms: C_9  and  C_10
REMARK    4  A    between atoms: C_13  and  S_14
REMARK    5  A    between atoms: S_14  and  C_15
REMARK    6  A    between atoms: C_15  and  C_16
REMARK    7  A    between atoms: C_16  and  C_18
REMARK    8  A    between atoms: N_25  and  C_26
REMARK                            x       y       z     vdW  Elec       q    Type
REMARK                         _______ _______ _______ _____ _____    ______ ____
ROOT
ATOM      1  C   UNL     1       1.685   7.970  20.110  0.00  0.00    +0.000 A 
ATOM      2  N   UNL     1       1.567   7.848  21.420  0.00  0.00    +0.000 NA
ATOM      3  N   UNL     1       0.943   8.971  21.908  0.00  0.00    +0.000 NA
ATOM      4  C   UNL     1       0.668   9.743  20.883  0.00  0.00    +0.000 A 
ATOM      5  N   UNL     1       1.086   9.150  19.723  0.00  0.00    +0.000 N 
ATOM      6  C   UNL     1       0.922   9.640  18.378  0.00  0.00    +0.000 C 
ENDROOT
BRANCH   1  13
ATOM      7  C   UNL     1       4.966   4.188  16.337  0.00  0.00    +0.000 A 
ATOM      8  C   UNL     1       4.359   3.231  17.139  0.00  0.00    +0.000 A 
ATOM      9  C   UNL     1       3.466   3.614  18.149  0.00  0.00    +0.000 A 
ATOM     10  C   UNL     1       3.185   4.984  18.393  0.00  0.00    +0.000 A 
ATOM     11  C   UNL     1       2.310   5.632  19.340  0.00  0.00    +0.000 A 
ATOM     12 CL   UNL     1       1.307   4.719  20.402  0.00  0.00    +0.000 Cl
ATOM     13  C   UNL     1       2.361   7.013  19.276  0.00  0.00    +0.000 A 
ATOM     14  S   UNL     1       3.463   7.521  18.069  0.00  0.00    +0.000 S 
ATOM     15  C   UNL     1       3.849   5.922  17.602  0.00  0.00    +0.000 A 
ATOM     16  C   UNL     1       4.728   5.542  16.571  0.00  0.00    +0.000 A 
BRANCH   7  18
ATOM     17  C   UNL     1       6.722   4.991  14.975  0.00  0.00    +0.000 C 
ATOM     18  O   UNL     1       5.839   3.928  15.316  0.00  0.00    +0.000 OA
ENDBRANCH   7  18
ENDBRANCH   1  13
BRANCH   4  19
ATOM     19  S   UNL     1      -0.137  11.270  20.948  0.00  0.00    +0.000 S 
BRANCH  19  20
ATOM     20  C   UNL     1      -0.873  11.194  22.600  0.00  0.00    +0.000 C 
BRANCH  20  21
ATOM     21  C   UNL     1      -1.417  12.534  23.078  0.00  0.00    +0.000 C 
ATOM     22  O   UNL     1      -0.707  13.467  23.451  0.00  0.00    +0.000 OA
BRANCH  21  23
ATOM     23  C   UNL     1      -2.906  12.723  23.062  0.00  0.00    +0.000 A 
ATOM     24  C   UNL     1      -3.692  12.573  24.217  0.00  0.00    +0.000 A 
ATOM     25  C   UNL     1      -5.082  12.697  24.144  0.00  0.00    +0.000 A 
ATOM     26  C   UNL     1      -5.687  12.983  22.927  0.00  0.00    +0.000 A 
ATOM     27  F   UNL     1      -7.020  13.087  22.861  0.00  0.00    +0.000 F 
ATOM     28  C   UNL     1      -4.926  13.157  21.778  0.00  0.00    +0.000 A 
ATOM     29  C   UNL     1      -3.535  13.027  21.845  0.00  0.00    +0.000 A 
ENDBRANCH  21  23
ENDBRANCH  20  21
ENDBRANCH  19  20
ENDBRANCH   4  19
TORSDOF 6
ENDMDL
MODEL 6
REMARK VINA RESULT:      -7.4      4.953      6.603
REMARK  Name = 
REMARK  8 active torsions:
REMARK  status: ('A' for Active; 'I' for Inactive)
REMARK    1  A    between atoms: C_1  and  O_2
REMARK    2  A    between atoms: O_2  and  C_3
REMARK    3  A    between atoms: C_9  and  C_10
REMARK    4  A    between atoms: C_13  and  S_14
REMARK    5  A    between atoms: S_14  and  C_15
REMARK    6  A    between atoms: C_15  and  C_16
REMARK    7  A    between atoms: C_16  and  C_18
REMARK    8  A    between atoms: N_25  and  C_26
REMARK                            x       y       z     vdW  Elec       q    Type
REMARK                         _______ _______ _______ _____ _____    ______ ____
ROOT
ATOM      1  C   UNL     1       3.606   5.652  17.837  0.00  0.00    +0.000 A 
ATOM      2  N   UNL     1       3.130   4.453  17.550  0.00  0.00    +0.000 NA
ATOM      3  N   UNL     1       4.046   3.798  16.762  0.00  0.00    +0.000 NA
ATOM      4  C   UNL     1       5.073   4.598  16.607  0.00  0.00    +0.000 A 
ATOM      5  N   UNL     1       4.864   5.768  17.286  0.00  0.00    +0.000 N 
ATOM      6  C   UNL     1       5.770   6.881  17.416  0.00  0.00    +0.000 C 
ENDROOT
BRANCH   1  13
ATOM      7  C   UNL     1       0.350  10.227  20.624  0.00  0.00    +0.000 A 
ATOM      8  C   UNL     1       0.231   9.244  21.597  0.00  0.00    +0.000 A 
ATOM      9  C   UNL     1       0.853   7.999  21.429  0.00  0.00    +0.000 A 
ATOM     10  C   UNL     1       1.592   7.707  20.252  0.00  0.00    +0.000 A 
ATOM     11  C   UNL     1       2.328   6.533  19.847  0.00  0.00    +0.000 A 
ATOM     12 CL   UNL     1       2.488   5.172  20.890  0.00  0.00    +0.000 Cl
ATOM     13  C   UNL     1       2.878   6.644  18.582  0.00  0.00    +0.000 A 
ATOM     14  S   UNL     1       2.507   8.165  17.892  0.00  0.00    +0.000 S 
ATOM     15  C   UNL     1       1.651   8.698  19.273  0.00  0.00    +0.000 A 
ATOM     16  C   UNL     1       1.048   9.958  19.447  0.00  0.00    +0.000 A 
BRANCH   7  18
ATOM     17  C   UNL     1      -1.249  11.739  19.765  0.00  0.00    +0.000 C 
ATOM     18  O   UNL     1      -0.200  11.478  20.690  0.00  0.00    +0.000 OA
ENDBRANCH   7  18
ENDBRANCH   1  13
BRANCH   4  19
ATOM     19  S   UNL     1       6.511   4.247  15.717  0.00  0.00    +0.000 S 
BRANCH  19  20
ATOM     20  C   UNL     1       6.335   5.390  14.324  0.00  0.00    +0.000 C 
BRANCH  20  21
ATOM     21  C   UNL     1       7.173   5.000  13.114  0.00  0.00    +0.000 C 
ATOM     22  O   UNL     1       8.158   5.629  12.733  0.00  0.00    +0.000 OA
BRANCH  21  23
ATOM     23  C   UNL     1       6.779   3.757  12.370  0.00  0.00    +0.000 A 
ATOM     24  C   UNL     1       5.438   3.365  12.224  0.00  0.00    +0.000 A 
ATOM     25  C   UNL     1       5.119   2.168  11.577  0.00  0.00    +0.000 A 
ATOM     26  C   UNL     1       6.134   1.370  11.064  0.00  0.00    +0.000 A 
ATOM     27  F   UNL     1       5.824   0.218  10.457  0.00  0.00    +0.000 F 
ATOM     28  C   UNL     1       7.465   1.750  11.178  0.00  0.00    +0.000 A 
ATOM     29  C   UNL     1       7.788   2.944  11.831  0.00  0.00    +0.000 A 
ENDBRANCH  21  23
ENDBRANCH  20  21
ENDBRANCH  19  20
ENDBRANCH   4  19
TORSDOF 6
ENDMDL
MODEL 7
REMARK VINA RESULT:      -7.4      3.648      4.454
REMARK  Name = 
REMARK  8 active torsions:
REMARK  status: ('A' for Active; 'I' for Inactive)
REMARK    1  A    between atoms: C_1  and  O_2
REMARK    2  A    between atoms: O_2  and  C_3
REMARK    3  A    between atoms: C_9  and  C_10
REMARK    4  A    between atoms: C_13  and  S_14
REMARK    5  A    between atoms: S_14  and  C_15
REMARK    6  A    between atoms: C_15  and  C_16
REMARK    7  A    between atoms: C_16  and  C_18
REMARK    8  A    between atoms: N_25  and  C_26
REMARK                            x       y       z     vdW  Elec       q    Type
REMARK                         _______ _______ _______ _____ _____    ______ ____
ROOT
ATOM      1  C   UNL     1       1.728   9.367  18.620  0.00  0.00    +0.000 A 
ATOM      2  N   UNL     1       2.071   8.782  17.487  0.00  0.00    +0.000 NA
ATOM      3  N   UNL     1       2.385   7.470  17.753  0.00  0.00    +0.000 NA
ATOM      4  C   UNL     1       2.200   7.275  19.036  0.00  0.00    +0.000 A 
ATOM      5  N   UNL     1       1.758   8.427  19.628  0.00  0.00    +0.000 N 
ATOM      6  C   UNL     1       1.384   8.618  21.006  0.00  0.00    +0.000 C 
ENDROOT
BRANCH   1  13
ATOM      7  C   UNL     1       0.770  15.560  18.813  0.00  0.00    +0.000 A 
ATOM      8  C   UNL     1      -0.509  15.127  19.135  0.00  0.00    +0.000 A 
ATOM      9  C   UNL     1      -0.786  13.758  19.252  0.00  0.00    +0.000 A 
ATOM     10  C   UNL     1       0.223  12.787  19.017  0.00  0.00    +0.000 A 
ATOM     11  C   UNL     1       0.204  11.345  19.086  0.00  0.00    +0.000 A 
ATOM     12 CL   UNL     1      -1.205  10.491  19.588  0.00  0.00    +0.000 Cl
ATOM     13  C   UNL     1       1.410  10.766  18.733  0.00  0.00    +0.000 A 
ATOM     14  S   UNL     1       2.560  11.965  18.325  0.00  0.00    +0.000 S 
ATOM     15  C   UNL     1       1.484  13.254  18.647  0.00  0.00    +0.000 A 
ATOM     16  C   UNL     1       1.774  14.628  18.551  0.00  0.00    +0.000 A 
BRANCH   7  18
ATOM     17  C   UNL     1       2.217  17.281  19.540  0.00  0.00    +0.000 C 
ATOM     18  O   UNL     1       1.156  16.867  18.687  0.00  0.00    +0.000 OA
ENDBRANCH   7  18
ENDBRANCH   1  13
BRANCH   4  19
ATOM     19  S   UNL     1       2.432   5.787  19.882  0.00  0.00    +0.000 S 
BRANCH  19  20
ATOM     20  C   UNL     1       3.234   4.791  18.600  0.00  0.00    +0.000 C 
BRANCH  20  21
ATOM     21  C   UNL     1       4.682   4.448  18.921  0.00  0.00    +0.000 C 
ATOM     22  O   UNL     1       5.032   3.409  19.477  0.00  0.00    +0.000 OA
BRANCH  21  23
ATOM     23  C   UNL     1       5.736   5.433  18.505  0.00  0.00    +0.000 A 
ATOM     24  C   UNL     1       6.971   5.532  19.167  0.00  0.00    +0.000 A 
ATOM     25  C   UNL     1       7.900   6.505  18.786  0.00  0.00    +0.000 A 
ATOM     26  C   UNL     1       7.603   7.368  17.738  0.00  0.00    +0.000 A 
ATOM     27  F   UNL     1       8.491   8.307  17.386  0.00  0.00    +0.000 F 
ATOM     28  C   UNL     1       6.397   7.272  17.056  0.00  0.00    +0.000 A 
ATOM     29  C   UNL     1       5.463   6.304  17.439  0.00  0.00    +0.000 A 
ENDBRANCH  21  23
ENDBRANCH  20  21
ENDBRANCH  19  20
ENDBRANCH   4  19
TORSDOF 6
ENDMDL
MODEL 8
REMARK VINA RESULT:      -7.3      2.675      3.741
REMARK  Name = 
REMARK  8 active torsions:
REMARK  status: ('A' for Active; 'I' for Inactive)
REMARK    1  A    between atoms: C_1  and  O_2
REMARK    2  A    between atoms: O_2  and  C_3
REMARK    3  A    between atoms: C_9  and  C_10
REMARK    4  A    between atoms: C_13  and  S_14
REMARK    5  A    between atoms: S_14  and  C_15
REMARK    6  A    between atoms: C_15  and  C_16
REMARK    7  A    between atoms: C_16  and  C_18
REMARK    8  A    between atoms: N_25  and  C_26
REMARK                            x       y       z     vdW  Elec       q    Type
REMARK                         _______ _______ _______ _____ _____    ______ ____
ROOT
ATOM      1  C   UNL     1       1.421   9.021  19.022  0.00  0.00    +0.000 A 
ATOM      2  N   UNL     1       2.013   9.153  17.848  0.00  0.00    +0.000 NA
ATOM      3  N   UNL     1       2.900   8.115  17.689  0.00  0.00    +0.000 NA
ATOM      4  C   UNL     1       2.812   7.356  18.755  0.00  0.00    +0.000 A 
ATOM      5  N   UNL     1       1.875   7.863  19.615  0.00  0.00    +0.000 N 
ATOM      6  C   UNL     1       1.439   7.299  20.868  0.00  0.00    +0.000 C 
ENDROOT
BRANCH   1  13
ATOM      7  C   UNL     1      -2.272  13.332  21.683  0.00  0.00    +0.000 A 
ATOM      8  C   UNL     1      -2.957  13.158  20.489  0.00  0.00    +0.000 A 
ATOM      9  C   UNL     1      -2.510  12.225  19.543  0.00  0.00    +0.000 A 
ATOM     10  C   UNL     1      -1.335  11.462  19.771  0.00  0.00    +0.000 A 
ATOM     11  C   UNL     1      -0.682  10.444  18.983  0.00  0.00    +0.000 A 
ATOM     12 CL   UNL     1      -1.353   9.897  17.494  0.00  0.00    +0.000 Cl
ATOM     13  C   UNL     1       0.486   9.974  19.557  0.00  0.00    +0.000 A 
ATOM     14  S   UNL     1       0.785  10.759  21.048  0.00  0.00    +0.000 S 
ATOM     15  C   UNL     1      -0.642  11.696  20.959  0.00  0.00    +0.000 A 
ATOM     16  C   UNL     1      -1.100  12.614  21.923  0.00  0.00    +0.000 A 
BRANCH   7  18
ATOM     17  C   UNL     1      -1.732  14.264  23.787  0.00  0.00    +0.000 C 
ATOM     18  O   UNL     1      -2.625  14.200  22.681  0.00  0.00    +0.000 OA
ENDBRANCH   7  18
ENDBRANCH   1  13
BRANCH   4  19
ATOM     19  S   UNL     1       3.702   5.905  19.047  0.00  0.00    +0.000 S 
BRANCH  19  20
ATOM     20  C   UNL     1       2.959   4.801  17.819  0.00  0.00    +0.000 C 
BRANCH  20  21
ATOM     21  C   UNL     1       3.896   3.690  17.364  0.00  0.00    +0.000 C 
ATOM     22  O   UNL     1       3.769   2.512  17.691  0.00  0.00    +0.000 OA
BRANCH  21  23
ATOM     23  C   UNL     1       5.019   4.066  16.441  0.00  0.00    +0.000 A 
ATOM     24  C   UNL     1       6.281   4.457  16.917  0.00  0.00    +0.000 A 
ATOM     25  C   UNL     1       7.279   4.857  16.024  0.00  0.00    +0.000 A 
ATOM     26  C   UNL     1       7.023   4.856  14.658  0.00  0.00    +0.000 A 
ATOM     27  F   UNL     1       7.979   5.253  13.808  0.00  0.00    +0.000 F 
ATOM     28  C   UNL     1       5.789   4.451  14.165  0.00  0.00    +0.000 A 
ATOM     29  C   UNL     1       4.786   4.056  15.056  0.00  0.00    +0.000 A 
ENDBRANCH  21  23
ENDBRANCH  20  21
ENDBRANCH  19  20
ENDBRANCH   4  19
TORSDOF 6
ENDMDL
MODEL 9
REMARK VINA RESULT:      -7.3      1.000      1.431
REMARK  Name = 
REMARK  8 active torsions:
REMARK  status: ('A' for Active; 'I' for Inactive)
REMARK    1  A    between atoms: C_1  and  O_2
REMARK    2  A    between atoms: O_2  and  C_3
REMARK    3  A    between atoms: C_9  and  C_10
REMARK    4  A    between atoms: C_13  and  S_14
REMARK    5  A    between atoms: S_14  and  C_15
REMARK    6  A    between atoms: C_15  and  C_16
REMARK    7  A    between atoms: C_16  and  C_18
REMARK    8  A    between atoms: N_25  and  C_26
REMARK                            x       y       z     vdW  Elec       q    Type
REMARK                         _______ _______ _______ _____ _____    ______ ____
ROOT
ATOM      1  C   UNL     1       1.234   8.808  19.934  0.00  0.00    +0.000 A 
ATOM      2  N   UNL     1       1.493   7.688  20.585  0.00  0.00    +0.000 NA
ATOM      3  N   UNL     1       2.334   6.921  19.814  0.00  0.00    +0.000 NA
ATOM      4  C   UNL     1       2.593   7.600  18.722  0.00  0.00    +0.000 A 
ATOM      5  N   UNL     1       1.951   8.808  18.757  0.00  0.00    +0.000 N 
ATOM      6  C   UNL     1       2.020   9.866  17.781  0.00  0.00    +0.000 C 
ENDROOT
BRANCH   1  13
ATOM      7  C   UNL     1      -2.386  13.298  22.391  0.00  0.00    +0.000 A 
ATOM      8  C   UNL     1      -2.907  13.272  21.105  0.00  0.00    +0.000 A 
ATOM      9  C   UNL     1      -2.417  12.359  20.159  0.00  0.00    +0.000 A 
ATOM     10  C   UNL     1      -1.363  11.467  20.486  0.00  0.00    +0.000 A 
ATOM     11  C   UNL     1      -0.700  10.440  19.718  0.00  0.00    +0.000 A 
ATOM     12 CL   UNL     1      -1.199  10.060  18.114  0.00  0.00    +0.000 Cl
ATOM     13  C   UNL     1       0.324   9.816  20.408  0.00  0.00    +0.000 A 
ATOM     14  S   UNL     1       0.478  10.470  21.982  0.00  0.00    +0.000 S 
ATOM     15  C   UNL     1      -0.829  11.553  21.772  0.00  0.00    +0.000 A 
ATOM     16  C   UNL     1      -1.333  12.450  22.732  0.00  0.00    +0.000 A 
BRANCH   7  18
ATOM     17  C   UNL     1      -4.101  14.682  23.244  0.00  0.00    +0.000 C 
ATOM     18  O   UNL     1      -2.797  14.132  23.395  0.00  0.00    +0.000 OA
ENDBRANCH   7  18
ENDBRANCH   1  13
BRANCH   4  19
ATOM     19  S   UNL     1       3.620   7.092  17.430  0.00  0.00    +0.000 S 
BRANCH  19  20
ATOM     20  C   UNL     1       4.411   5.644  18.175  0.00  0.00    +0.000 C 
BRANCH  20  21
ATOM     21  C   UNL     1       3.670   4.344  17.898  0.00  0.00    +0.000 C 
ATOM     22  O   UNL     1       3.714   3.747  16.824  0.00  0.00    +0.000 OA
BRANCH  21  23
ATOM     23  C   UNL     1       2.864   3.753  19.018  0.00  0.00    +0.000 A 
ATOM     24  C   UNL     1       1.467   3.624  18.949  0.00  0.00    +0.000 A 
ATOM     25  C   UNL     1       0.749   3.125  20.040  0.00  0.00    +0.000 A 
ATOM     26  C   UNL     1       1.424   2.744  21.193  0.00  0.00    +0.000 A 
ATOM     27  F   UNL     1       0.730   2.279  22.240  0.00  0.00    +0.000 F 
ATOM     28  C   UNL     1       2.807   2.842  21.274  0.00  0.00    +0.000 A 
ATOM     29  C   UNL     1       3.528   3.347  20.187  0.00  0.00    +0.000 A 
ENDBRANCH  21  23
ENDBRANCH  20  21
ENDBRANCH  19  20
ENDBRANCH   4  19
TORSDOF 6
ENDMDL
