MODEL 1
REMARK VINA RESULT:      -5.4      0.000      0.000
REMARK  Name = 
REMARK  13 active torsions:
REMARK  status: ('A' for Active; 'I' for Inactive)
REMARK    1  A    between atoms: C_1  and  C_2
REMARK    2  A    between atoms: C_2  and  C_3
REMARK    3  A    between atoms: C_2  and  C_4
REMARK    4  A    between atoms: C_2  and  N_5
REMARK    5  A    between atoms: N_5  and  C_6
REMARK    6  A    between atoms: C_6  and  C_7
REMARK    7  A    between atoms: C_7  and  O_8
REMARK    8  A    between atoms: C_7  and  C_9
REMARK    9  A    between atoms: C_9  and  N_10
REMARK   10  A    between atoms: N_10  and  C_11
REMARK   11  A    between atoms: C_11  and  C_12
REMARK   12  A    between atoms: C_11  and  C_13
REMARK   13  A    between atoms: C_11  and  C_14
REMARK                            x       y       z     vdW  Elec       q    Type
REMARK                         _______ _______ _______ _____ _____    ______ ____
ROOT
ATOM      1  C   UNL     1       6.836   5.603  18.988  0.00  0.00    +0.000 C 
ENDROOT
BRANCH   1   2
ATOM      2  O   UNL     1       7.694   5.440  20.128  0.00  0.00    +0.000 OA
ATOM      3  H   UNL     1       8.248   4.657  19.966  0.00  0.00    +0.000 HD
ENDBRANCH   1   2
BRANCH   1   4
ATOM      4  C   UNL     1       5.397   5.168  19.344  0.00  0.00    +0.000 C 
BRANCH   4   5
ATOM      5  N   UNL     1       5.172   3.731  19.135  0.00  0.00    +0.000 NA
ATOM      6  H   UNL     1       5.724   3.425  18.331  0.00  0.00    +0.000 HD
BRANCH   5   8
ATOM      7  C   UNL     1       2.993   3.431  20.317  0.00  0.00    +0.000 C 
ATOM      8  C   UNL     1       3.757   3.344  18.988  0.00  0.00    +0.000 C 
ATOM      9  C   UNL     1       3.627   1.927  18.400  0.00  0.00    +0.000 C 
ATOM     10  C   UNL     1       3.116   4.332  17.996  0.00  0.00    +0.000 C 
ENDBRANCH   5   8
ENDBRANCH   4   5
ENDBRANCH   1   4
BRANCH   1  11
ATOM     11  C   UNL     1       7.384   4.748  17.819  0.00  0.00    +0.000 C 
BRANCH  11  12
ATOM     12  N   UNL     1       7.447   5.493  16.557  0.00  0.00    +0.000 NA
ATOM     13  H   UNL     1       8.399   5.440  16.190  0.00  0.00    +0.000 HD
BRANCH  12  14
ATOM     14  C   UNL     1       6.493   5.086  15.510  0.00  0.00    +0.000 C 
ATOM     15  C   UNL     1       7.158   5.035  14.124  0.00  0.00    +0.000 C 
ATOM     16  C   UNL     1       6.030   3.657  15.865  0.00  0.00    +0.000 C 
ATOM     17  C   UNL     1       5.263   6.005  15.477  0.00  0.00    +0.000 C 
ENDBRANCH  12  14
ENDBRANCH  11  12
ENDBRANCH   1  11
TORSDOF 7
ENDMDL
MODEL 2
REMARK VINA RESULT:      -5.4      2.272      4.795
REMARK  Name = 
REMARK  13 active torsions:
REMARK  status: ('A' for Active; 'I' for Inactive)
REMARK    1  A    between atoms: C_1  and  C_2
REMARK    2  A    between atoms: C_2  and  C_3
REMARK    3  A    between atoms: C_2  and  C_4
REMARK    4  A    between atoms: C_2  and  N_5
REMARK    5  A    between atoms: N_5  and  C_6
REMARK    6  A    between atoms: C_6  and  C_7
REMARK    7  A    between atoms: C_7  and  O_8
REMARK    8  A    between atoms: C_7  and  C_9
REMARK    9  A    between atoms: C_9  and  N_10
REMARK   10  A    between atoms: N_10  and  C_11
REMARK   11  A    between atoms: C_11  and  C_12
REMARK   12  A    between atoms: C_11  and  C_13
REMARK   13  A    between atoms: C_11  and  C_14
REMARK                            x       y       z     vdW  Elec       q    Type
REMARK                         _______ _______ _______ _____ _____    ______ ____
ROOT
ATOM      1  C   UNL     1       6.018   4.451  14.970  0.00  0.00    +0.000 C 
ENDROOT
BRANCH   1   2
ATOM      2  O   UNL     1       6.368   3.380  14.079  0.00  0.00    +0.000 OA
ATOM      3  H   UNL     1       7.320   3.455  13.894  0.00  0.00    +0.000 HD
ENDBRANCH   1   2
BRANCH   1   4
ATOM      4  C   UNL     1       7.187   4.736  15.937  0.00  0.00    +0.000 C 
BRANCH   4   5
ATOM      5  N   UNL     1       7.437   6.174  16.114  0.00  0.00    +0.000 NA
ATOM      6  H   UNL     1       8.414   6.368  15.888  0.00  0.00    +0.000 HD
BRANCH   5   8
ATOM      7  C   UNL     1       7.531   5.763  18.576  0.00  0.00    +0.000 C 
ATOM      8  C   UNL     1       7.083   6.701  17.446  0.00  0.00    +0.000 C 
ATOM      9  C   UNL     1       5.571   6.968  17.552  0.00  0.00    +0.000 C 
ATOM     10  C   UNL     1       7.817   8.044  17.612  0.00  0.00    +0.000 C 
ENDBRANCH   5   8
ENDBRANCH   4   5
ENDBRANCH   1   4
BRANCH   1  11
ATOM     11  C   UNL     1       4.748   4.052  15.760  0.00  0.00    +0.000 C 
BRANCH  11  12
ATOM     12  N   UNL     1       5.059   3.328  16.998  0.00  0.00    +0.000 NA
ATOM     13  H   UNL     1       5.904   3.728  17.411  0.00  0.00    +0.000 HD
BRANCH  12  14
ATOM     14  C   UNL     1       3.991   3.282  18.013  0.00  0.00    +0.000 C 
ATOM     15  C   UNL     1       2.816   4.202  17.643  0.00  0.00    +0.000 C 
ATOM     16  C   UNL     1       3.465   1.830  18.035  0.00  0.00    +0.000 C 
ATOM     17  C   UNL     1       4.523   3.631  19.410  0.00  0.00    +0.000 C 
ENDBRANCH  12  14
ENDBRANCH  11  12
ENDBRANCH   1  11
TORSDOF 7
ENDMDL
MODEL 3
REMARK VINA RESULT:      -5.3      1.848      2.728
REMARK  Name = 
REMARK  13 active torsions:
REMARK  status: ('A' for Active; 'I' for Inactive)
REMARK    1  A    between atoms: C_1  and  C_2
REMARK    2  A    between atoms: C_2  and  C_3
REMARK    3  A    between atoms: C_2  and  C_4
REMARK    4  A    between atoms: C_2  and  N_5
REMARK    5  A    between atoms: N_5  and  C_6
REMARK    6  A    between atoms: C_6  and  C_7
REMARK    7  A    between atoms: C_7  and  O_8
REMARK    8  A    between atoms: C_7  and  C_9
REMARK    9  A    between atoms: C_9  and  N_10
REMARK   10  A    between atoms: N_10  and  C_11
REMARK   11  A    between atoms: C_11  and  C_12
REMARK   12  A    between atoms: C_11  and  C_13
REMARK   13  A    between atoms: C_11  and  C_14
REMARK                            x       y       z     vdW  Elec       q    Type
REMARK                         _______ _______ _______ _____ _____    ______ ____
ROOT
ATOM      1  C   UNL     1       4.869   4.588  18.724  0.00  0.00    +0.000 C 
ENDROOT
BRANCH   1   2
ATOM      2  O   UNL     1       5.814   3.566  19.080  0.00  0.00    +0.000 OA
ATOM      3  H   UNL     1       6.658   4.006  19.280  0.00  0.00    +0.000 HD
ENDBRANCH   1   2
BRANCH   1   4
ATOM      4  C   UNL     1       3.727   4.634  19.762  0.00  0.00    +0.000 C 
BRANCH   4   5
ATOM      5  N   UNL     1       3.134   3.312  20.010  0.00  0.00    +0.000 NA
ATOM      6  H   UNL     1       3.344   2.704  19.217  0.00  0.00    +0.000 HD
BRANCH   5   8
ATOM      7  C   UNL     1       0.873   2.607  19.216  0.00  0.00    +0.000 C 
ATOM      8  C   UNL     1       1.687   3.330  20.298  0.00  0.00    +0.000 C 
ATOM      9  C   UNL     1       1.173   4.771  20.468  0.00  0.00    +0.000 C 
ATOM     10  C   UNL     1       1.482   2.591  21.633  0.00  0.00    +0.000 C 
ENDBRANCH   5   8
ENDBRANCH   4   5
ENDBRANCH   1   4
BRANCH   1  11
ATOM     11  C   UNL     1       4.306   4.283  17.315  0.00  0.00    +0.000 C 
BRANCH  11  12
ATOM     12  N   UNL     1       5.285   3.618  16.448  0.00  0.00    +0.000 NA
ATOM     13  H   UNL     1       4.806   2.903  15.897  0.00  0.00    +0.000 HD
BRANCH  12  14
ATOM     14  C   UNL     1       6.062   4.491  15.551  0.00  0.00    +0.000 C 
ATOM     15  C   UNL     1       6.192   3.887  14.142  0.00  0.00    +0.000 C 
ATOM     16  C   UNL     1       5.273   5.813  15.427  0.00  0.00    +0.000 C 
ATOM     17  C   UNL     1       7.451   4.803  16.127  0.00  0.00    +0.000 C 
ENDBRANCH  12  14
ENDBRANCH  11  12
ENDBRANCH   1  11
TORSDOF 7
ENDMDL
MODEL 4
REMARK VINA RESULT:      -5.2      2.105      4.996
REMARK  Name = 
REMARK  13 active torsions:
REMARK  status: ('A' for Active; 'I' for Inactive)
REMARK    1  A    between atoms: C_1  and  C_2
REMARK    2  A    between atoms: C_2  and  C_3
REMARK    3  A    between atoms: C_2  and  C_4
REMARK    4  A    between atoms: C_2  and  N_5
REMARK    5  A    between atoms: N_5  and  C_6
REMARK    6  A    between atoms: C_6  and  C_7
REMARK    7  A    between atoms: C_7  and  O_8
REMARK    8  A    between atoms: C_7  and  C_9
REMARK    9  A    between atoms: C_9  and  N_10
REMARK   10  A    between atoms: N_10  and  C_11
REMARK   11  A    between atoms: C_11  and  C_12
REMARK   12  A    between atoms: C_11  and  C_13
REMARK   13  A    between atoms: C_11  and  C_14
REMARK                            x       y       z     vdW  Elec       q    Type
REMARK                         _______ _______ _______ _____ _____    ______ ____
ROOT
ATOM      1  C   UNL     1       4.233   2.186  19.417  0.00  0.00    +0.000 C 
ENDROOT
BRANCH   1   2
ATOM      2  O   UNL     1       5.266   1.559  20.194  0.00  0.00    +0.000 OA
ATOM      3  H   UNL     1       4.842   1.152  20.968  0.00  0.00    +0.000 HD
ENDBRANCH   1   2
BRANCH   1   4
ATOM      4  C   UNL     1       4.853   3.216  18.448  0.00  0.00    +0.000 C 
BRANCH   4   5
ATOM      5  N   UNL     1       5.962   3.966  19.055  0.00  0.00    +0.000 NA
ATOM      6  H   UNL     1       5.662   4.318  19.966  0.00  0.00    +0.000 HD
BRANCH   5   8
ATOM      7  C   UNL     1       5.417   6.058  17.804  0.00  0.00    +0.000 C 
ATOM      8  C   UNL     1       6.502   5.053  18.216  0.00  0.00    +0.000 C 
ATOM      9  C   UNL     1       7.203   4.492  16.965  0.00  0.00    +0.000 C 
ATOM     10  C   UNL     1       7.555   5.796  19.059  0.00  0.00    +0.000 C 
ENDBRANCH   5   8
ENDBRANCH   4   5
ENDBRANCH   1   4
BRANCH   1  11
ATOM     11  C   UNL     1       3.234   2.879  20.375  0.00  0.00    +0.000 C 
BRANCH  11  12
ATOM     12  N   UNL     1       3.219   4.337  20.215  0.00  0.00    +0.000 NA
ATOM     13  H   UNL     1       3.940   4.603  19.542  0.00  0.00    +0.000 HD
BRANCH  12  14
ATOM     14  C   UNL     1       1.932   4.937  19.820  0.00  0.00    +0.000 C 
ATOM     15  C   UNL     1       1.829   5.105  18.294  0.00  0.00    +0.000 C 
ATOM     16  C   UNL     1       0.829   3.951  20.262  0.00  0.00    +0.000 C 
ATOM     17  C   UNL     1       1.695   6.282  20.521  0.00  0.00    +0.000 C 
ENDBRANCH  12  14
ENDBRANCH  11  12
ENDBRANCH   1  11
TORSDOF 7
ENDMDL
MODEL 5
REMARK VINA RESULT:      -5.2      1.920      2.523
REMARK  Name = 
REMARK  13 active torsions:
REMARK  status: ('A' for Active; 'I' for Inactive)
REMARK    1  A    between atoms: C_1  and  C_2
REMARK    2  A    between atoms: C_2  and  C_3
REMARK    3  A    between atoms: C_2  and  C_4
REMARK    4  A    between atoms: C_2  and  N_5
REMARK    5  A    between atoms: N_5  and  C_6
REMARK    6  A    between atoms: C_6  and  C_7
REMARK    7  A    between atoms: C_7  and  O_8
REMARK    8  A    between atoms: C_7  and  C_9
REMARK    9  A    between atoms: C_9  and  N_10
REMARK   10  A    between atoms: N_10  and  C_11
REMARK   11  A    between atoms: C_11  and  C_12
REMARK   12  A    between atoms: C_11  and  C_13
REMARK   13  A    between atoms: C_11  and  C_14
REMARK                            x       y       z     vdW  Elec       q    Type
REMARK                         _______ _______ _______ _____ _____    ______ ____
ROOT
ATOM      1  C   UNL     1       4.772   4.375  18.691  0.00  0.00    +0.000 C 
ENDROOT
BRANCH   1   2
ATOM      2  O   UNL     1       5.478   3.191  19.097  0.00  0.00    +0.000 OA
ATOM      3  H   UNL     1       4.951   2.761  19.791  0.00  0.00    +0.000 HD
ENDBRANCH   1   2
BRANCH   1   4
ATOM      4  C   UNL     1       3.607   4.653  19.665  0.00  0.00    +0.000 C 
BRANCH   4   5
ATOM      5  N   UNL     1       3.186   3.453  20.401  0.00  0.00    +0.000 NA
ATOM      6  H   UNL     1       3.657   2.639  20.000  0.00  0.00    +0.000 HD
BRANCH   5   8
ATOM      7  C   UNL     1       1.300   2.506  21.737  0.00  0.00    +0.000 C 
ATOM      8  C   UNL     1       1.726   3.247  20.462  0.00  0.00    +0.000 C 
ATOM      9  C   UNL     1       1.220   2.492  19.220  0.00  0.00    +0.000 C 
ATOM     10  C   UNL     1       1.072   4.641  20.472  0.00  0.00    +0.000 C 
ENDBRANCH   5   8
ENDBRANCH   4   5
ENDBRANCH   1   4
BRANCH   1  11
ATOM     11  C   UNL     1       4.237   4.173  17.252  0.00  0.00    +0.000 C 
BRANCH  11  12
ATOM     12  N   UNL     1       5.233   3.568  16.360  0.00  0.00    +0.000 NA
ATOM     13  H   UNL     1       4.764   2.895  15.751  0.00  0.00    +0.000 HD
BRANCH  12  14
ATOM     14  C   UNL     1       6.028   4.501  15.542  0.00  0.00    +0.000 C 
ATOM     15  C   UNL     1       6.204   3.986  14.103  0.00  0.00    +0.000 C 
ATOM     16  C   UNL     1       5.232   5.822  15.477  0.00  0.00    +0.000 C 
ATOM     17  C   UNL     1       7.397   4.785  16.178  0.00  0.00    +0.000 C 
ENDBRANCH  12  14
ENDBRANCH  11  12
ENDBRANCH   1  11
TORSDOF 7
ENDMDL
MODEL 6
REMARK VINA RESULT:      -5.2      1.491      2.264
REMARK  Name = 
REMARK  13 active torsions:
REMARK  status: ('A' for Active; 'I' for Inactive)
REMARK    1  A    between atoms: C_1  and  C_2
REMARK    2  A    between atoms: C_2  and  C_3
REMARK    3  A    between atoms: C_2  and  C_4
REMARK    4  A    between atoms: C_2  and  N_5
REMARK    5  A    between atoms: N_5  and  C_6
REMARK    6  A    between atoms: C_6  and  C_7
REMARK    7  A    between atoms: C_7  and  O_8
REMARK    8  A    between atoms: C_7  and  C_9
REMARK    9  A    between atoms: C_9  and  N_10
REMARK   10  A    between atoms: N_10  and  C_11
REMARK   11  A    between atoms: C_11  and  C_12
REMARK   12  A    between atoms: C_11  and  C_13
REMARK   13  A    between atoms: C_11  and  C_14
REMARK                            x       y       z     vdW  Elec       q    Type
REMARK                         _______ _______ _______ _____ _____    ______ ____
ROOT
ATOM      1  C   UNL     1       5.415   4.893  19.312  0.00  0.00    +0.000 C 
ENDROOT
BRANCH   1   2
ATOM      2  O   UNL     1       5.769   3.514  19.121  0.00  0.00    +0.000 OA
ATOM      3  H   UNL     1       5.141   2.978  19.634  0.00  0.00    +0.000 HD
ENDBRANCH   1   2
BRANCH   1   4
ATOM      4  C   UNL     1       3.885   5.066  19.190  0.00  0.00    +0.000 C 
BRANCH   4   5
ATOM      5  N   UNL     1       3.141   3.918  19.728  0.00  0.00    +0.000 NA
ATOM      6  H   UNL     1       3.806   3.181  19.973  0.00  0.00    +0.000 HD
BRANCH   5   8
ATOM      7  C   UNL     1       1.697   4.414  17.752  0.00  0.00    +0.000 C 
ATOM      8  C   UNL     1       2.077   3.405  18.846  0.00  0.00    +0.000 C 
ATOM      9  C   UNL     1       0.828   3.011  19.654  0.00  0.00    +0.000 C 
ATOM     10  C   UNL     1       2.624   2.137  18.165  0.00  0.00    +0.000 C 
ENDBRANCH   5   8
ENDBRANCH   4   5
ENDBRANCH   1   4
BRANCH   1  11
ATOM     11  C   UNL     1       6.142   5.751  18.248  0.00  0.00    +0.000 C 
BRANCH  11  12
ATOM     12  N   UNL     1       6.700   4.944  17.158  0.00  0.00    +0.000 NA
ATOM     13  H   UNL     1       6.779   3.975  17.472  0.00  0.00    +0.000 HD
BRANCH  12  14
ATOM     14  C   UNL     1       5.974   4.987  15.876  0.00  0.00    +0.000 C 
ATOM     15  C   UNL     1       4.902   3.888  15.794  0.00  0.00    +0.000 C 
ATOM     16  C   UNL     1       5.256   6.353  15.820  0.00  0.00    +0.000 C 
ATOM     17  C   UNL     1       6.932   4.889  14.680  0.00  0.00    +0.000 C 
ENDBRANCH  12  14
ENDBRANCH  11  12
ENDBRANCH   1  11
TORSDOF 7
ENDMDL
MODEL 7
REMARK VINA RESULT:      -5.2      0.754      1.395
REMARK  Name = 
REMARK  13 active torsions:
REMARK  status: ('A' for Active; 'I' for Inactive)
REMARK    1  A    between atoms: C_1  and  C_2
REMARK    2  A    between atoms: C_2  and  C_3
REMARK    3  A    between atoms: C_2  and  C_4
REMARK    4  A    between atoms: C_2  and  N_5
REMARK    5  A    between atoms: N_5  and  C_6
REMARK    6  A    between atoms: C_6  and  C_7
REMARK    7  A    between atoms: C_7  and  O_8
REMARK    8  A    between atoms: C_7  and  C_9
REMARK    9  A    between atoms: C_9  and  N_10
REMARK   10  A    between atoms: N_10  and  C_11
REMARK   11  A    between atoms: C_11  and  C_12
REMARK   12  A    between atoms: C_11  and  C_13
REMARK   13  A    between atoms: C_11  and  C_14
REMARK                            x       y       z     vdW  Elec       q    Type
REMARK                         _______ _______ _______ _____ _____    ______ ____
ROOT
ATOM      1  C   UNL     1       6.727   5.487  18.968  0.00  0.00    +0.000 C 
ENDROOT
BRANCH   1   2
ATOM      2  O   UNL     1       7.674   5.562  20.046  0.00  0.00    +0.000 OA
ATOM      3  H   UNL     1       7.455   6.350  20.571  0.00  0.00    +0.000 HD
ENDBRANCH   1   2
BRANCH   1   4
ATOM      4  C   UNL     1       5.415   4.842  19.463  0.00  0.00    +0.000 C 
BRANCH   4   5
ATOM      5  N   UNL     1       4.254   5.221  18.646  0.00  0.00    +0.000 NA
ATOM      6  H   UNL     1       4.051   6.210  18.803  0.00  0.00    +0.000 HD
BRANCH   5   8
ATOM      7  C   UNL     1       2.521   4.499  20.294  0.00  0.00    +0.000 C 
ATOM      8  C   UNL     1       3.053   4.391  18.857  0.00  0.00    +0.000 C 
ATOM      9  C   UNL     1       3.330   2.917  18.508  0.00  0.00    +0.000 C 
ATOM     10  C   UNL     1       1.967   4.912  17.898  0.00  0.00    +0.000 C 
ENDBRANCH   5   8
ENDBRANCH   4   5
ENDBRANCH   1   4
BRANCH   1  11
ATOM     11  C   UNL     1       7.340   4.651  17.818  0.00  0.00    +0.000 C 
BRANCH  11  12
ATOM     12  N   UNL     1       7.410   5.394  16.555  0.00  0.00    +0.000 NA
ATOM     13  H   UNL     1       8.346   5.285  16.160  0.00  0.00    +0.000 HD
BRANCH  12  14
ATOM     14  C   UNL     1       6.403   5.048  15.537  0.00  0.00    +0.000 C 
ATOM     15  C   UNL     1       5.307   6.123  15.434  0.00  0.00    +0.000 C 
ATOM     16  C   UNL     1       7.142   4.998  14.182  0.00  0.00    +0.000 C 
ATOM     17  C   UNL     1       5.777   3.672  15.804  0.00  0.00    +0.000 C 
ENDBRANCH  12  14
ENDBRANCH  11  12
ENDBRANCH   1  11
TORSDOF 7
ENDMDL
MODEL 8
REMARK VINA RESULT:      -5.2      2.557      3.614
REMARK  Name = 
REMARK  13 active torsions:
REMARK  status: ('A' for Active; 'I' for Inactive)
REMARK    1  A    between atoms: C_1  and  C_2
REMARK    2  A    between atoms: C_2  and  C_3
REMARK    3  A    between atoms: C_2  and  C_4
REMARK    4  A    between atoms: C_2  and  N_5
REMARK    5  A    between atoms: N_5  and  C_6
REMARK    6  A    between atoms: C_6  and  C_7
REMARK    7  A    between atoms: C_7  and  O_8
REMARK    8  A    between atoms: C_7  and  C_9
REMARK    9  A    between atoms: C_9  and  N_10
REMARK   10  A    between atoms: N_10  and  C_11
REMARK   11  A    between atoms: C_11  and  C_12
REMARK   12  A    between atoms: C_11  and  C_13
REMARK   13  A    between atoms: C_11  and  C_14
REMARK                            x       y       z     vdW  Elec       q    Type
REMARK                         _______ _______ _______ _____ _____    ______ ____
ROOT
ATOM      1  C   UNL     1       2.546   3.253  17.177  0.00  0.00    +0.000 C 
ENDROOT
BRANCH   1   2
ATOM      2  O   UNL     1       1.370   4.079  17.206  0.00  0.00    +0.000 OA
ATOM      3  H   UNL     1       1.654   4.983  17.421  0.00  0.00    +0.000 HD
ENDBRANCH   1   2
BRANCH   1   4
ATOM      4  C   UNL     1       2.479   2.201  18.305  0.00  0.00    +0.000 C 
BRANCH   4   5
ATOM      5  N   UNL     1       1.553   2.582  19.380  0.00  0.00    +0.000 NA
ATOM      6  H   UNL     1       0.917   3.300  19.028  0.00  0.00    +0.000 HD
BRANCH   5   8
ATOM      7  C   UNL     1       3.683   2.599  20.685  0.00  0.00    +0.000 C 
ATOM      8  C   UNL     1       2.206   3.016  20.630  0.00  0.00    +0.000 C 
ATOM      9  C   UNL     1       1.460   2.475  21.863  0.00  0.00    +0.000 C 
ATOM     10  C   UNL     1       2.136   4.554  20.668  0.00  0.00    +0.000 C 
ENDBRANCH   5   8
ENDBRANCH   4   5
ENDBRANCH   1   4
BRANCH   1  11
ATOM     11  C   UNL     1       3.795   4.151  17.350  0.00  0.00    +0.000 C 
BRANCH  11  12
ATOM     12  N   UNL     1       5.004   3.554  16.772  0.00  0.00    +0.000 NA
ATOM     13  H   UNL     1       4.733   2.759  16.190  0.00  0.00    +0.000 HD
BRANCH  12  14
ATOM     14  C   UNL     1       5.871   4.458  15.996  0.00  0.00    +0.000 C 
ATOM     15  C   UNL     1       5.268   5.869  15.888  0.00  0.00    +0.000 C 
ATOM     16  C   UNL     1       7.200   4.571  16.773  0.00  0.00    +0.000 C 
ATOM     17  C   UNL     1       6.168   3.896  14.598  0.00  0.00    +0.000 C 
ENDBRANCH  12  14
ENDBRANCH  11  12
ENDBRANCH   1  11
TORSDOF 7
ENDMDL
MODEL 9
REMARK VINA RESULT:      -5.2      2.133      3.061
REMARK  Name = 
REMARK  13 active torsions:
REMARK  status: ('A' for Active; 'I' for Inactive)
REMARK    1  A    between atoms: C_1  and  C_2
REMARK    2  A    between atoms: C_2  and  C_3
REMARK    3  A    between atoms: C_2  and  C_4
REMARK    4  A    between atoms: C_2  and  N_5
REMARK    5  A    between atoms: N_5  and  C_6
REMARK    6  A    between atoms: C_6  and  C_7
REMARK    7  A    between atoms: C_7  and  O_8
REMARK    8  A    between atoms: C_7  and  C_9
REMARK    9  A    between atoms: C_9  and  N_10
REMARK   10  A    between atoms: N_10  and  C_11
REMARK   11  A    between atoms: C_11  and  C_12
REMARK   12  A    between atoms: C_11  and  C_13
REMARK   13  A    between atoms: C_11  and  C_14
REMARK                            x       y       z     vdW  Elec       q    Type
REMARK                         _______ _______ _______ _____ _____    ______ ____
ROOT
ATOM      1  C   UNL     1       6.000   3.986  15.516  0.00  0.00    +0.000 C 
ENDROOT
BRANCH   1   2
ATOM      2  O   UNL     1       5.734   4.956  14.490  0.00  0.00    +0.000 OA
ATOM      3  H   UNL     1       5.467   4.470  13.692  0.00  0.00    +0.000 HD
ENDBRANCH   1   2
BRANCH   1   4
ATOM      4  C   UNL     1       4.744   3.788  16.392  0.00  0.00    +0.000 C 
BRANCH   4   5
ATOM      5  N   UNL     1       5.066   3.302  17.741  0.00  0.00    +0.000 NA
ATOM      6  H   UNL     1       5.656   2.472  17.659  0.00  0.00    +0.000 HD
BRANCH   5   8
ATOM      7  C   UNL     1       4.290   2.410  19.941  0.00  0.00    +0.000 C 
ATOM      8  C   UNL     1       3.894   3.040  18.598  0.00  0.00    +0.000 C 
ATOM      9  C   UNL     1       2.870   2.144  17.879  0.00  0.00    +0.000 C 
ATOM     10  C   UNL     1       3.225   4.398  18.879  0.00  0.00    +0.000 C 
ENDBRANCH   5   8
ENDBRANCH   4   5
ENDBRANCH   1   4
BRANCH   1  11
ATOM     11  C   UNL     1       7.188   4.478  16.378  0.00  0.00    +0.000 C 
BRANCH  11  12
ATOM     12  N   UNL     1       7.361   5.934  16.321  0.00  0.00    +0.000 NA
ATOM     13  H   UNL     1       6.852   6.295  15.512  0.00  0.00    +0.000 HD
BRANCH  12  14
ATOM     14  C   UNL     1       6.966   6.686  17.525  0.00  0.00    +0.000 C 
ATOM     15  C   UNL     1       7.292   5.910  18.812  0.00  0.00    +0.000 C 
ATOM     16  C   UNL     1       7.804   7.983  17.531  0.00  0.00    +0.000 C 
ATOM     17  C   UNL     1       5.479   7.065  17.493  0.00  0.00    +0.000 C 
ENDBRANCH  12  14
ENDBRANCH  11  12
ENDBRANCH   1  11
TORSDOF 7
ENDMDL
