MODEL 1
REMARK VINA RESULT:      -7.6      0.000      0.000
REMARK  Name = 
REMARK  6 active torsions:
REMARK  status: ('A' for Active; 'I' for Inactive)
REMARK    1  A    between atoms: C_1  and  C_2
REMARK    2  A    between atoms: C_2  and  C_3
REMARK    3  A    between atoms: C_3  and  C_4
REMARK    4  A    between atoms: C_7  and  C_8
REMARK    5  A    between atoms: C_8  and  N_9
REMARK    6  A    between atoms: C_17  and  C_18
REMARK                            x       y       z     vdW  Elec       q    Type
REMARK                         _______ _______ _______ _____ _____    ______ ____
ROOT
ATOM      1  N   UNL     1       4.164   4.646  17.677  0.00  0.00    +0.000 NA
ATOM      2  C   UNL     1       3.638   3.455  16.995  0.00  0.00    +0.000 C 
ATOM      3  C   UNL     1       3.212   2.310  17.958  0.00  0.00    +0.000 C 
ATOM      4  C   UNL     1       2.489   2.897  19.102  0.00  0.00    +0.000 A 
ATOM      5  N   UNL     1       1.634   2.295  19.973  0.00  0.00    +0.000 N 
ATOM      6  C   UNL     1       1.226   3.262  20.854  0.00  0.00    +0.000 A 
ATOM      7  N   UNL     1       1.792   4.422  20.602  0.00  0.00    +0.000 NA
ATOM      8  C   UNL     1       2.569   4.211  19.484  0.00  0.00    +0.000 A 
ATOM      9  C   UNL     1       3.346   5.281  18.743  0.00  0.00    +0.000 C 
ATOM     10  H   UNL     1       1.331   1.333  19.969  0.00  0.00    +0.000 HD
ENDROOT
BRANCH   9  11
ATOM     11  C   UNL     1       2.437   6.390  18.256  0.00  0.00    +0.000 C 
ATOM     12  C   UNL     1       2.238   7.624  19.122  0.00  0.00    +0.000 C 
ATOM     13  C   UNL     1       2.986   7.739  17.832  0.00  0.00    +0.000 C 
ENDBRANCH   9  11
BRANCH   1  14
ATOM     14  C   UNL     1       5.035   5.503  16.876  0.00  0.00    +0.000 C 
BRANCH  14  18
ATOM     15  C   UNL     1       7.642   7.821  17.809  0.00  0.00    +0.000 A 
ATOM     16  C   UNL     1       8.112   6.770  18.564  0.00  0.00    +0.000 A 
ATOM     17  C   UNL     1       7.182   5.719  18.405  0.00  0.00    +0.000 A 
ATOM     18  C   UNL     1       6.190   6.175  17.559  0.00  0.00    +0.000 A 
ATOM     19  O   UNL     1       6.467   7.472  17.202  0.00  0.00    +0.000 OA
BRANCH  15  20
ATOM     20  C   UNL     1       8.209   9.164  17.503  0.00  0.00    +0.000 C 
BRANCH  20  22
ATOM     21  C   UNL     1       9.674  11.041  18.331  0.00  0.00    +0.000 C 
ATOM     22  C   UNL     1       8.862   9.813  18.721  0.00  0.00    +0.000 C 
ENDBRANCH  20  22
ENDBRANCH  15  20
ENDBRANCH  14  18
ENDBRANCH   1  14
TORSDOF 5
ENDMDL
MODEL 2
REMARK VINA RESULT:      -7.0      2.896      4.397
REMARK  Name = 
REMARK  6 active torsions:
REMARK  status: ('A' for Active; 'I' for Inactive)
REMARK    1  A    between atoms: C_1  and  C_2
REMARK    2  A    between atoms: C_2  and  C_3
REMARK    3  A    between atoms: C_3  and  C_4
REMARK    4  A    between atoms: C_7  and  C_8
REMARK    5  A    between atoms: C_8  and  N_9
REMARK    6  A    between atoms: C_17  and  C_18
REMARK                            x       y       z     vdW  Elec       q    Type
REMARK                         _______ _______ _______ _____ _____    ______ ____
ROOT
ATOM      1  N   UNL     1       4.723   3.695  18.533  0.00  0.00    +0.000 NA
ATOM      2  C   UNL     1       3.855   2.826  17.724  0.00  0.00    +0.000 C 
ATOM      3  C   UNL     1       3.015   1.818  18.559  0.00  0.00    +0.000 C 
ATOM      4  C   UNL     1       2.479   2.514  19.745  0.00  0.00    +0.000 A 
ATOM      5  N   UNL     1       1.427   2.170  20.537  0.00  0.00    +0.000 N 
ATOM      6  C   UNL     1       1.332   3.135  21.504  0.00  0.00    +0.000 A 
ATOM      7  N   UNL     1       2.273   4.044  21.380  0.00  0.00    +0.000 NA
ATOM      8  C   UNL     1       2.987   3.679  20.260  0.00  0.00    +0.000 A 
ATOM      9  C   UNL     1       4.120   4.476  19.644  0.00  0.00    +0.000 C 
ATOM     10  H   UNL     1       0.814   1.376  20.430  0.00  0.00    +0.000 HD
ENDROOT
BRANCH   9  11
ATOM     11  C   UNL     1       3.672   5.870  19.257  0.00  0.00    +0.000 C 
ATOM     12  C   UNL     1       2.532   6.037  18.265  0.00  0.00    +0.000 C 
ATOM     13  C   UNL     1       2.330   6.424  19.694  0.00  0.00    +0.000 C 
ENDBRANCH   9  11
BRANCH   1  14
ATOM     14  C   UNL     1       5.873   4.266  17.836  0.00  0.00    +0.000 C 
BRANCH  14  18
ATOM     15  C   UNL     1       6.048   4.395  14.232  0.00  0.00    +0.000 A 
ATOM     16  C   UNL     1       5.551   5.669  14.393  0.00  0.00    +0.000 A 
ATOM     17  C   UNL     1       5.331   5.836  15.779  0.00  0.00    +0.000 A 
ATOM     18  C   UNL     1       5.707   4.660  16.398  0.00  0.00    +0.000 A 
ATOM     19  O   UNL     1       6.135   3.769  15.445  0.00  0.00    +0.000 OA
BRANCH  15  20
ATOM     20  C   UNL     1       6.546   3.661  13.035  0.00  0.00    +0.000 C 
BRANCH  20  22
ATOM     21  C   UNL     1       5.738   1.908  11.414  0.00  0.00    +0.000 C 
ATOM     22  C   UNL     1       5.418   3.228  12.103  0.00  0.00    +0.000 C 
ENDBRANCH  20  22
ENDBRANCH  15  20
ENDBRANCH  14  18
ENDBRANCH   1  14
TORSDOF 5
ENDMDL
MODEL 3
REMARK VINA RESULT:      -7.0      2.704      3.970
REMARK  Name = 
REMARK  6 active torsions:
REMARK  status: ('A' for Active; 'I' for Inactive)
REMARK    1  A    between atoms: C_1  and  C_2
REMARK    2  A    between atoms: C_2  and  C_3
REMARK    3  A    between atoms: C_3  and  C_4
REMARK    4  A    between atoms: C_7  and  C_8
REMARK    5  A    between atoms: C_8  and  N_9
REMARK    6  A    between atoms: C_17  and  C_18
REMARK                            x       y       z     vdW  Elec       q    Type
REMARK                         _______ _______ _______ _____ _____    ______ ____
ROOT
ATOM      1  N   UNL     1       3.675   4.813  17.862  0.00  0.00    +0.000 NA
ATOM      2  C   UNL     1       3.048   3.643  17.229  0.00  0.00    +0.000 C 
ATOM      3  C   UNL     1       2.902   2.416  18.174  0.00  0.00    +0.000 C 
ATOM      4  C   UNL     1       2.443   2.885  19.495  0.00  0.00    +0.000 A 
ATOM      5  N   UNL     1       1.838   2.183  20.490  0.00  0.00    +0.000 N 
ATOM      6  C   UNL     1       1.611   3.066  21.513  0.00  0.00    +0.000 A 
ATOM      7  N   UNL     1       2.060   4.268  21.227  0.00  0.00    +0.000 NA
ATOM      8  C   UNL     1       2.563   4.174  19.948  0.00  0.00    +0.000 A 
ATOM      9  C   UNL     1       3.105   5.331  19.133  0.00  0.00    +0.000 C 
ATOM     10  H   UNL     1       1.578   1.207  20.482  0.00  0.00    +0.000 HD
ENDROOT
BRANCH   9  11
ATOM     11  C   UNL     1       2.068   6.419  18.954  0.00  0.00    +0.000 C 
ATOM     12  C   UNL     1       2.077   7.618  19.890  0.00  0.00    +0.000 C 
ATOM     13  C   UNL     1       2.442   7.800  18.452  0.00  0.00    +0.000 C 
ENDBRANCH   9  11
BRANCH   1  14
ATOM     14  C   UNL     1       4.303   5.766  16.951  0.00  0.00    +0.000 C 
BRANCH  14  18
ATOM     15  C   UNL     1       6.538   4.669  14.335  0.00  0.00    +0.000 A 
ATOM     16  C   UNL     1       7.388   4.375  15.378  0.00  0.00    +0.000 A 
ATOM     17  C   UNL     1       6.730   4.793  16.556  0.00  0.00    +0.000 A 
ATOM     18  C   UNL     1       5.510   5.319  16.179  0.00  0.00    +0.000 A 
ATOM     19  O   UNL     1       5.397   5.255  14.812  0.00  0.00    +0.000 OA
BRANCH  15  20
ATOM     20  C   UNL     1       6.621   4.400  12.873  0.00  0.00    +0.000 C 
BRANCH  20  22
ATOM     21  C   UNL     1       4.594   3.429  11.732  0.00  0.00    +0.000 C 
ATOM     22  C   UNL     1       5.890   3.122  12.471  0.00  0.00    +0.000 C 
ENDBRANCH  20  22
ENDBRANCH  15  20
ENDBRANCH  14  18
ENDBRANCH   1  14
TORSDOF 5
ENDMDL
MODEL 4
REMARK VINA RESULT:      -6.9      3.137      5.220
REMARK  Name = 
REMARK  6 active torsions:
REMARK  status: ('A' for Active; 'I' for Inactive)
REMARK    1  A    between atoms: C_1  and  C_2
REMARK    2  A    between atoms: C_2  and  C_3
REMARK    3  A    between atoms: C_3  and  C_4
REMARK    4  A    between atoms: C_7  and  C_8
REMARK    5  A    between atoms: C_8  and  N_9
REMARK    6  A    between atoms: C_17  and  C_18
REMARK                            x       y       z     vdW  Elec       q    Type
REMARK                         _______ _______ _______ _____ _____    ______ ____
ROOT
ATOM      1  N   UNL     1       4.428   5.175  17.238  0.00  0.00    +0.000 NA
ATOM      2  C   UNL     1       3.123   5.614  17.756  0.00  0.00    +0.000 C 
ATOM      3  C   UNL     1       2.276   4.471  18.385  0.00  0.00    +0.000 C 
ATOM      4  C   UNL     1       3.159   3.623  19.208  0.00  0.00    +0.000 A 
ATOM      5  N   UNL     1       2.831   2.764  20.210  0.00  0.00    +0.000 N 
ATOM      6  C   UNL     1       4.004   2.215  20.658  0.00  0.00    +0.000 A 
ATOM      7  N   UNL     1       5.039   2.660  19.982  0.00  0.00    +0.000 NA
ATOM      8  C   UNL     1       4.524   3.567  19.082  0.00  0.00    +0.000 A 
ATOM      9  C   UNL     1       5.342   4.428  18.140  0.00  0.00    +0.000 C 
ATOM     10  H   UNL     1       1.910   2.575  20.579  0.00  0.00    +0.000 HD
ENDROOT
BRANCH   9  11
ATOM     11  C   UNL     1       6.325   5.298  18.895  0.00  0.00    +0.000 C 
ATOM     12  C   UNL     1       7.815   5.133  18.640  0.00  0.00    +0.000 C 
ATOM     13  C   UNL     1       7.124   6.382  18.199  0.00  0.00    +0.000 C 
ENDBRANCH   9  11
BRANCH   1  14
ATOM     14  C   UNL     1       5.021   6.028  16.211  0.00  0.00    +0.000 C 
BRANCH  14  18
ATOM     15  C   UNL     1       6.015   4.012  13.385  0.00  0.00    +0.000 A 
ATOM     16  C   UNL     1       7.293   4.325  13.790  0.00  0.00    +0.000 A 
ATOM     17  C   UNL     1       7.158   5.196  14.894  0.00  0.00    +0.000 A 
ATOM     18  C   UNL     1       5.806   5.372  15.113  0.00  0.00    +0.000 A 
ATOM     19  O   UNL     1       5.103   4.654  14.176  0.00  0.00    +0.000 OA
BRANCH  15  20
ATOM     20  C   UNL     1       5.498   3.086  12.339  0.00  0.00    +0.000 C 
BRANCH  20  22
ATOM     21  C   UNL     1       6.240   1.044  11.061  0.00  0.00    +0.000 C 
ATOM     22  C   UNL     1       6.615   2.448  11.519  0.00  0.00    +0.000 C 
ENDBRANCH  20  22
ENDBRANCH  15  20
ENDBRANCH  14  18
ENDBRANCH   1  14
TORSDOF 5
ENDMDL
MODEL 5
REMARK VINA RESULT:      -6.8      2.548      6.614
REMARK  Name = 
REMARK  6 active torsions:
REMARK  status: ('A' for Active; 'I' for Inactive)
REMARK    1  A    between atoms: C_1  and  C_2
REMARK    2  A    between atoms: C_2  and  C_3
REMARK    3  A    between atoms: C_3  and  C_4
REMARK    4  A    between atoms: C_7  and  C_8
REMARK    5  A    between atoms: C_8  and  N_9
REMARK    6  A    between atoms: C_17  and  C_18
REMARK                            x       y       z     vdW  Elec       q    Type
REMARK                         _______ _______ _______ _____ _____    ______ ____
ROOT
ATOM      1  N   UNL     1       5.166   5.271  17.938  0.00  0.00    +0.000 NA
ATOM      2  C   UNL     1       4.816   3.855  17.748  0.00  0.00    +0.000 C 
ATOM      3  C   UNL     1       4.597   3.451  16.262  0.00  0.00    +0.000 C 
ATOM      4  C   UNL     1       5.651   4.077  15.440  0.00  0.00    +0.000 A 
ATOM      5  N   UNL     1       6.085   3.732  14.197  0.00  0.00    +0.000 N 
ATOM      6  C   UNL     1       7.077   4.617  13.868  0.00  0.00    +0.000 A 
ATOM      7  N   UNL     1       7.271   5.506  14.816  0.00  0.00    +0.000 NA
ATOM      8  C   UNL     1       6.397   5.161  15.823  0.00  0.00    +0.000 A 
ATOM      9  C   UNL     1       6.315   5.832  17.180  0.00  0.00    +0.000 C 
ATOM     10  H   UNL     1       5.765   2.962  13.628  0.00  0.00    +0.000 HD
ENDROOT
BRANCH   9  11
ATOM     11  C   UNL     1       7.639   5.767  17.913  0.00  0.00    +0.000 C 
ATOM     12  C   UNL     1       8.181   7.018  18.585  0.00  0.00    +0.000 C 
ATOM     13  C   UNL     1       7.717   5.872  19.424  0.00  0.00    +0.000 C 
ENDBRANCH   9  11
BRANCH   1  14
ATOM     14  C   UNL     1       4.877   5.824  19.258  0.00  0.00    +0.000 C 
BRANCH  14  18
ATOM     15  C   UNL     1       1.876   4.341  20.610  0.00  0.00    +0.000 A 
ATOM     16  C   UNL     1       1.322   5.578  20.365  0.00  0.00    +0.000 A 
ATOM     17  C   UNL     1       2.367   6.389  19.868  0.00  0.00    +0.000 A 
ATOM     18  C   UNL     1       3.507   5.610  19.831  0.00  0.00    +0.000 A 
ATOM     19  O   UNL     1       3.207   4.354  20.299  0.00  0.00    +0.000 OA
BRANCH  15  20
ATOM     20  C   UNL     1       1.280   3.052  21.059  0.00  0.00    +0.000 C 
BRANCH  20  22
ATOM     21  C   UNL     1       0.881   2.424  18.650  0.00  0.00    +0.000 C 
ATOM     22  C   UNL     1       1.398   1.955  20.004  0.00  0.00    +0.000 C 
ENDBRANCH  20  22
ENDBRANCH  15  20
ENDBRANCH  14  18
ENDBRANCH   1  14
TORSDOF 5
ENDMDL
MODEL 6
REMARK VINA RESULT:      -6.7      2.507      3.898
REMARK  Name = 
REMARK  6 active torsions:
REMARK  status: ('A' for Active; 'I' for Inactive)
REMARK    1  A    between atoms: C_1  and  C_2
REMARK    2  A    between atoms: C_2  and  C_3
REMARK    3  A    between atoms: C_3  and  C_4
REMARK    4  A    between atoms: C_7  and  C_8
REMARK    5  A    between atoms: C_8  and  N_9
REMARK    6  A    between atoms: C_17  and  C_18
REMARK                            x       y       z     vdW  Elec       q    Type
REMARK                         _______ _______ _______ _____ _____    ______ ____
ROOT
ATOM      1  N   UNL     1       4.806   4.856  19.215  0.00  0.00    +0.000 NA
ATOM      2  C   UNL     1       4.851   3.452  18.780  0.00  0.00    +0.000 C 
ATOM      3  C   UNL     1       4.263   2.450  19.815  0.00  0.00    +0.000 C 
ATOM      4  C   UNL     1       3.024   3.019  20.376  0.00  0.00    +0.000 A 
ATOM      5  N   UNL     1       1.999   2.384  21.007  0.00  0.00    +0.000 N 
ATOM      6  C   UNL     1       1.084   3.348  21.339  0.00  0.00    +0.000 A 
ATOM      7  N   UNL     1       1.485   4.546  20.977  0.00  0.00    +0.000 NA
ATOM      8  C   UNL     1       2.693   4.350  20.346  0.00  0.00    +0.000 A 
ATOM      9  C   UNL     1       3.508   5.428  19.658  0.00  0.00    +0.000 C 
ATOM     10  H   UNL     1       1.907   1.394  21.182  0.00  0.00    +0.000 HD
ENDROOT
BRANCH   9  11
ATOM     11  C   UNL     1       2.717   6.107  18.560  0.00  0.00    +0.000 C 
ATOM     12  C   UNL     1       2.064   7.452  18.835  0.00  0.00    +0.000 C 
ATOM     13  C   UNL     1       3.215   7.370  17.886  0.00  0.00    +0.000 C 
ENDBRANCH   9  11
BRANCH   1  14
ATOM     14  C   UNL     1       5.768   5.749  18.574  0.00  0.00    +0.000 C 
BRANCH  14  18
ATOM     15  C   UNL     1       6.075   4.705  15.132  0.00  0.00    +0.000 A 
ATOM     16  C   UNL     1       7.404   4.532  15.449  0.00  0.00    +0.000 A 
ATOM     17  C   UNL     1       7.550   4.954  16.789  0.00  0.00    +0.000 A 
ATOM     18  C   UNL     1       6.306   5.362  17.228  0.00  0.00    +0.000 A 
ATOM     19  O   UNL     1       5.401   5.221  16.204  0.00  0.00    +0.000 OA
BRANCH  15  20
ATOM     20  C   UNL     1       5.289   4.371  13.912  0.00  0.00    +0.000 C 
BRANCH  20  22
ATOM     21  C   UNL     1       5.283   2.833  11.914  0.00  0.00    +0.000 C 
ATOM     22  C   UNL     1       6.136   3.693  12.837  0.00  0.00    +0.000 C 
ENDBRANCH  20  22
ENDBRANCH  15  20
ENDBRANCH  14  18
ENDBRANCH   1  14
TORSDOF 5
ENDMDL
MODEL 7
REMARK VINA RESULT:      -6.7      3.132      5.174
REMARK  Name = 
REMARK  6 active torsions:
REMARK  status: ('A' for Active; 'I' for Inactive)
REMARK    1  A    between atoms: C_1  and  C_2
REMARK    2  A    between atoms: C_2  and  C_3
REMARK    3  A    between atoms: C_3  and  C_4
REMARK    4  A    between atoms: C_7  and  C_8
REMARK    5  A    between atoms: C_8  and  N_9
REMARK    6  A    between atoms: C_17  and  C_18
REMARK                            x       y       z     vdW  Elec       q    Type
REMARK                         _______ _______ _______ _____ _____    ______ ____
ROOT
ATOM      1  N   UNL     1       3.345   5.186  17.646  0.00  0.00    +0.000 NA
ATOM      2  C   UNL     1       4.011   6.485  17.466  0.00  0.00    +0.000 C 
ATOM      3  C   UNL     1       3.128   7.707  17.852  0.00  0.00    +0.000 C 
ATOM      4  C   UNL     1       2.416   7.400  19.106  0.00  0.00    +0.000 A 
ATOM      5  N   UNL     1       1.847   8.256  19.999  0.00  0.00    +0.000 N 
ATOM      6  C   UNL     1       1.310   7.484  20.996  0.00  0.00    +0.000 A 
ATOM      7  N   UNL     1       1.487   6.202  20.768  0.00  0.00    +0.000 NA
ATOM      8  C   UNL     1       2.205   6.136  19.595  0.00  0.00    +0.000 A 
ATOM      9  C   UNL     1       2.745   4.866  18.967  0.00  0.00    +0.000 C 
ATOM     10  H   UNL     1       1.835   9.264  19.959  0.00  0.00    +0.000 HD
ENDROOT
BRANCH   9  11
ATOM     11  C   UNL     1       3.671   4.130  19.912  0.00  0.00    +0.000 C 
ATOM     12  C   UNL     1       3.136   2.954  20.714  0.00  0.00    +0.000 C 
ATOM     13  C   UNL     1       4.134   2.714  19.628  0.00  0.00    +0.000 C 
ENDBRANCH   9  11
BRANCH   1  14
ATOM     14  C   UNL     1       3.877   4.086  16.847  0.00  0.00    +0.000 C 
BRANCH  14  18
ATOM     15  C   UNL     1       6.359   4.201  14.227  0.00  0.00    +0.000 A 
ATOM     16  C   UNL     1       7.222   4.525  15.251  0.00  0.00    +0.000 A 
ATOM     17  C   UNL     1       6.435   4.605  16.422  0.00  0.00    +0.000 A 
ATOM     18  C   UNL     1       5.132   4.324  16.060  0.00  0.00    +0.000 A 
ATOM     19  O   UNL     1       5.084   4.088  14.707  0.00  0.00    +0.000 OA
BRANCH  15  20
ATOM     20  C   UNL     1       6.589   3.898  12.787  0.00  0.00    +0.000 C 
BRANCH  20  22
ATOM     21  C   UNL     1       5.725   1.952  11.437  0.00  0.00    +0.000 C 
ATOM     22  C   UNL     1       5.370   3.266  12.121  0.00  0.00    +0.000 C 
ENDBRANCH  20  22
ENDBRANCH  15  20
ENDBRANCH  14  18
ENDBRANCH   1  14
TORSDOF 5
ENDMDL
MODEL 8
REMARK VINA RESULT:      -6.6      2.074      4.019
REMARK  Name = 
REMARK  6 active torsions:
REMARK  status: ('A' for Active; 'I' for Inactive)
REMARK    1  A    between atoms: C_1  and  C_2
REMARK    2  A    between atoms: C_2  and  C_3
REMARK    3  A    between atoms: C_3  and  C_4
REMARK    4  A    between atoms: C_7  and  C_8
REMARK    5  A    between atoms: C_8  and  N_9
REMARK    6  A    between atoms: C_17  and  C_18
REMARK                            x       y       z     vdW  Elec       q    Type
REMARK                         _______ _______ _______ _____ _____    ______ ____
ROOT
ATOM      1  N   UNL     1       2.675   5.537  18.064  0.00  0.00    +0.000 NA
ATOM      2  C   UNL     1       3.454   6.745  17.749  0.00  0.00    +0.000 C 
ATOM      3  C   UNL     1       2.704   8.075  18.044  0.00  0.00    +0.000 C 
ATOM      4  C   UNL     1       2.009   7.951  19.339  0.00  0.00    +0.000 A 
ATOM      5  N   UNL     1       1.554   8.934  20.164  0.00  0.00    +0.000 N 
ATOM      6  C   UNL     1       0.982   8.309  21.241  0.00  0.00    +0.000 A 
ATOM      7  N   UNL     1       1.030   7.000  21.128  0.00  0.00    +0.000 NA
ATOM      8  C   UNL     1       1.698   6.762  19.947  0.00  0.00    +0.000 A 
ATOM      9  C   UNL     1       2.094   5.395  19.424  0.00  0.00    +0.000 C 
ATOM     10  H   UNL     1       1.636   9.931  20.033  0.00  0.00    +0.000 HD
ENDROOT
BRANCH   9  11
ATOM     11  C   UNL     1       2.979   4.659  20.408  0.00  0.00    +0.000 C 
ATOM     12  C   UNL     1       2.343   3.735  21.435  0.00  0.00    +0.000 C 
ATOM     13  C   UNL     1       3.173   3.157  20.334  0.00  0.00    +0.000 C 
ENDBRANCH   9  11
BRANCH   1  14
ATOM     14  C   UNL     1       3.074   4.323  17.356  0.00  0.00    +0.000 C 
BRANCH  14  18
ATOM     15  C   UNL     1       6.679   4.412  17.179  0.00  0.00    +0.000 A 
ATOM     16  C   UNL     1       6.478   4.222  15.830  0.00  0.00    +0.000 A 
ATOM     17  C   UNL     1       5.083   4.088  15.652  0.00  0.00    +0.000 A 
ATOM     18  C   UNL     1       4.498   4.206  16.898  0.00  0.00    +0.000 A 
ATOM     19  O   UNL     1       5.482   4.393  17.839  0.00  0.00    +0.000 OA
BRANCH  15  20
ATOM     20  C   UNL     1       7.906   4.695  17.975  0.00  0.00    +0.000 C 
BRANCH  20  22
ATOM     21  C   UNL     1       7.706   7.207  17.920  0.00  0.00    +0.000 C 
ATOM     22  C   UNL     1       7.784   5.970  18.805  0.00  0.00    +0.000 C 
ENDBRANCH  20  22
ENDBRANCH  15  20
ENDBRANCH  14  18
ENDBRANCH   1  14
TORSDOF 5
ENDMDL
MODEL 9
REMARK VINA RESULT:      -6.6      3.428      5.616
REMARK  Name = 
REMARK  6 active torsions:
REMARK  status: ('A' for Active; 'I' for Inactive)
REMARK    1  A    between atoms: C_1  and  C_2
REMARK    2  A    between atoms: C_2  and  C_3
REMARK    3  A    between atoms: C_3  and  C_4
REMARK    4  A    between atoms: C_7  and  C_8
REMARK    5  A    between atoms: C_8  and  N_9
REMARK    6  A    between atoms: C_17  and  C_18
REMARK                            x       y       z     vdW  Elec       q    Type
REMARK                         _______ _______ _______ _____ _____    ______ ____
ROOT
ATOM      1  N   UNL     1       5.786   4.600  16.680  0.00  0.00    +0.000 NA
ATOM      2  C   UNL     1       4.377   4.868  16.353  0.00  0.00    +0.000 C 
ATOM      3  C   UNL     1       3.392   3.776  16.858  0.00  0.00    +0.000 C 
ATOM      4  C   UNL     1       3.780   3.383  18.226  0.00  0.00    +0.000 A 
ATOM      5  N   UNL     1       3.034   2.767  19.184  0.00  0.00    +0.000 N 
ATOM      6  C   UNL     1       3.845   2.620  20.279  0.00  0.00    +0.000 A 
ATOM      7  N   UNL     1       5.054   3.084  20.055  0.00  0.00    +0.000 NA
ATOM      8  C   UNL     1       5.019   3.591  18.775  0.00  0.00    +0.000 A 
ATOM      9  C   UNL     1       6.154   4.330  18.094  0.00  0.00    +0.000 C 
ATOM     10  H   UNL     1       2.066   2.488  19.122  0.00  0.00    +0.000 HD
ENDROOT
BRANCH   9  11
ATOM     11  C   UNL     1       6.567   5.558  18.877  0.00  0.00    +0.000 C 
ATOM     12  C   UNL     1       7.936   5.593  19.539  0.00  0.00    +0.000 C 
ATOM     13  C   UNL     1       7.653   6.491  18.378  0.00  0.00    +0.000 C 
ENDBRANCH   9  11
BRANCH   1  14
ATOM     14  C   UNL     1       6.771   5.260  15.827  0.00  0.00    +0.000 C 
BRANCH  14  18
ATOM     15  C   UNL     1       6.061   3.812  12.596  0.00  0.00    +0.000 A 
ATOM     16  C   UNL     1       7.275   4.356  12.242  0.00  0.00    +0.000 A 
ATOM     17  C   UNL     1       7.741   5.059  13.375  0.00  0.00    +0.000 A 
ATOM     18  C   UNL     1       6.793   4.909  14.368  0.00  0.00    +0.000 A 
ATOM     19  O   UNL     1       5.753   4.153  13.884  0.00  0.00    +0.000 OA
BRANCH  15  20
ATOM     20  C   UNL     1       5.124   2.907  11.875  0.00  0.00    +0.000 C 
BRANCH  20  22
ATOM     21  C   UNL     1       3.058   2.732  10.441  0.00  0.00    +0.000 C 
ATOM     22  C   UNL     1       4.087   3.671  11.055  0.00  0.00    +0.000 C 
ENDBRANCH  20  22
ENDBRANCH  15  20
ENDBRANCH  14  18
ENDBRANCH   1  14
TORSDOF 5
ENDMDL
