MODEL 1
REMARK VINA RESULT:      -7.8      0.000      0.000
REMARK  Name = 
REMARK  3 active torsions:
REMARK  status: ('A' for Active; 'I' for Inactive)
REMARK    1  A    between atoms: C_1  and  C_2
REMARK    2  A    between atoms: C_14  and  C_15
REMARK    3  A    between atoms: C_15  and  N_16
REMARK                            x       y       z     vdW  Elec       q    Type
REMARK                         _______ _______ _______ _____ _____    ______ ____
ROOT
ATOM      1  C   UNL     1      -2.262  11.471  23.049  0.00  0.00    +0.000 C 
ATOM      2  C   UNL     1      -0.895  11.466  22.365  0.00  0.00    +0.000 C 
ATOM      3  C   UNL     1      -1.056  11.651  20.846  0.00  0.00    +0.000 C 
ATOM      4  C   UNL     1       0.254  11.410  20.094  0.00  0.00    +0.000 C 
ATOM      5  N   UNL     1       0.740  10.079  20.457  0.00  0.00    +0.000 N 
ATOM      6  C   UNL     1       1.377   9.325  19.510  0.00  0.00    +0.000 A 
ATOM      7  N   UNL     1       1.538   9.659  18.241  0.00  0.00    +0.000 NA
ATOM      8  N   UNL     1       2.304   8.751  17.537  0.00  0.00    +0.000 NA
ATOM      9  C   UNL     1       2.664   7.737  18.293  0.00  0.00    +0.000 A 
ATOM     10  N   UNL     1       3.580   6.759  17.858  0.00  0.00    +0.000 N 
ATOM     11  C   UNL     1       4.205   6.882  16.618  0.00  0.00    +0.000 A 
ATOM     12  C   UNL     1       5.140   5.895  16.451  0.00  0.00    +0.000 A 
ATOM     13  C   UNL     1       5.071   5.088  17.594  0.00  0.00    +0.000 A 
ATOM     14  C   UNL     1       4.085   5.588  18.440  0.00  0.00    +0.000 A 
ATOM     15  S   UNL     1       2.019   7.746  19.844  0.00  0.00    +0.000 S 
ATOM     16  C   UNL     1       1.098   9.952  21.868  0.00  0.00    +0.000 C 
ATOM     17  C   UNL     1      -0.151  10.168  22.715  0.00  0.00    +0.000 C 
ENDROOT
BRANCH  14  18
ATOM     18  C   UNL     1       3.579   4.866  19.666  0.00  0.00    +0.000 C 
BRANCH  18  19
ATOM     19  N   UNL     1       2.933   3.557  19.438  0.00  0.00    +0.000 NA
ATOM     20  C   UNL     1       1.507   3.626  19.069  0.00  0.00    +0.000 C 
ATOM     21  C   UNL     1       0.753   3.746  20.379  0.00  0.00    +0.000 C 
ATOM     22  C   UNL     1       1.514   2.789  21.271  0.00  0.00    +0.000 C 
ATOM     23  C   UNL     1       2.937   2.784  20.710  0.00  0.00    +0.000 C 
ENDBRANCH  18  19
ENDBRANCH  14  18
TORSDOF 2
ENDMDL
MODEL 2
REMARK VINA RESULT:      -7.4      1.994      4.304
REMARK  Name = 
REMARK  3 active torsions:
REMARK  status: ('A' for Active; 'I' for Inactive)
REMARK    1  A    between atoms: C_1  and  C_2
REMARK    2  A    between atoms: C_14  and  C_15
REMARK    3  A    between atoms: C_15  and  N_16
REMARK                            x       y       z     vdW  Elec       q    Type
REMARK                         _______ _______ _______ _____ _____    ______ ____
ROOT
ATOM      1  C   UNL     1       1.819  13.093  19.514  0.00  0.00    +0.000 C 
ATOM      2  C   UNL     1       1.129  11.742  19.330  0.00  0.00    +0.000 C 
ATOM      3  C   UNL     1       1.082  10.979  20.666  0.00  0.00    +0.000 C 
ATOM      4  C   UNL     1       0.624   9.530  20.487  0.00  0.00    +0.000 C 
ATOM      5  N   UNL     1       1.505   8.901  19.502  0.00  0.00    +0.000 N 
ATOM      6  C   UNL     1       1.838   7.584  19.658  0.00  0.00    +0.000 A 
ATOM      7  N   UNL     1       1.492   6.818  20.679  0.00  0.00    +0.000 NA
ATOM      8  N   UNL     1       1.885   5.503  20.524  0.00  0.00    +0.000 NA
ATOM      9  C   UNL     1       2.553   5.329  19.405  0.00  0.00    +0.000 A 
ATOM     10  N   UNL     1       2.924   4.052  18.937  0.00  0.00    +0.000 N 
ATOM     11  C   UNL     1       2.519   2.907  19.622  0.00  0.00    +0.000 A 
ATOM     12  C   UNL     1       2.882   1.781  18.931  0.00  0.00    +0.000 A 
ATOM     13  C   UNL     1       3.587   2.220  17.803  0.00  0.00    +0.000 A 
ATOM     14  C   UNL     1       3.654   3.610  17.825  0.00  0.00    +0.000 A 
ATOM     15  S   UNL     1       2.850   6.733  18.531  0.00  0.00    +0.000 S 
ATOM     16  C   UNL     1       1.402   9.486  18.168  0.00  0.00    +0.000 C 
ATOM     17  C   UNL     1       1.847  10.943  18.232  0.00  0.00    +0.000 C 
ENDROOT
BRANCH  14  18
ATOM     18  C   UNL     1       4.510   4.430  16.889  0.00  0.00    +0.000 C 
BRANCH  18  19
ATOM     19  N   UNL     1       5.972   4.275  17.033  0.00  0.00    +0.000 NA
ATOM     20  C   UNL     1       6.514   4.689  18.340  0.00  0.00    +0.000 C 
ATOM     21  C   UNL     1       6.703   6.191  18.244  0.00  0.00    +0.000 C 
ATOM     22  C   UNL     1       7.239   6.354  16.838  0.00  0.00    +0.000 C 
ATOM     23  C   UNL     1       6.654   5.173  16.061  0.00  0.00    +0.000 C 
ENDBRANCH  18  19
ENDBRANCH  14  18
TORSDOF 2
ENDMDL
MODEL 3
REMARK VINA RESULT:      -7.4      0.820      1.271
REMARK  Name = 
REMARK  3 active torsions:
REMARK  status: ('A' for Active; 'I' for Inactive)
REMARK    1  A    between atoms: C_1  and  C_2
REMARK    2  A    between atoms: C_14  and  C_15
REMARK    3  A    between atoms: C_15  and  N_16
REMARK                            x       y       z     vdW  Elec       q    Type
REMARK                         _______ _______ _______ _____ _____    ______ ____
ROOT
ATOM      1  C   UNL     1      -2.649  11.913  22.989  0.00  0.00    +0.000 C 
ATOM      2  C   UNL     1      -1.221  11.775  22.460  0.00  0.00    +0.000 C 
ATOM      3  C   UNL     1      -1.196  11.953  20.932  0.00  0.00    +0.000 C 
ATOM      4  C   UNL     1       0.161  11.583  20.331  0.00  0.00    +0.000 C 
ATOM      5  N   UNL     1       0.480  10.219  20.751  0.00  0.00    +0.000 N 
ATOM      6  C   UNL     1       1.145   9.398  19.882  0.00  0.00    +0.000 A 
ATOM      7  N   UNL     1       1.475   9.698  18.638  0.00  0.00    +0.000 NA
ATOM      8  N   UNL     1       2.228   8.715  18.026  0.00  0.00    +0.000 NA
ATOM      9  C   UNL     1       2.408   7.683  18.821  0.00  0.00    +0.000 A 
ATOM     10  N   UNL     1       3.272   6.619  18.494  0.00  0.00    +0.000 N 
ATOM     11  C   UNL     1       4.038   6.668  17.330  0.00  0.00    +0.000 A 
ATOM     12  C   UNL     1       4.891   5.598  17.272  0.00  0.00    +0.000 A 
ATOM     13  C   UNL     1       4.623   4.816  18.403  0.00  0.00    +0.000 A 
ATOM     14  C   UNL     1       3.600   5.415  19.133  0.00  0.00    +0.000 A 
ATOM     15  S   UNL     1       1.599   7.772  20.292  0.00  0.00    +0.000 S 
ATOM     16  C   UNL     1       0.667  10.080  22.192  0.00  0.00    +0.000 C 
ATOM     17  C   UNL     1      -0.641  10.420  22.895  0.00  0.00    +0.000 C 
ENDROOT
BRANCH  14  18
ATOM     18  C   UNL     1       2.898   4.760  20.298  0.00  0.00    +0.000 C 
BRANCH  18  19
ATOM     19  N   UNL     1       1.598   4.121  20.006  0.00  0.00    +0.000 NA
ATOM     20  C   UNL     1       1.466   2.736  20.494  0.00  0.00    +0.000 C 
ATOM     21  C   UNL     1       2.107   1.868  19.429  0.00  0.00    +0.000 C 
ATOM     22  C   UNL     1       1.638   2.532  18.153  0.00  0.00    +0.000 C 
ATOM     23  C   UNL     1       1.436   4.000  18.532  0.00  0.00    +0.000 C 
ENDBRANCH  18  19
ENDBRANCH  14  18
TORSDOF 2
ENDMDL
MODEL 4
REMARK VINA RESULT:      -7.1      1.835      4.171
REMARK  Name = 
REMARK  3 active torsions:
REMARK  status: ('A' for Active; 'I' for Inactive)
REMARK    1  A    between atoms: C_1  and  C_2
REMARK    2  A    between atoms: C_14  and  C_15
REMARK    3  A    between atoms: C_15  and  N_16
REMARK                            x       y       z     vdW  Elec       q    Type
REMARK                         _______ _______ _______ _____ _____    ______ ____
ROOT
ATOM      1  C   UNL     1       1.435  13.349  19.411  0.00  0.00    +0.000 C 
ATOM      2  C   UNL     1       0.785  11.968  19.338  0.00  0.00    +0.000 C 
ATOM      3  C   UNL     1       0.872  11.263  20.704  0.00  0.00    +0.000 C 
ATOM      4  C   UNL     1       0.458   9.793  20.620  0.00  0.00    +0.000 C 
ATOM      5  N   UNL     1       1.282   9.153  19.595  0.00  0.00    +0.000 N 
ATOM      6  C   UNL     1       1.677   7.856  19.777  0.00  0.00    +0.000 A 
ATOM      7  N   UNL     1       1.441   7.123  20.852  0.00  0.00    +0.000 NA
ATOM      8  N   UNL     1       1.872   5.817  20.721  0.00  0.00    +0.000 NA
ATOM      9  C   UNL     1       2.456   5.618  19.560  0.00  0.00    +0.000 A 
ATOM     10  N   UNL     1       2.838   4.337  19.116  0.00  0.00    +0.000 N 
ATOM     11  C   UNL     1       2.532   3.209  19.877  0.00  0.00    +0.000 A 
ATOM     12  C   UNL     1       2.884   2.068  19.206  0.00  0.00    +0.000 A 
ATOM     13  C   UNL     1       3.481   2.481  18.008  0.00  0.00    +0.000 A 
ATOM     14  C   UNL     1       3.495   3.872  17.969  0.00  0.00    +0.000 A 
ATOM     15  S   UNL     1       2.630   6.993  18.609  0.00  0.00    +0.000 S 
ATOM     16  C   UNL     1       1.053   9.675  18.251  0.00  0.00    +0.000 C 
ATOM     17  C   UNL     1       1.445  11.147  18.220  0.00  0.00    +0.000 C 
ENDROOT
BRANCH  14  18
ATOM     18  C   UNL     1       4.244   4.680  16.935  0.00  0.00    +0.000 C 
BRANCH  18  19
ATOM     19  N   UNL     1       5.338   5.537  17.438  0.00  0.00    +0.000 NA
ATOM     20  C   UNL     1       6.207   6.109  16.393  0.00  0.00    +0.000 C 
ATOM     21  C   UNL     1       7.225   5.030  16.078  0.00  0.00    +0.000 C 
ATOM     22  C   UNL     1       7.537   4.477  17.452  0.00  0.00    +0.000 C 
ATOM     23  C   UNL     1       6.262   4.713  18.263  0.00  0.00    +0.000 C 
ENDBRANCH  18  19
ENDBRANCH  14  18
TORSDOF 2
ENDMDL
MODEL 5
REMARK VINA RESULT:      -7.0      1.942      4.039
REMARK  Name = 
REMARK  3 active torsions:
REMARK  status: ('A' for Active; 'I' for Inactive)
REMARK    1  A    between atoms: C_1  and  C_2
REMARK    2  A    between atoms: C_14  and  C_15
REMARK    3  A    between atoms: C_15  and  N_16
REMARK                            x       y       z     vdW  Elec       q    Type
REMARK                         _______ _______ _______ _____ _____    ______ ____
ROOT
ATOM      1  C   UNL     1       0.745  12.997  21.151  0.00  0.00    +0.000 C 
ATOM      2  C   UNL     1       0.269  11.633  20.651  0.00  0.00    +0.000 C 
ATOM      3  C   UNL     1       0.285  10.607  21.798  0.00  0.00    +0.000 C 
ATOM      4  C   UNL     1       0.055   9.180  21.298  0.00  0.00    +0.000 C 
ATOM      5  N   UNL     1       1.055   8.899  20.269  0.00  0.00    +0.000 N 
ATOM      6  C   UNL     1       1.574   7.636  20.176  0.00  0.00    +0.000 A 
ATOM      7  N   UNL     1       1.307   6.633  20.995  0.00  0.00    +0.000 NA
ATOM      8  N   UNL     1       1.897   5.446  20.604  0.00  0.00    +0.000 NA
ATOM      9  C   UNL     1       2.624   5.605  19.520  0.00  0.00    +0.000 A 
ATOM     10  N   UNL     1       3.197   4.518  18.830  0.00  0.00    +0.000 N 
ATOM     11  C   UNL     1       2.941   3.211  19.240  0.00  0.00    +0.000 A 
ATOM     12  C   UNL     1       3.493   2.316  18.362  0.00  0.00    +0.000 A 
ATOM     13  C   UNL     1       4.167   3.074  17.396  0.00  0.00    +0.000 A 
ATOM     14  C   UNL     1       4.026   4.424  17.704  0.00  0.00    +0.000 A 
ATOM     15  S   UNL     1       2.742   7.189  18.972  0.00  0.00    +0.000 S 
ATOM     16  C   UNL     1       0.917   9.731  19.077  0.00  0.00    +0.000 C 
ATOM     17  C   UNL     1       1.139  11.189  19.464  0.00  0.00    +0.000 C 
ENDROOT
BRANCH  14  18
ATOM     18  C   UNL     1       4.786   5.532  17.013  0.00  0.00    +0.000 C 
BRANCH  18  19
ATOM     19  N   UNL     1       6.238   5.321  16.837  0.00  0.00    +0.000 NA
ATOM     20  C   UNL     1       6.911   4.666  17.973  0.00  0.00    +0.000 C 
ATOM     21  C   UNL     1       7.214   5.776  18.961  0.00  0.00    +0.000 C 
ATOM     22  C   UNL     1       7.651   6.902  18.048  0.00  0.00    +0.000 C 
ATOM     23  C   UNL     1       6.913   6.643  16.733  0.00  0.00    +0.000 C 
ENDBRANCH  18  19
ENDBRANCH  14  18
TORSDOF 2
ENDMDL
MODEL 6
REMARK VINA RESULT:      -6.8      1.027      1.293
REMARK  Name = 
REMARK  3 active torsions:
REMARK  status: ('A' for Active; 'I' for Inactive)
REMARK    1  A    between atoms: C_1  and  C_2
REMARK    2  A    between atoms: C_14  and  C_15
REMARK    3  A    between atoms: C_15  and  N_16
REMARK                            x       y       z     vdW  Elec       q    Type
REMARK                         _______ _______ _______ _____ _____    ______ ____
ROOT
ATOM      1  C   UNL     1      -2.364  11.870  20.955  0.00  0.00    +0.000 C 
ATOM      2  C   UNL     1      -0.885  11.698  20.608  0.00  0.00    +0.000 C 
ATOM      3  C   UNL     1      -0.695  11.655  19.081  0.00  0.00    +0.000 C 
ATOM      4  C   UNL     1       0.724  11.241  18.689  0.00  0.00    +0.000 C 
ATOM      5  N   UNL     1       1.012   9.961  19.335  0.00  0.00    +0.000 N 
ATOM      6  C   UNL     1       1.779   9.042  18.672  0.00  0.00    +0.000 A 
ATOM      7  N   UNL     1       2.240   9.170  17.439  0.00  0.00    +0.000 NA
ATOM      8  N   UNL     1       3.067   8.130  17.062  0.00  0.00    +0.000 NA
ATOM      9  C   UNL     1       3.172   7.229  18.013  0.00  0.00    +0.000 A 
ATOM     10  N   UNL     1       4.080   6.154  17.940  0.00  0.00    +0.000 N 
ATOM     11  C   UNL     1       4.968   6.056  16.870  0.00  0.00    +0.000 A 
ATOM     12  C   UNL     1       5.836   5.014  17.060  0.00  0.00    +0.000 A 
ATOM     13  C   UNL     1       5.455   4.396  18.258  0.00  0.00    +0.000 A 
ATOM     14  C   UNL     1       4.351   5.064  18.778  0.00  0.00    +0.000 A 
ATOM     15  S   UNL     1       2.205   7.505  19.360  0.00  0.00    +0.000 S 
ATOM     16  C   UNL     1       1.042  10.036  20.793  0.00  0.00    +0.000 C 
ATOM     17  C   UNL     1      -0.340  10.436  21.295  0.00  0.00    +0.000 C 
ENDROOT
BRANCH  14  18
ATOM     18  C   UNL     1       3.533   4.564  19.945  0.00  0.00    +0.000 C 
BRANCH  18  19
ATOM     19  N   UNL     1       3.021   3.181  19.843  0.00  0.00    +0.000 NA
ATOM     20  C   UNL     1       2.543   2.796  18.503  0.00  0.00    +0.000 C 
ATOM     21  C   UNL     1       1.118   3.308  18.417  0.00  0.00    +0.000 C 
ATOM     22  C   UNL     1       0.586   2.999  19.800  0.00  0.00    +0.000 C 
ATOM     23  C   UNL     1       1.817   3.044  20.707  0.00  0.00    +0.000 C 
ENDBRANCH  18  19
ENDBRANCH  14  18
TORSDOF 2
ENDMDL
MODEL 7
REMARK VINA RESULT:      -6.7      2.180      8.098
REMARK  Name = 
REMARK  3 active torsions:
REMARK  status: ('A' for Active; 'I' for Inactive)
REMARK    1  A    between atoms: C_1  and  C_2
REMARK    2  A    between atoms: C_14  and  C_15
REMARK    3  A    between atoms: C_15  and  N_16
REMARK                            x       y       z     vdW  Elec       q    Type
REMARK                         _______ _______ _______ _____ _____    ______ ____
ROOT
ATOM      1  C   UNL     1       5.527   4.448  14.545  0.00  0.00    +0.000 C 
ATOM      2  C   UNL     1       5.495   4.888  16.008  0.00  0.00    +0.000 C 
ATOM      3  C   UNL     1       4.503   4.022  16.806  0.00  0.00    +0.000 C 
ATOM      4  C   UNL     1       4.253   4.578  18.209  0.00  0.00    +0.000 C 
ATOM      5  N   UNL     1       3.814   5.966  18.070  0.00  0.00    +0.000 N 
ATOM      6  C   UNL     1       2.881   6.456  18.942  0.00  0.00    +0.000 A 
ATOM      7  N   UNL     1       2.264   5.758  19.881  0.00  0.00    +0.000 NA
ATOM      8  N   UNL     1       1.443   6.533  20.677  0.00  0.00    +0.000 NA
ATOM      9  C   UNL     1       1.438   7.788  20.285  0.00  0.00    +0.000 A 
ATOM     10  N   UNL     1       0.810   8.809  21.026  0.00  0.00    +0.000 N 
ATOM     11  C   UNL     1       0.228   8.525  22.261  0.00  0.00    +0.000 A 
ATOM     12  C   UNL     1      -0.213   9.675  22.860  0.00  0.00    +0.000 A 
ATOM     13  C   UNL     1       0.044  10.714  21.957  0.00  0.00    +0.000 A 
ATOM     14  C   UNL     1       0.631  10.182  20.812  0.00  0.00    +0.000 A 
ATOM     15  S   UNL     1       2.314   8.096  18.884  0.00  0.00    +0.000 S 
ATOM     16  C   UNL     1       4.832   6.847  17.503  0.00  0.00    +0.000 C 
ATOM     17  C   UNL     1       5.152   6.384  16.087  0.00  0.00    +0.000 C 
ENDROOT
BRANCH  14  18
ATOM     18  C   UNL     1       0.858  10.962  19.539  0.00  0.00    +0.000 C 
BRANCH  18  19
ATOM     19  N   UNL     1       0.755  12.432  19.642  0.00  0.00    +0.000 NA
ATOM     20  C   UNL     1       0.777  13.147  18.353  0.00  0.00    +0.000 C 
ATOM     21  C   UNL     1       2.243  13.295  17.995  0.00  0.00    +0.000 C 
ATOM     22  C   UNL     1       2.865  13.624  19.336  0.00  0.00    +0.000 C 
ATOM     23  C   UNL     1       1.949  12.954  20.362  0.00  0.00    +0.000 C 
ENDBRANCH  18  19
ENDBRANCH  14  18
TORSDOF 2
ENDMDL
MODEL 8
REMARK VINA RESULT:      -6.7      1.933      4.197
REMARK  Name = 
REMARK  3 active torsions:
REMARK  status: ('A' for Active; 'I' for Inactive)
REMARK    1  A    between atoms: C_1  and  C_2
REMARK    2  A    between atoms: C_14  and  C_15
REMARK    3  A    between atoms: C_15  and  N_16
REMARK                            x       y       z     vdW  Elec       q    Type
REMARK                         _______ _______ _______ _____ _____    ______ ____
ROOT
ATOM      1  C   UNL     1       2.516  13.823  19.094  0.00  0.00    +0.000 C 
ATOM      2  C   UNL     1       1.615  12.588  19.091  0.00  0.00    +0.000 C 
ATOM      3  C   UNL     1       1.532  11.983  20.503  0.00  0.00    +0.000 C 
ATOM      4  C   UNL     1       0.848  10.615  20.505  0.00  0.00    +0.000 C 
ATOM      5  N   UNL     1       1.559   9.757  19.558  0.00  0.00    +0.000 N 
ATOM      6  C   UNL     1       1.695   8.426  19.844  0.00  0.00    +0.000 A 
ATOM      7  N   UNL     1       1.298   7.833  20.957  0.00  0.00    +0.000 NA
ATOM      8  N   UNL     1       1.474   6.463  20.931  0.00  0.00    +0.000 NA
ATOM      9  C   UNL     1       2.038   6.071  19.810  0.00  0.00    +0.000 A 
ATOM     10  N   UNL     1       2.179   4.711  19.470  0.00  0.00    +0.000 N 
ATOM     11  C   UNL     1       1.645   3.722  20.294  0.00  0.00    +0.000 A 
ATOM     12  C   UNL     1       1.788   2.488  19.717  0.00  0.00    +0.000 A 
ATOM     13  C   UNL     1       2.483   2.691  18.517  0.00  0.00    +0.000 A 
ATOM     14  C   UNL     1       2.764   4.047  18.383  0.00  0.00    +0.000 A 
ATOM     15  S   UNL     1       2.494   7.314  18.775  0.00  0.00    +0.000 S 
ATOM     16  C   UNL     1       1.467  10.211  18.173  0.00  0.00    +0.000 C 
ATOM     17  C   UNL     1       2.135  11.577  18.057  0.00  0.00    +0.000 C 
ENDROOT
BRANCH  14  18
ATOM     18  C   UNL     1       3.678   4.620  17.326  0.00  0.00    +0.000 C 
BRANCH  18  19
ATOM     19  N   UNL     1       5.068   4.121  17.320  0.00  0.00    +0.000 NA
ATOM     20  C   UNL     1       5.855   4.464  18.518  0.00  0.00    +0.000 C 
ATOM     21  C   UNL     1       6.380   5.866  18.272  0.00  0.00    +0.000 C 
ATOM     22  C   UNL     1       6.755   5.811  16.806  0.00  0.00    +0.000 C 
ATOM     23  C   UNL     1       5.812   4.767  16.204  0.00  0.00    +0.000 C 
ENDBRANCH  18  19
ENDBRANCH  14  18
TORSDOF 2
ENDMDL
MODEL 9
REMARK VINA RESULT:      -6.6      2.231      7.911
REMARK  Name = 
REMARK  3 active torsions:
REMARK  status: ('A' for Active; 'I' for Inactive)
REMARK    1  A    between atoms: C_1  and  C_2
REMARK    2  A    between atoms: C_14  and  C_15
REMARK    3  A    between atoms: C_15  and  N_16
REMARK                            x       y       z     vdW  Elec       q    Type
REMARK                         _______ _______ _______ _____ _____    ______ ____
ROOT
ATOM      1  C   UNL     1       5.510   4.325  14.244  0.00  0.00    +0.000 C 
ATOM      2  C   UNL     1       5.534   4.802  15.696  0.00  0.00    +0.000 C 
ATOM      3  C   UNL     1       4.575   3.956  16.552  0.00  0.00    +0.000 C 
ATOM      4  C   UNL     1       4.379   4.546  17.950  0.00  0.00    +0.000 C 
ATOM      5  N   UNL     1       3.934   5.931  17.794  0.00  0.00    +0.000 N 
ATOM      6  C   UNL     1       3.034   6.442  18.689  0.00  0.00    +0.000 A 
ATOM      7  N   UNL     1       2.455   5.768  19.668  0.00  0.00    +0.000 NA
ATOM      8  N   UNL     1       1.665   6.562  20.477  0.00  0.00    +0.000 NA
ATOM      9  C   UNL     1       1.644   7.807  20.055  0.00  0.00    +0.000 A 
ATOM     10  N   UNL     1       1.044   8.846  20.794  0.00  0.00    +0.000 N 
ATOM     11  C   UNL     1       0.511   8.592  22.057  0.00  0.00    +0.000 A 
ATOM     12  C   UNL     1       0.092   9.757  22.644  0.00  0.00    +0.000 A 
ATOM     13  C   UNL     1       0.313  10.774  21.706  0.00  0.00    +0.000 A 
ATOM     14  C   UNL     1       0.855  10.213  20.553  0.00  0.00    +0.000 A 
ATOM     15  S   UNL     1       2.464   8.080  18.613  0.00  0.00    +0.000 S 
ATOM     16  C   UNL     1       4.927   6.797  17.166  0.00  0.00    +0.000 C 
ATOM     17  C   UNL     1       5.192   6.299  15.750  0.00  0.00    +0.000 C 
ENDROOT
BRANCH  14  18
ATOM     18  C   UNL     1       1.032  10.961  19.252  0.00  0.00    +0.000 C 
BRANCH  18  19
ATOM     19  N   UNL     1      -0.178  11.126  18.420  0.00  0.00    +0.000 NA
ATOM     20  C   UNL     1      -0.537  12.523  18.118  0.00  0.00    +0.000 C 
ATOM     21  C   UNL     1      -1.323  13.010  19.320  0.00  0.00    +0.000 C 
ATOM     22  C   UNL     1      -2.176  11.804  19.651  0.00  0.00    +0.000 C 
ATOM     23  C   UNL     1      -1.357  10.606  19.167  0.00  0.00    +0.000 C 
ENDBRANCH  18  19
ENDBRANCH  14  18
TORSDOF 2
ENDMDL
