MODEL 1
REMARK VINA RESULT:      -7.0      0.000      0.000
REMARK  Name = 
REMARK  7 active torsions:
REMARK  status: ('A' for Active; 'I' for Inactive)
REMARK    1  A    between atoms: C_1  and  C_2
REMARK    2  A    between atoms: C_5  and  C_6
REMARK    3  A    between atoms: C_6  and  N_7
REMARK    4  A    between atoms: C_9  and  C_10
REMARK    5  A    between atoms: C_10  and  S_11
REMARK    6  A    between atoms: S_11  and  C_12
REMARK    7  A    between atoms: C_12  and  N_14
REMARK                            x       y       z     vdW  Elec       q    Type
REMARK                         _______ _______ _______ _____ _____    ______ ____
ROOT
ATOM      1  N   UNL     1       1.268   9.709  18.659  0.00  0.00    +0.000 N 
ATOM      2  C   UNL     1       1.319   8.718  19.593  0.00  0.00    +0.000 A 
ATOM      3  C   UNL     1       2.156   7.767  19.042  0.00  0.00    +0.000 A 
ATOM      4  N   UNL     1       2.569   8.212  17.809  0.00  0.00    +0.000 NA
ATOM      5  N   UNL     1       2.025   9.404  17.591  0.00  0.00    +0.000 NA
ENDROOT
BRANCH   1   6
ATOM      6  C   UNL     1       0.687  11.031  18.813  0.00  0.00    +0.000 C 
BRANCH   6  11
ATOM      7  C   UNL     1      -5.071  10.969  17.909  0.00  0.00    +0.000 C 
ATOM      8  C   UNL     1      -3.583  11.014  18.096  0.00  0.00    +0.000 A 
ATOM      9  C   UNL     1      -2.741  10.152  17.386  0.00  0.00    +0.000 A 
ATOM     10  C   UNL     1      -1.358  10.179  17.596  0.00  0.00    +0.000 A 
ATOM     11  C   UNL     1      -0.791  11.068  18.523  0.00  0.00    +0.000 A 
ATOM     12  C   UNL     1      -1.640  11.937  19.223  0.00  0.00    +0.000 A 
ATOM     13  C   UNL     1      -3.020  11.910  19.011  0.00  0.00    +0.000 A 
ENDBRANCH   6  11
ENDBRANCH   1   6
BRANCH   3  14
ATOM     14  C   UNL     1       2.669   6.482  19.601  0.00  0.00    +0.000 C 
BRANCH  14  15
ATOM     15  S   UNL     1       2.589   5.149  18.368  0.00  0.00    +0.000 S 
BRANCH  15  16
ATOM     16  C   UNL     1       4.127   4.305  18.535  0.00  0.00    +0.000 C 
ATOM     17  S   UNL     1       4.291   2.869  19.394  0.00  0.00    +0.000 S 
BRANCH  16  18
ATOM     18  N   UNL     1       5.161   4.884  17.794  0.00  0.00    +0.000 N 
ATOM     19  C   UNL     1       6.580   4.865  18.196  0.00  0.00    +0.000 C 
ATOM     20  C   UNL     1       7.484   4.533  16.993  0.00  0.00    +0.000 C 
ATOM     21  N   UNL     1       7.271   5.428  15.844  0.00  0.00    +0.000 NA
ATOM     22  C   UNL     1       5.849   5.422  15.458  0.00  0.00    +0.000 C 
ATOM     23  C   UNL     1       4.913   5.755  16.631  0.00  0.00    +0.000 C 
ATOM     24  H   UNL     1       7.830   5.100  15.057  0.00  0.00    +0.000 HD
ENDBRANCH  16  18
ENDBRANCH  15  16
ENDBRANCH  14  15
ENDBRANCH   3  14
TORSDOF 6
ENDMDL
MODEL 2
REMARK VINA RESULT:      -6.9      0.993      1.718
REMARK  Name = 
REMARK  7 active torsions:
REMARK  status: ('A' for Active; 'I' for Inactive)
REMARK    1  A    between atoms: C_1  and  C_2
REMARK    2  A    between atoms: C_5  and  C_6
REMARK    3  A    between atoms: C_6  and  N_7
REMARK    4  A    between atoms: C_9  and  C_10
REMARK    5  A    between atoms: C_10  and  S_11
REMARK    6  A    between atoms: S_11  and  C_12
REMARK    7  A    between atoms: C_12  and  N_14
REMARK                            x       y       z     vdW  Elec       q    Type
REMARK                         _______ _______ _______ _____ _____    ______ ____
ROOT
ATOM      1  N   UNL     1       1.481   9.737  18.911  0.00  0.00    +0.000 N 
ATOM      2  C   UNL     1       2.137   8.975  17.993  0.00  0.00    +0.000 A 
ATOM      3  C   UNL     1       2.335   7.764  18.627  0.00  0.00    +0.000 A 
ATOM      4  N   UNL     1       1.801   7.842  19.891  0.00  0.00    +0.000 NA
ATOM      5  N   UNL     1       1.275   9.050  20.049  0.00  0.00    +0.000 NA
ENDROOT
BRANCH   1   6
ATOM      6  C   UNL     1       0.859  11.031  18.695  0.00  0.00    +0.000 C 
BRANCH   6  11
ATOM      7  C   UNL     1      -4.889  10.915  17.740  0.00  0.00    +0.000 C 
ATOM      8  C   UNL     1      -3.418  10.917  18.032  0.00  0.00    +0.000 A 
ATOM      9  C   UNL     1      -2.866  11.819  18.946  0.00  0.00    +0.000 A 
ATOM     10  C   UNL     1      -1.487  11.835  19.183  0.00  0.00    +0.000 A 
ATOM     11  C   UNL     1      -0.634  10.950  18.506  0.00  0.00    +0.000 A 
ATOM     12  C   UNL     1      -1.195  10.040  17.598  0.00  0.00    +0.000 A 
ATOM     13  C   UNL     1      -2.572  10.025  17.365  0.00  0.00    +0.000 A 
ENDBRANCH   6  11
ENDBRANCH   1   6
BRANCH   3  14
ATOM     14  C   UNL     1       2.932   6.489  18.127  0.00  0.00    +0.000 C 
BRANCH  14  15
ATOM     15  S   UNL     1       3.713   5.555  19.476  0.00  0.00    +0.000 S 
BRANCH  15  16
ATOM     16  C   UNL     1       4.451   4.168  18.678  0.00  0.00    +0.000 C 
ATOM     17  S   UNL     1       3.834   2.609  18.805  0.00  0.00    +0.000 S 
BRANCH  16  18
ATOM     18  N   UNL     1       5.520   4.510  17.846  0.00  0.00    +0.000 N 
ATOM     19  C   UNL     1       5.619   4.131  16.425  0.00  0.00    +0.000 C 
ATOM     20  C   UNL     1       6.104   5.322  15.574  0.00  0.00    +0.000 C 
ATOM     21  N   UNL     1       7.369   5.900  16.057  0.00  0.00    +0.000 NA
ATOM     22  C   UNL     1       7.241   6.277  17.476  0.00  0.00    +0.000 C 
ATOM     23  C   UNL     1       6.764   5.113  18.360  0.00  0.00    +0.000 C 
ATOM     24  H   UNL     1       7.585   6.733  15.511  0.00  0.00    +0.000 HD
ENDBRANCH  16  18
ENDBRANCH  15  16
ENDBRANCH  14  15
ENDBRANCH   3  14
TORSDOF 6
ENDMDL
MODEL 3
REMARK VINA RESULT:      -6.8      0.516      1.099
REMARK  Name = 
REMARK  7 active torsions:
REMARK  status: ('A' for Active; 'I' for Inactive)
REMARK    1  A    between atoms: C_1  and  C_2
REMARK    2  A    between atoms: C_5  and  C_6
REMARK    3  A    between atoms: C_6  and  N_7
REMARK    4  A    between atoms: C_9  and  C_10
REMARK    5  A    between atoms: C_10  and  S_11
REMARK    6  A    between atoms: S_11  and  C_12
REMARK    7  A    between atoms: C_12  and  N_14
REMARK                            x       y       z     vdW  Elec       q    Type
REMARK                         _______ _______ _______ _____ _____    ______ ____
ROOT
ATOM      1  N   UNL     1       1.385   9.515  18.599  0.00  0.00    +0.000 N 
ATOM      2  C   UNL     1       1.462   8.578  19.585  0.00  0.00    +0.000 A 
ATOM      3  C   UNL     1       2.246   7.575  19.047  0.00  0.00    +0.000 A 
ATOM      4  N   UNL     1       2.603   7.938  17.771  0.00  0.00    +0.000 NA
ATOM      5  N   UNL     1       2.077   9.130  17.513  0.00  0.00    +0.000 NA
ENDROOT
BRANCH   1   6
ATOM      6  C   UNL     1       0.845  10.858  18.705  0.00  0.00    +0.000 C 
BRANCH   6  11
ATOM      7  C   UNL     1      -4.926  10.918  17.891  0.00  0.00    +0.000 C 
ATOM      8  C   UNL     1      -3.436  10.931  18.054  0.00  0.00    +0.000 A 
ATOM      9  C   UNL     1      -2.624  10.046  17.338  0.00  0.00    +0.000 A 
ATOM     10  C   UNL     1      -1.238  10.043  17.527  0.00  0.00    +0.000 A 
ATOM     11  C   UNL     1      -0.637  10.926  18.439  0.00  0.00    +0.000 A 
ATOM     12  C   UNL     1      -1.455  11.819  19.145  0.00  0.00    +0.000 A 
ATOM     13  C   UNL     1      -2.839  11.821  18.954  0.00  0.00    +0.000 A 
ENDBRANCH   6  11
ENDBRANCH   1   6
BRANCH   3  14
ATOM     14  C   UNL     1       2.758   6.310  19.653  0.00  0.00    +0.000 C 
BRANCH  14  15
ATOM     15  S   UNL     1       2.557   4.907  18.516  0.00  0.00    +0.000 S 
BRANCH  15  16
ATOM     16  C   UNL     1       4.069   4.013  18.652  0.00  0.00    +0.000 C 
ATOM     17  S   UNL     1       4.243   2.661  19.638  0.00  0.00    +0.000 S 
BRANCH  16  18
ATOM     18  N   UNL     1       5.064   4.467  17.782  0.00  0.00    +0.000 N 
ATOM     19  C   UNL     1       4.932   4.492  16.314  0.00  0.00    +0.000 C 
ATOM     20  C   UNL     1       5.466   5.819  15.740  0.00  0.00    +0.000 C 
ATOM     21  N   UNL     1       6.849   6.112  16.152  0.00  0.00    +0.000 NA
ATOM     22  C   UNL     1       6.951   6.089  17.622  0.00  0.00    +0.000 C 
ATOM     23  C   UNL     1       6.432   4.777  18.234  0.00  0.00    +0.000 C 
ATOM     24  H   UNL     1       7.107   7.040  15.816  0.00  0.00    +0.000 HD
ENDBRANCH  16  18
ENDBRANCH  15  16
ENDBRANCH  14  15
ENDBRANCH   3  14
TORSDOF 6
ENDMDL
MODEL 4
REMARK VINA RESULT:      -6.7      1.269      1.777
REMARK  Name = 
REMARK  7 active torsions:
REMARK  status: ('A' for Active; 'I' for Inactive)
REMARK    1  A    between atoms: C_1  and  C_2
REMARK    2  A    between atoms: C_5  and  C_6
REMARK    3  A    between atoms: C_6  and  N_7
REMARK    4  A    between atoms: C_9  and  C_10
REMARK    5  A    between atoms: C_10  and  S_11
REMARK    6  A    between atoms: S_11  and  C_12
REMARK    7  A    between atoms: C_12  and  N_14
REMARK                            x       y       z     vdW  Elec       q    Type
REMARK                         _______ _______ _______ _____ _____    ______ ____
ROOT
ATOM      1  N   UNL     1       1.145   9.748  18.765  0.00  0.00    +0.000 N 
ATOM      2  C   UNL     1       1.441   8.596  19.429  0.00  0.00    +0.000 A 
ATOM      3  C   UNL     1       2.306   7.925  18.587  0.00  0.00    +0.000 A 
ATOM      4  N   UNL     1       2.494   8.686  17.458  0.00  0.00    +0.000 NA
ATOM      5  N   UNL     1       1.785   9.802  17.584  0.00  0.00    +0.000 NA
ENDROOT
BRANCH   1   6
ATOM      6  C   UNL     1       0.433  10.902  19.284  0.00  0.00    +0.000 C 
BRANCH   6  11
ATOM      7  C   UNL     1      -5.128  11.090  17.547  0.00  0.00    +0.000 C 
ATOM      8  C   UNL     1      -3.683  11.069  17.949  0.00  0.00    +0.000 A 
ATOM      9  C   UNL     1      -2.790  10.155  17.382  0.00  0.00    +0.000 A 
ATOM     10  C   UNL     1      -1.453  10.121  17.792  0.00  0.00    +0.000 A 
ATOM     11  C   UNL     1      -0.985  11.002  18.780  0.00  0.00    +0.000 A 
ATOM     12  C   UNL     1      -1.882  11.924  19.336  0.00  0.00    +0.000 A 
ATOM     13  C   UNL     1      -3.217  11.957  18.924  0.00  0.00    +0.000 A 
ENDBRANCH   6  11
ENDBRANCH   1   6
BRANCH   3  14
ATOM     14  C   UNL     1       3.043   6.640  18.772  0.00  0.00    +0.000 C 
BRANCH  14  15
ATOM     15  S   UNL     1       2.223   5.583  20.003  0.00  0.00    +0.000 S 
BRANCH  15  16
ATOM     16  C   UNL     1       2.329   3.960  19.327  0.00  0.00    +0.000 C 
ATOM     17  S   UNL     1       1.063   2.856  19.402  0.00  0.00    +0.000 S 
BRANCH  16  18
ATOM     18  N   UNL     1       3.517   3.725  18.630  0.00  0.00    +0.000 N 
ATOM     19  C   UNL     1       3.582   3.345  17.206  0.00  0.00    +0.000 C 
ATOM     20  C   UNL     1       4.687   4.137  16.479  0.00  0.00    +0.000 C 
ATOM     21  N   UNL     1       6.006   4.012  17.121  0.00  0.00    +0.000 NA
ATOM     22  C   UNL     1       5.915   4.404  18.538  0.00  0.00    +0.000 C 
ATOM     23  C   UNL     1       4.826   3.632  19.301  0.00  0.00    +0.000 C 
ATOM     24  H   UNL     1       6.667   4.627  16.648  0.00  0.00    +0.000 HD
ENDBRANCH  16  18
ENDBRANCH  15  16
ENDBRANCH  14  15
ENDBRANCH   3  14
TORSDOF 6
ENDMDL
MODEL 5
REMARK VINA RESULT:      -6.7      1.765      2.623
REMARK  Name = 
REMARK  7 active torsions:
REMARK  status: ('A' for Active; 'I' for Inactive)
REMARK    1  A    between atoms: C_1  and  C_2
REMARK    2  A    between atoms: C_5  and  C_6
REMARK    3  A    between atoms: C_6  and  N_7
REMARK    4  A    between atoms: C_9  and  C_10
REMARK    5  A    between atoms: C_10  and  S_11
REMARK    6  A    between atoms: S_11  and  C_12
REMARK    7  A    between atoms: C_12  and  N_14
REMARK                            x       y       z     vdW  Elec       q    Type
REMARK                         _______ _______ _______ _____ _____    ______ ____
ROOT
ATOM      1  N   UNL     1       1.289   9.806  19.115  0.00  0.00    +0.000 N 
ATOM      2  C   UNL     1       1.946   8.853  18.396  0.00  0.00    +0.000 A 
ATOM      3  C   UNL     1       2.039   7.776  19.256  0.00  0.00    +0.000 A 
ATOM      4  N   UNL     1       1.447   8.117  20.448  0.00  0.00    +0.000 NA
ATOM      5  N   UNL     1       0.985   9.358  20.345  0.00  0.00    +0.000 NA
ENDROOT
BRANCH   1   6
ATOM      6  C   UNL     1       0.757  11.065  18.624  0.00  0.00    +0.000 C 
BRANCH   6  11
ATOM      7  C   UNL     1      -5.024  10.746  17.953  0.00  0.00    +0.000 C 
ATOM      8  C   UNL     1      -3.533  10.852  18.077  0.00  0.00    +0.000 A 
ATOM      9  C   UNL     1      -2.689   9.946  17.427  0.00  0.00    +0.000 A 
ATOM     10  C   UNL     1      -1.302  10.034  17.580  0.00  0.00    +0.000 A 
ATOM     11  C   UNL     1      -0.732  11.029  18.389  0.00  0.00    +0.000 A 
ATOM     12  C   UNL     1      -1.582  11.941  19.029  0.00  0.00    +0.000 A 
ATOM     13  C   UNL     1      -2.968  11.853  18.874  0.00  0.00    +0.000 A 
ENDBRANCH   6  11
ENDBRANCH   1   6
BRANCH   3  14
ATOM     14  C   UNL     1       2.585   6.403  19.039  0.00  0.00    +0.000 C 
BRANCH  14  15
ATOM     15  S   UNL     1       3.952   6.420  17.842  0.00  0.00    +0.000 S 
BRANCH  15  16
ATOM     16  C   UNL     1       5.030   5.138  18.390  0.00  0.00    +0.000 C 
ATOM     17  S   UNL     1       6.598   5.431  18.920  0.00  0.00    +0.000 S 
BRANCH  16  18
ATOM     18  N   UNL     1       4.417   3.883  18.445  0.00  0.00    +0.000 N 
ATOM     19  C   UNL     1       4.444   3.000  19.626  0.00  0.00    +0.000 C 
ATOM     20  C   UNL     1       3.052   2.388  19.882  0.00  0.00    +0.000 C 
ATOM     21  N   UNL     1       2.503   1.689  18.709  0.00  0.00    +0.000 NA
ATOM     22  C   UNL     1       2.480   2.595  17.547  0.00  0.00    +0.000 C 
ATOM     23  C   UNL     1       3.853   3.222  17.255  0.00  0.00    +0.000 C 
ATOM     24  H   UNL     1       1.550   1.389  18.915  0.00  0.00    +0.000 HD
ENDBRANCH  16  18
ENDBRANCH  15  16
ENDBRANCH  14  15
ENDBRANCH   3  14
TORSDOF 6
ENDMDL
MODEL 6
REMARK VINA RESULT:      -6.7      3.434      8.820
REMARK  Name = 
REMARK  7 active torsions:
REMARK  status: ('A' for Active; 'I' for Inactive)
REMARK    1  A    between atoms: C_1  and  C_2
REMARK    2  A    between atoms: C_5  and  C_6
REMARK    3  A    between atoms: C_6  and  N_7
REMARK    4  A    between atoms: C_9  and  C_10
REMARK    5  A    between atoms: C_10  and  S_11
REMARK    6  A    between atoms: S_11  and  C_12
REMARK    7  A    between atoms: C_12  and  N_14
REMARK                            x       y       z     vdW  Elec       q    Type
REMARK                         _______ _______ _______ _____ _____    ______ ____
ROOT
ATOM      1  N   UNL     1       2.134   8.059  18.796  0.00  0.00    +0.000 N 
ATOM      2  C   UNL     1       1.416   9.209  18.665  0.00  0.00    +0.000 A 
ATOM      3  C   UNL     1       0.895   9.436  19.925  0.00  0.00    +0.000 A 
ATOM      4  N   UNL     1       1.309   8.423  20.756  0.00  0.00    +0.000 NA
ATOM      5  N   UNL     1       2.073   7.593  20.056  0.00  0.00    +0.000 NA
ENDROOT
BRANCH   1   6
ATOM      6  C   UNL     1       3.045   7.478  17.826  0.00  0.00    +0.000 C 
BRANCH   6  11
ATOM      7  C   UNL     1       3.332   1.695  18.495  0.00  0.00    +0.000 C 
ATOM      8  C   UNL     1       3.282   3.177  18.275  0.00  0.00    +0.000 A 
ATOM      9  C   UNL     1       4.410   3.976  18.487  0.00  0.00    +0.000 A 
ATOM     10  C   UNL     1       4.341   5.362  18.312  0.00  0.00    +0.000 A 
ATOM     11  C   UNL     1       3.139   5.977  17.925  0.00  0.00    +0.000 A 
ATOM     12  C   UNL     1       2.015   5.169  17.703  0.00  0.00    +0.000 A 
ATOM     13  C   UNL     1       2.087   3.785  17.875  0.00  0.00    +0.000 A 
ENDBRANCH   6  11
ENDBRANCH   1   6
BRANCH   3  14
ATOM     14  C   UNL     1       0.081  10.572  20.450  0.00  0.00    +0.000 C 
BRANCH  14  15
ATOM     15  S   UNL     1      -0.340  11.747  19.129  0.00  0.00    +0.000 S 
BRANCH  15  16
ATOM     16  C   UNL     1      -2.079  11.982  19.290  0.00  0.00    +0.000 C 
ATOM     17  S   UNL     1      -2.760  12.956  20.479  0.00  0.00    +0.000 S 
BRANCH  16  18
ATOM     18  N   UNL     1      -2.818  11.376  18.271  0.00  0.00    +0.000 N 
ATOM     19  C   UNL     1      -4.291  11.366  18.209  0.00  0.00    +0.000 C 
ATOM     20  C   UNL     1      -4.780  11.671  16.779  0.00  0.00    +0.000 C 
ATOM     21  N   UNL     1      -4.201  10.773  15.767  0.00  0.00    +0.000 NA
ATOM     22  C   UNL     1      -2.731  10.807  15.845  0.00  0.00    +0.000 C 
ATOM     23  C   UNL     1      -2.202  10.502  17.256  0.00  0.00    +0.000 C 
ATOM     24  H   UNL     1      -4.492  11.083  14.840  0.00  0.00    +0.000 HD
ENDBRANCH  16  18
ENDBRANCH  15  16
ENDBRANCH  14  15
ENDBRANCH   3  14
TORSDOF 6
ENDMDL
MODEL 7
REMARK VINA RESULT:      -6.6      2.521      3.532
REMARK  Name = 
REMARK  7 active torsions:
REMARK  status: ('A' for Active; 'I' for Inactive)
REMARK    1  A    between atoms: C_1  and  C_2
REMARK    2  A    between atoms: C_5  and  C_6
REMARK    3  A    between atoms: C_6  and  N_7
REMARK    4  A    between atoms: C_9  and  C_10
REMARK    5  A    between atoms: C_10  and  S_11
REMARK    6  A    between atoms: S_11  and  C_12
REMARK    7  A    between atoms: C_12  and  N_14
REMARK                            x       y       z     vdW  Elec       q    Type
REMARK                         _______ _______ _______ _____ _____    ______ ____
ROOT
ATOM      1  N   UNL     1       1.979   6.588  19.775  0.00  0.00    +0.000 N 
ATOM      2  C   UNL     1       2.039   5.707  18.737  0.00  0.00    +0.000 A 
ATOM      3  C   UNL     1       1.575   4.518  19.267  0.00  0.00    +0.000 A 
ATOM      4  N   UNL     1       1.261   4.723  20.588  0.00  0.00    +0.000 NA
ATOM      5  N   UNL     1       1.504   5.994  20.884  0.00  0.00    +0.000 NA
ENDROOT
BRANCH   1   6
ATOM      6  C   UNL     1       2.166   8.026  19.717  0.00  0.00    +0.000 C 
BRANCH   6  11
ATOM      7  C   UNL     1      -1.401  11.195  23.065  0.00  0.00    +0.000 C 
ATOM      8  C   UNL     1      -0.516  10.337  22.212  0.00  0.00    +0.000 A 
ATOM      9  C   UNL     1       0.411   9.461  22.786  0.00  0.00    +0.000 A 
ATOM     10  C   UNL     1       1.256   8.693  21.980  0.00  0.00    +0.000 A 
ATOM     11  C   UNL     1       1.192   8.787  20.580  0.00  0.00    +0.000 A 
ATOM     12  C   UNL     1       0.254   9.658  20.010  0.00  0.00    +0.000 A 
ATOM     13  C   UNL     1      -0.591  10.424  20.817  0.00  0.00    +0.000 A 
ENDBRANCH   6  11
ENDBRANCH   1   6
BRANCH   3  14
ATOM     14  C   UNL     1       1.331   3.195  18.619  0.00  0.00    +0.000 C 
BRANCH  14  15
ATOM     15  S   UNL     1       2.683   2.756  17.487  0.00  0.00    +0.000 S 
BRANCH  15  16
ATOM     16  C   UNL     1       4.149   3.080  18.411  0.00  0.00    +0.000 C 
ATOM     17  S   UNL     1       4.462   2.369  19.902  0.00  0.00    +0.000 S 
BRANCH  16  18
ATOM     18  N   UNL     1       5.065   3.888  17.733  0.00  0.00    +0.000 N 
ATOM     19  C   UNL     1       6.102   4.702  18.396  0.00  0.00    +0.000 C 
ATOM     20  C   UNL     1       7.449   4.577  17.658  0.00  0.00    +0.000 C 
ATOM     21  N   UNL     1       7.356   4.903  16.225  0.00  0.00    +0.000 NA
ATOM     22  C   UNL     1       6.321   4.072  15.586  0.00  0.00    +0.000 C 
ATOM     23  C   UNL     1       4.958   4.173  16.291  0.00  0.00    +0.000 C 
ATOM     24  H   UNL     1       8.254   4.714  15.781  0.00  0.00    +0.000 HD
ENDBRANCH  16  18
ENDBRANCH  15  16
ENDBRANCH  14  15
ENDBRANCH   3  14
TORSDOF 6
ENDMDL
MODEL 8
REMARK VINA RESULT:      -6.6      5.967      8.546
REMARK  Name = 
REMARK  7 active torsions:
REMARK  status: ('A' for Active; 'I' for Inactive)
REMARK    1  A    between atoms: C_1  and  C_2
REMARK    2  A    between atoms: C_5  and  C_6
REMARK    3  A    between atoms: C_6  and  N_7
REMARK    4  A    between atoms: C_9  and  C_10
REMARK    5  A    between atoms: C_10  and  S_11
REMARK    6  A    between atoms: S_11  and  C_12
REMARK    7  A    between atoms: C_12  and  N_14
REMARK                            x       y       z     vdW  Elec       q    Type
REMARK                         _______ _______ _______ _____ _____    ______ ____
ROOT
ATOM      1  N   UNL     1       6.969   6.053  17.308  0.00  0.00    +0.000 N 
ATOM      2  C   UNL     1       7.805   6.454  18.305  0.00  0.00    +0.000 A 
ATOM      3  C   UNL     1       7.963   7.811  18.097  0.00  0.00    +0.000 A 
ATOM      4  N   UNL     1       7.229   8.171  16.993  0.00  0.00    +0.000 NA
ATOM      5  N   UNL     1       6.619   7.089  16.525  0.00  0.00    +0.000 NA
ENDROOT
BRANCH   1   6
ATOM      6  C   UNL     1       6.321   4.760  17.172  0.00  0.00    +0.000 C 
BRANCH   6  11
ATOM      7  C   UNL     1       1.353   4.648  20.218  0.00  0.00    +0.000 C 
ATOM      8  C   UNL     1       2.620   4.627  19.416  0.00  0.00    +0.000 A 
ATOM      9  C   UNL     1       3.748   3.936  19.867  0.00  0.00    +0.000 A 
ATOM     10  C   UNL     1       4.935   3.954  19.127  0.00  0.00    +0.000 A 
ATOM     11  C   UNL     1       5.016   4.668  17.920  0.00  0.00    +0.000 A 
ATOM     12  C   UNL     1       3.878   5.350  17.467  0.00  0.00    +0.000 A 
ATOM     13  C   UNL     1       2.693   5.329  18.207  0.00  0.00    +0.000 A 
ENDBRANCH   6  11
ENDBRANCH   1   6
BRANCH   3  14
ATOM     14  C   UNL     1       8.701   8.837  18.892  0.00  0.00    +0.000 C 
BRANCH  14  15
ATOM     15  S   UNL     1       8.845  10.401  17.977  0.00  0.00    +0.000 S 
BRANCH  15  16
ATOM     16  C   UNL     1       9.522  11.532  19.146  0.00  0.00    +0.000 C 
ATOM     17  S   UNL     1       9.411  11.301  20.808  0.00  0.00    +0.000 S 
BRANCH  16  18
ATOM     18  N   UNL     1      10.252  12.568  18.558  0.00  0.00    +0.000 N 
ATOM     19  C   UNL     1      11.433  12.366  17.697  0.00  0.00    +0.000 C 
ATOM     20  C   UNL     1      11.371  13.284  16.460  0.00  0.00    +0.000 C 
ATOM     21  N   UNL     1      11.203  14.705  16.803  0.00  0.00    +0.000 NA
ATOM     22  C   UNL     1      10.014  14.881  17.654  0.00  0.00    +0.000 C 
ATOM     23  C   UNL     1      10.039  13.985  18.904  0.00  0.00    +0.000 C 
ATOM     24  H   UNL     1      11.079  15.242  15.945  0.00  0.00    +0.000 HD
ENDBRANCH  16  18
ENDBRANCH  15  16
ENDBRANCH  14  15
ENDBRANCH   3  14
TORSDOF 6
ENDMDL
MODEL 9
REMARK VINA RESULT:      -6.6      1.498      2.252
REMARK  Name = 
REMARK  7 active torsions:
REMARK  status: ('A' for Active; 'I' for Inactive)
REMARK    1  A    between atoms: C_1  and  C_2
REMARK    2  A    between atoms: C_5  and  C_6
REMARK    3  A    between atoms: C_6  and  N_7
REMARK    4  A    between atoms: C_9  and  C_10
REMARK    5  A    between atoms: C_10  and  S_11
REMARK    6  A    between atoms: S_11  and  C_12
REMARK    7  A    between atoms: C_12  and  N_14
REMARK                            x       y       z     vdW  Elec       q    Type
REMARK                         _______ _______ _______ _____ _____    ______ ____
ROOT
ATOM      1  N   UNL     1       2.316   7.563  18.657  0.00  0.00    +0.000 N 
ATOM      2  C   UNL     1       2.119   6.400  17.976  0.00  0.00    +0.000 A 
ATOM      3  C   UNL     1       1.865   5.463  18.959  0.00  0.00    +0.000 A 
ATOM      4  N   UNL     1       1.923   6.088  20.181  0.00  0.00    +0.000 NA
ATOM      5  N   UNL     1       2.191   7.373  19.982  0.00  0.00    +0.000 NA
ENDROOT
BRANCH   1   6
ATOM      6  C   UNL     1       2.426   8.899  18.099  0.00  0.00    +0.000 C 
BRANCH   6  11
ATOM      7  C   UNL     1      -2.363  12.002  19.287  0.00  0.00    +0.000 C 
ATOM      8  C   UNL     1      -1.125  11.232  18.935  0.00  0.00    +0.000 A 
ATOM      9  C   UNL     1      -1.166  10.184  18.010  0.00  0.00    +0.000 A 
ATOM     10  C   UNL     1      -0.011   9.450  17.717  0.00  0.00    +0.000 A 
ATOM     11  C   UNL     1       1.207   9.750  18.349  0.00  0.00    +0.000 A 
ATOM     12  C   UNL     1       1.243  10.808  19.267  0.00  0.00    +0.000 A 
ATOM     13  C   UNL     1       0.090  11.541  19.556  0.00  0.00    +0.000 A 
ENDBRANCH   6  11
ENDBRANCH   1   6
BRANCH   3  14
ATOM     14  C   UNL     1       1.500   4.019  18.855  0.00  0.00    +0.000 C 
BRANCH  14  15
ATOM     15  S   UNL     1       2.616   3.138  17.724  0.00  0.00    +0.000 S 
BRANCH  15  16
ATOM     16  C   UNL     1       4.194   3.231  18.504  0.00  0.00    +0.000 C 
ATOM     17  S   UNL     1       4.568   2.383  19.906  0.00  0.00    +0.000 S 
BRANCH  16  18
ATOM     18  N   UNL     1       5.125   3.984  17.784  0.00  0.00    +0.000 N 
ATOM     19  C   UNL     1       6.203   4.779  18.401  0.00  0.00    +0.000 C 
ATOM     20  C   UNL     1       7.531   4.581  17.644  0.00  0.00    +0.000 C 
ATOM     21  N   UNL     1       7.423   4.864  16.204  0.00  0.00    +0.000 NA
ATOM     22  C   UNL     1       6.346   4.052  15.610  0.00  0.00    +0.000 C 
ATOM     23  C   UNL     1       5.001   4.226  16.335  0.00  0.00    +0.000 C 
ATOM     24  H   UNL     1       8.305   4.628  15.750  0.00  0.00    +0.000 HD
ENDBRANCH  16  18
ENDBRANCH  15  16
ENDBRANCH  14  15
ENDBRANCH   3  14
TORSDOF 6
ENDMDL
