MODEL 1
REMARK VINA RESULT:      -7.4      0.000      0.000
REMARK  Name = 
REMARK  4 active torsions:
REMARK  status: ('A' for Active; 'I' for Inactive)
REMARK    1  A    between atoms: C_2  and  C_12
REMARK    2  A    between atoms: N_3  and  O_4
REMARK    3  A    between atoms: O_4  and  C_5
REMARK    4  A    between atoms: C_5  and  C_6
REMARK                            x       y       z     vdW  Elec       q    Type
REMARK                         _______ _______ _______ _____ _____    ______ ____
ROOT
ATOM      1  O   UNL     1       3.334   5.775  17.446  0.00  0.00    +0.000 OA
ATOM      2  C   UNL     1       3.512   4.598  17.718  0.00  0.00    +0.000 C 
ATOM      3  N   UNL     1       4.294   3.709  17.014  0.00  0.00    +0.000 N 
ATOM      4  H   UNL     1       4.196   2.709  17.116  0.00  0.00    +0.000 HD
ENDROOT
BRANCH   2   5
ATOM      5  C   UNL     1       2.840   3.997  18.906  0.00  0.00    +0.000 A 
ATOM      6  C   UNL     1       1.476   4.221  19.131  0.00  0.00    +0.000 A 
ATOM      7  C   UNL     1       0.859   3.678  20.263  0.00  0.00    +0.000 A 
ATOM      8  C   UNL     1       1.609   2.922  21.157  0.00  0.00    +0.000 A 
ATOM      9  F   UNL     1       1.020   2.404  22.242  0.00  0.00    +0.000 F 
ATOM     10  C   UNL     1       2.962   2.688  20.944  0.00  0.00    +0.000 A 
ATOM     11  C   UNL     1       3.581   3.229  19.818  0.00  0.00    +0.000 A 
ENDBRANCH   2   5
BRANCH   3  12
ATOM     12  O   UNL     1       4.928   4.200  15.855  0.00  0.00    +0.000 OA
BRANCH  12  13
ATOM     13  C   UNL     1       6.347   4.042  15.980  0.00  0.00    +0.000 C 
BRANCH  13  14
ATOM     14  C   UNL     1       6.913   5.086  16.907  0.00  0.00    +0.000 A 
ATOM     15  C   UNL     1       6.882   6.448  16.574  0.00  0.00    +0.000 A 
ATOM     16  C   UNL     1       7.452   7.400  17.420  0.00  0.00    +0.000 A 
ATOM     17  C   UNL     1       8.036   7.003  18.622  0.00  0.00    +0.000 A 
ATOM     18  C   UNL     1       8.029   5.660  18.989  0.00  0.00    +0.000 A 
ATOM     19  C   UNL     1       7.461   4.705  18.142  0.00  0.00    +0.000 A 
ENDBRANCH  13  14
ENDBRANCH  12  13
ENDBRANCH   3  12
TORSDOF 4
ENDMDL
MODEL 2
REMARK VINA RESULT:      -7.2      2.659      6.196
REMARK  Name = 
REMARK  4 active torsions:
REMARK  status: ('A' for Active; 'I' for Inactive)
REMARK    1  A    between atoms: C_2  and  C_12
REMARK    2  A    between atoms: N_3  and  O_4
REMARK    3  A    between atoms: O_4  and  C_5
REMARK    4  A    between atoms: C_5  and  C_6
REMARK                            x       y       z     vdW  Elec       q    Type
REMARK                         _______ _______ _______ _____ _____    ______ ____
ROOT
ATOM      1  O   UNL     1       5.826   3.645  15.826  0.00  0.00    +0.000 OA
ATOM      2  C   UNL     1       5.431   4.339  16.750  0.00  0.00    +0.000 C 
ATOM      3  N   UNL     1       4.190   4.277  17.343  0.00  0.00    +0.000 N 
ATOM      4  H   UNL     1       3.822   5.033  17.904  0.00  0.00    +0.000 HD
ENDROOT
BRANCH   2   5
ATOM      5  C   UNL     1       6.324   5.383  17.333  0.00  0.00    +0.000 A 
ATOM      6  C   UNL     1       6.390   6.656  16.753  0.00  0.00    +0.000 A 
ATOM      7  C   UNL     1       7.251   7.620  17.289  0.00  0.00    +0.000 A 
ATOM      8  C   UNL     1       8.037   7.303  18.391  0.00  0.00    +0.000 A 
ATOM      9  F   UNL     1       8.863   8.223  18.902  0.00  0.00    +0.000 F 
ATOM     10  C   UNL     1       7.978   6.044  18.979  0.00  0.00    +0.000 A 
ATOM     11  C   UNL     1       7.123   5.080  18.447  0.00  0.00    +0.000 A 
ENDBRANCH   2   5
BRANCH   3  12
ATOM     12  O   UNL     1       3.279   3.339  16.815  0.00  0.00    +0.000 OA
BRANCH  12  13
ATOM     13  C   UNL     1       3.211   2.197  17.678  0.00  0.00    +0.000 C 
BRANCH  13  14
ATOM     14  C   UNL     1       2.582   2.570  18.995  0.00  0.00    +0.000 A 
ATOM     15  C   UNL     1       3.273   2.398  20.204  0.00  0.00    +0.000 A 
ATOM     16  C   UNL     1       2.662   2.703  21.421  0.00  0.00    +0.000 A 
ATOM     17  C   UNL     1       1.363   3.207  21.441  0.00  0.00    +0.000 A 
ATOM     18  C   UNL     1       0.684   3.431  20.246  0.00  0.00    +0.000 A 
ATOM     19  C   UNL     1       1.293   3.123  19.027  0.00  0.00    +0.000 A 
ENDBRANCH  13  14
ENDBRANCH  12  13
ENDBRANCH   3  12
TORSDOF 4
ENDMDL
MODEL 3
REMARK VINA RESULT:      -7.2      0.252      1.150
REMARK  Name = 
REMARK  4 active torsions:
REMARK  status: ('A' for Active; 'I' for Inactive)
REMARK    1  A    between atoms: C_2  and  C_12
REMARK    2  A    between atoms: N_3  and  O_4
REMARK    3  A    between atoms: O_4  and  C_5
REMARK    4  A    between atoms: C_5  and  C_6
REMARK                            x       y       z     vdW  Elec       q    Type
REMARK                         _______ _______ _______ _____ _____    ______ ____
ROOT
ATOM      1  O   UNL     1       3.404   5.824  17.276  0.00  0.00    +0.000 OA
ATOM      2  C   UNL     1       3.657   4.688  17.644  0.00  0.00    +0.000 C 
ATOM      3  N   UNL     1       4.514   3.803  17.027  0.00  0.00    +0.000 N 
ATOM      4  H   UNL     1       4.483   2.810  17.207  0.00  0.00    +0.000 HD
ENDROOT
BRANCH   2   5
ATOM      5  C   UNL     1       3.004   4.138  18.868  0.00  0.00    +0.000 A 
ATOM      6  C   UNL     1       3.631   3.125  19.605  0.00  0.00    +0.000 A 
ATOM      7  C   UNL     1       3.000   2.594  20.734  0.00  0.00    +0.000 A 
ATOM      8  C   UNL     1       1.751   3.075  21.113  0.00  0.00    +0.000 A 
ATOM      9  F   UNL     1       1.145   2.566  22.192  0.00  0.00    +0.000 F 
ATOM     10  C   UNL     1       1.119   4.083  20.393  0.00  0.00    +0.000 A 
ATOM     11  C   UNL     1       1.745   4.614  19.266  0.00  0.00    +0.000 A 
ENDBRANCH   2   5
BRANCH   3  12
ATOM     12  O   UNL     1       5.135   4.243  15.841  0.00  0.00    +0.000 OA
BRANCH  12  13
ATOM     13  C   UNL     1       6.558   4.135  15.976  0.00  0.00    +0.000 C 
BRANCH  13  14
ATOM     14  C   UNL     1       7.076   5.172  16.937  0.00  0.00    +0.000 A 
ATOM     15  C   UNL     1       7.075   6.535  16.606  0.00  0.00    +0.000 A 
ATOM     16  C   UNL     1       7.602   7.481  17.487  0.00  0.00    +0.000 A 
ATOM     17  C   UNL     1       8.111   7.077  18.719  0.00  0.00    +0.000 A 
ATOM     18  C   UNL     1       8.072   5.733  19.082  0.00  0.00    +0.000 A 
ATOM     19  C   UNL     1       7.549   4.785  18.200  0.00  0.00    +0.000 A 
ENDBRANCH  13  14
ENDBRANCH  12  13
ENDBRANCH   3  12
TORSDOF 4
ENDMDL
MODEL 4
REMARK VINA RESULT:      -7.2      2.706      6.284
REMARK  Name = 
REMARK  4 active torsions:
REMARK  status: ('A' for Active; 'I' for Inactive)
REMARK    1  A    between atoms: C_2  and  C_12
REMARK    2  A    between atoms: N_3  and  O_4
REMARK    3  A    between atoms: O_4  and  C_5
REMARK    4  A    between atoms: C_5  and  C_6
REMARK                            x       y       z     vdW  Elec       q    Type
REMARK                         _______ _______ _______ _____ _____    ______ ____
ROOT
ATOM      1  O   UNL     1       5.276   4.133  15.523  0.00  0.00    +0.000 OA
ATOM      2  C   UNL     1       5.451   4.205  16.730  0.00  0.00    +0.000 C 
ATOM      3  N   UNL     1       4.878   3.396  17.686  0.00  0.00    +0.000 N 
ATOM      4  H   UNL     1       4.838   3.660  18.660  0.00  0.00    +0.000 HD
ENDROOT
BRANCH   2   5
ATOM      5  C   UNL     1       6.351   5.254  17.292  0.00  0.00    +0.000 A 
ATOM      6  C   UNL     1       7.162   4.967  18.396  0.00  0.00    +0.000 A 
ATOM      7  C   UNL     1       7.982   5.964  18.935  0.00  0.00    +0.000 A 
ATOM      8  C   UNL     1       7.981   7.234  18.369  0.00  0.00    +0.000 A 
ATOM      9  F   UNL     1       8.763   8.190  18.886  0.00  0.00    +0.000 F 
ATOM     10  C   UNL     1       7.184   7.532  17.270  0.00  0.00    +0.000 A 
ATOM     11  C   UNL     1       6.364   6.541  16.731  0.00  0.00    +0.000 A 
ENDBRANCH   2   5
BRANCH   3  12
ATOM     12  O   UNL     1       3.983   2.407  17.228  0.00  0.00    +0.000 OA
BRANCH  12  13
ATOM     13  C   UNL     1       3.668   1.512  18.302  0.00  0.00    +0.000 C 
BRANCH  13  14
ATOM     14  C   UNL     1       2.792   2.196  19.318  0.00  0.00    +0.000 A 
ATOM     15  C   UNL     1       3.251   2.449  20.619  0.00  0.00    +0.000 A 
ATOM     16  C   UNL     1       2.414   3.041  21.566  0.00  0.00    +0.000 A 
ATOM     17  C   UNL     1       1.116   3.410  21.215  0.00  0.00    +0.000 A 
ATOM     18  C   UNL     1       0.664   3.210  19.912  0.00  0.00    +0.000 A 
ATOM     19  C   UNL     1       1.500   2.615  18.965  0.00  0.00    +0.000 A 
ENDBRANCH  13  14
ENDBRANCH  12  13
ENDBRANCH   3  12
TORSDOF 4
ENDMDL
MODEL 5
REMARK VINA RESULT:      -7.1      2.676      5.938
REMARK  Name = 
REMARK  4 active torsions:
REMARK  status: ('A' for Active; 'I' for Inactive)
REMARK    1  A    between atoms: C_2  and  C_12
REMARK    2  A    between atoms: N_3  and  O_4
REMARK    3  A    between atoms: O_4  and  C_5
REMARK    4  A    between atoms: C_5  and  C_6
REMARK                            x       y       z     vdW  Elec       q    Type
REMARK                         _______ _______ _______ _____ _____    ______ ____
ROOT
ATOM      1  O   UNL     1       2.801   5.786  17.777  0.00  0.00    +0.000 OA
ATOM      2  C   UNL     1       3.805   5.135  17.537  0.00  0.00    +0.000 C 
ATOM      3  N   UNL     1       3.846   3.866  17.002  0.00  0.00    +0.000 N 
ATOM      4  H   UNL     1       4.664   3.277  17.074  0.00  0.00    +0.000 HD
ENDROOT
BRANCH   2   5
ATOM      5  C   UNL     1       5.152   5.703  17.837  0.00  0.00    +0.000 A 
ATOM      6  C   UNL     1       5.921   5.176  18.882  0.00  0.00    +0.000 A 
ATOM      7  C   UNL     1       7.170   5.733  19.176  0.00  0.00    +0.000 A 
ATOM      8  C   UNL     1       7.635   6.809  18.428  0.00  0.00    +0.000 A 
ATOM      9  F   UNL     1       8.829   7.344  18.711  0.00  0.00    +0.000 F 
ATOM     10  C   UNL     1       6.885   7.339  17.386  0.00  0.00    +0.000 A 
ATOM     11  C   UNL     1       5.638   6.788  17.090  0.00  0.00    +0.000 A 
ENDBRANCH   2   5
BRANCH   3  12
ATOM     12  O   UNL     1       2.607   3.251  16.731  0.00  0.00    +0.000 OA
BRANCH  12  13
ATOM     13  C   UNL     1       2.457   2.089  17.555  0.00  0.00    +0.000 C 
BRANCH  13  14
ATOM     14  C   UNL     1       2.261   2.485  18.994  0.00  0.00    +0.000 A 
ATOM     15  C   UNL     1       3.257   2.254  19.955  0.00  0.00    +0.000 A 
ATOM     16  C   UNL     1       3.043   2.583  21.294  0.00  0.00    +0.000 A 
ATOM     17  C   UNL     1       1.842   3.171  21.684  0.00  0.00    +0.000 A 
ATOM     18  C   UNL     1       0.864   3.453  20.733  0.00  0.00    +0.000 A 
ATOM     19  C   UNL     1       1.075   3.122  19.392  0.00  0.00    +0.000 A 
ENDBRANCH  13  14
ENDBRANCH  12  13
ENDBRANCH   3  12
TORSDOF 4
ENDMDL
MODEL 6
REMARK VINA RESULT:      -7.1      2.744      6.158
REMARK  Name = 
REMARK  4 active torsions:
REMARK  status: ('A' for Active; 'I' for Inactive)
REMARK    1  A    between atoms: C_2  and  C_12
REMARK    2  A    between atoms: N_3  and  O_4
REMARK    3  A    between atoms: O_4  and  C_5
REMARK    4  A    between atoms: C_5  and  C_6
REMARK                            x       y       z     vdW  Elec       q    Type
REMARK                         _______ _______ _______ _____ _____    ______ ____
ROOT
ATOM      1  O   UNL     1       5.913   3.625  15.639  0.00  0.00    +0.000 OA
ATOM      2  C   UNL     1       5.712   3.994  16.785  0.00  0.00    +0.000 C 
ATOM      3  N   UNL     1       4.802   3.454  17.668  0.00  0.00    +0.000 N 
ATOM      4  H   UNL     1       4.487   3.953  18.488  0.00  0.00    +0.000 HD
ENDROOT
BRANCH   2   5
ATOM      5  C   UNL     1       6.485   5.141  17.345  0.00  0.00    +0.000 A 
ATOM      6  C   UNL     1       6.459   6.386  16.706  0.00  0.00    +0.000 A 
ATOM      7  C   UNL     1       7.209   7.448  17.221  0.00  0.00    +0.000 A 
ATOM      8  C   UNL     1       7.977   7.256  18.364  0.00  0.00    +0.000 A 
ATOM      9  F   UNL     1       8.697   8.272  18.856  0.00  0.00    +0.000 F 
ATOM     10  C   UNL     1       8.009   6.027  19.012  0.00  0.00    +0.000 A 
ATOM     11  C   UNL     1       7.264   4.964  18.500  0.00  0.00    +0.000 A 
ENDBRANCH   2   5
BRANCH   3  12
ATOM     12  O   UNL     1       4.008   2.392  17.191  0.00  0.00    +0.000 OA
BRANCH  12  13
ATOM     13  C   UNL     1       3.708   1.495  18.268  0.00  0.00    +0.000 C 
BRANCH  13  14
ATOM     14  C   UNL     1       2.804   2.162  19.271  0.00  0.00    +0.000 A 
ATOM     15  C   UNL     1       1.490   2.522  18.939  0.00  0.00    +0.000 A 
ATOM     16  C   UNL     1       0.678   3.182  19.863  0.00  0.00    +0.000 A 
ATOM     17  C   UNL     1       1.163   3.466  21.138  0.00  0.00    +0.000 A 
ATOM     18  C   UNL     1       2.449   3.070  21.498  0.00  0.00    +0.000 A 
ATOM     19  C   UNL     1       3.263   2.412  20.574  0.00  0.00    +0.000 A 
ENDBRANCH  13  14
ENDBRANCH  12  13
ENDBRANCH   3  12
TORSDOF 4
ENDMDL
MODEL 7
REMARK VINA RESULT:      -7.1      0.685      1.514
REMARK  Name = 
REMARK  4 active torsions:
REMARK  status: ('A' for Active; 'I' for Inactive)
REMARK    1  A    between atoms: C_2  and  C_12
REMARK    2  A    between atoms: N_3  and  O_4
REMARK    3  A    between atoms: O_4  and  C_5
REMARK    4  A    between atoms: C_5  and  C_6
REMARK                            x       y       z     vdW  Elec       q    Type
REMARK                         _______ _______ _______ _____ _____    ______ ____
ROOT
ATOM      1  O   UNL     1       3.829   6.108  17.659  0.00  0.00    +0.000 OA
ATOM      2  C   UNL     1       3.730   4.893  17.729  0.00  0.00    +0.000 C 
ATOM      3  N   UNL     1       4.261   3.980  16.844  0.00  0.00    +0.000 N 
ATOM      4  H   UNL     1       3.931   3.026  16.792  0.00  0.00    +0.000 HD
ENDROOT
BRANCH   2   5
ATOM      5  C   UNL     1       2.967   4.270  18.849  0.00  0.00    +0.000 A 
ATOM      6  C   UNL     1       2.789   2.881  18.892  0.00  0.00    +0.000 A 
ATOM      7  C   UNL     1       2.047   2.307  19.930  0.00  0.00    +0.000 A 
ATOM      8  C   UNL     1       1.491   3.123  20.909  0.00  0.00    +0.000 A 
ATOM      9  F   UNL     1       0.779   2.575  21.901  0.00  0.00    +0.000 F 
ATOM     10  C   UNL     1       1.664   4.502  20.882  0.00  0.00    +0.000 A 
ATOM     11  C   UNL     1       2.401   5.078  19.847  0.00  0.00    +0.000 A 
ENDBRANCH   2   5
BRANCH   3  12
ATOM     12  O   UNL     1       4.961   4.501  15.737  0.00  0.00    +0.000 OA
BRANCH  12  13
ATOM     13  C   UNL     1       6.362   4.234  15.886  0.00  0.00    +0.000 C 
BRANCH  13  14
ATOM     14  C   UNL     1       6.980   5.199  16.864  0.00  0.00    +0.000 A 
ATOM     15  C   UNL     1       7.435   4.769  18.119  0.00  0.00    +0.000 A 
ATOM     16  C   UNL     1       7.963   5.681  19.034  0.00  0.00    +0.000 A 
ATOM     17  C   UNL     1       8.067   7.029  18.694  0.00  0.00    +0.000 A 
ATOM     18  C   UNL     1       7.666   7.461  17.432  0.00  0.00    +0.000 A 
ATOM     19  C   UNL     1       7.134   6.550  16.516  0.00  0.00    +0.000 A 
ENDBRANCH  13  14
ENDBRANCH  12  13
ENDBRANCH   3  12
TORSDOF 4
ENDMDL
MODEL 8
REMARK VINA RESULT:      -7.1      0.260      1.167
REMARK  Name = 
REMARK  4 active torsions:
REMARK  status: ('A' for Active; 'I' for Inactive)
REMARK    1  A    between atoms: C_2  and  C_12
REMARK    2  A    between atoms: N_3  and  O_4
REMARK    3  A    between atoms: O_4  and  C_5
REMARK    4  A    between atoms: C_5  and  C_6
REMARK                            x       y       z     vdW  Elec       q    Type
REMARK                         _______ _______ _______ _____ _____    ______ ____
ROOT
ATOM      1  O   UNL     1       2.973   5.501  17.458  0.00  0.00    +0.000 OA
ATOM      2  C   UNL     1       3.344   4.411  17.863  0.00  0.00    +0.000 C 
ATOM      3  N   UNL     1       4.290   3.601  17.275  0.00  0.00    +0.000 N 
ATOM      4  H   UNL     1       4.364   2.616  17.488  0.00  0.00    +0.000 HD
ENDROOT
BRANCH   2   5
ATOM      5  C   UNL     1       2.748   3.834  19.104  0.00  0.00    +0.000 A 
ATOM      6  C   UNL     1       1.393   4.034  19.393  0.00  0.00    +0.000 A 
ATOM      7  C   UNL     1       0.849   3.515  20.572  0.00  0.00    +0.000 A 
ATOM      8  C   UNL     1       1.662   2.807  21.450  0.00  0.00    +0.000 A 
ATOM      9  F   UNL     1       1.143   2.312  22.580  0.00  0.00    +0.000 F 
ATOM     10  C   UNL     1       3.008   2.597  21.174  0.00  0.00    +0.000 A 
ATOM     11  C   UNL     1       3.555   3.114  20.000  0.00  0.00    +0.000 A 
ENDBRANCH   2   5
BRANCH   3  12
ATOM     12  O   UNL     1       4.866   4.066  16.075  0.00  0.00    +0.000 OA
BRANCH  12  13
ATOM     13  C   UNL     1       6.288   3.900  16.129  0.00  0.00    +0.000 C 
BRANCH  13  14
ATOM     14  C   UNL     1       6.910   4.964  16.995  0.00  0.00    +0.000 A 
ATOM     15  C   UNL     1       7.544   4.638  18.203  0.00  0.00    +0.000 A 
ATOM     16  C   UNL     1       8.074   5.637  19.020  0.00  0.00    +0.000 A 
ATOM     17  C   UNL     1       8.000   6.972  18.625  0.00  0.00    +0.000 A 
ATOM     18  C   UNL     1       7.417   7.305  17.405  0.00  0.00    +0.000 A 
ATOM     19  C   UNL     1       6.884   6.306  16.588  0.00  0.00    +0.000 A 
ENDBRANCH  13  14
ENDBRANCH  12  13
ENDBRANCH   3  12
TORSDOF 4
ENDMDL
MODEL 9
REMARK VINA RESULT:      -7.0      3.317      6.652
REMARK  Name = 
REMARK  4 active torsions:
REMARK  status: ('A' for Active; 'I' for Inactive)
REMARK    1  A    between atoms: C_2  and  C_12
REMARK    2  A    between atoms: N_3  and  O_4
REMARK    3  A    between atoms: O_4  and  C_5
REMARK    4  A    between atoms: C_5  and  C_6
REMARK                            x       y       z     vdW  Elec       q    Type
REMARK                         _______ _______ _______ _____ _____    ______ ____
ROOT
ATOM      1  O   UNL     1       4.273   5.258  17.987  0.00  0.00    +0.000 OA
ATOM      2  C   UNL     1       5.205   4.521  17.706  0.00  0.00    +0.000 C 
ATOM      3  N   UNL     1       5.815   3.620  18.551  0.00  0.00    +0.000 N 
ATOM      4  H   UNL     1       6.732   3.240  18.361  0.00  0.00    +0.000 HD
ENDROOT
BRANCH   2   5
ATOM      5  C   UNL     1       5.794   4.554  16.336  0.00  0.00    +0.000 A 
ATOM      6  C   UNL     1       7.034   5.169  16.118  0.00  0.00    +0.000 A 
ATOM      7  C   UNL     1       7.566   5.221  14.826  0.00  0.00    +0.000 A 
ATOM      8  C   UNL     1       6.858   4.663  13.767  0.00  0.00    +0.000 A 
ATOM      9  F   UNL     1       7.365   4.715  12.530  0.00  0.00    +0.000 F 
ATOM     10  C   UNL     1       5.629   4.046  13.970  0.00  0.00    +0.000 A 
ATOM     11  C   UNL     1       5.093   3.994  15.256  0.00  0.00    +0.000 A 
ENDBRANCH   2   5
BRANCH   3  12
ATOM     12  O   UNL     1       5.334   3.565  19.875  0.00  0.00    +0.000 OA
BRANCH  12  13
ATOM     13  C   UNL     1       4.618   2.340  20.075  0.00  0.00    +0.000 C 
BRANCH  13  14
ATOM     14  C   UNL     1       3.136   2.567  19.930  0.00  0.00    +0.000 A 
ATOM     15  C   UNL     1       2.432   2.079  18.820  0.00  0.00    +0.000 A 
ATOM     16  C   UNL     1       1.068   2.336  18.674  0.00  0.00    +0.000 A 
ATOM     17  C   UNL     1       0.388   3.062  19.650  0.00  0.00    +0.000 A 
ATOM     18  C   UNL     1       1.064   3.509  20.783  0.00  0.00    +0.000 A 
ATOM     19  C   UNL     1       2.430   3.255  20.928  0.00  0.00    +0.000 A 
ENDBRANCH  13  14
ENDBRANCH  12  13
ENDBRANCH   3  12
TORSDOF 4
ENDMDL
