MODEL 1
REMARK VINA RESULT:      -8.3      0.000      0.000
REMARK  Name = 
REMARK  5 active torsions:
REMARK  status: ('A' for Active; 'I' for Inactive)
REMARK    1  A    between atoms: C_2  and  C_3
REMARK    2  A    between atoms: C_4  and  C_5
REMARK    3  A    between atoms: C_10  and  N_11
REMARK    4  A    between atoms: N_17  and  C_18
REMARK    5  A    between atoms: C_18  and  C_19
REMARK                            x       y       z     vdW  Elec       q    Type
REMARK                         _______ _______ _______ _____ _____    ______ ____
ROOT
ATOM      1  O   UNL     1       2.185  10.033  17.446  0.00  0.00    +0.000 OA
ATOM      2  C   UNL     1       1.766   9.360  18.384  0.00  0.00    +0.000 C 
ATOM      3  N   UNL     1       0.915   9.839  19.355  0.00  0.00    +0.000 N 
ATOM      4  C   UNL     1       0.519   9.133  20.582  0.00  0.00    +0.000 C 
ATOM      5  C   UNL     1       0.808   9.982  21.844  0.00  0.00    +0.000 C 
ATOM      6  N   UNL     1       0.301  11.379  21.790  0.00  0.00    +0.000 NA
ATOM      7  C   UNL     1       0.817  12.003  20.548  0.00  0.00    +0.000 C 
ATOM      8  C   UNL     1       0.465  11.231  19.265  0.00  0.00    +0.000 C 
ENDROOT
BRANCH   2   9
ATOM      9  C   UNL     1       2.167   7.940  18.487  0.00  0.00    +0.000 C 
ATOM     10  C   UNL     1       3.210   7.527  17.754  0.00  0.00    +0.000 C 
BRANCH  10  11
ATOM     11  C   UNL     1       3.525   6.107  17.611  0.00  0.00    +0.000 A 
ATOM     12  C   UNL     1       2.660   5.221  18.264  0.00  0.00    +0.000 A 
ATOM     13  C   UNL     1       2.854   3.837  18.185  0.00  0.00    +0.000 A 
ATOM     14  C   UNL     1       3.915   3.318  17.445  0.00  0.00    +0.000 A 
ATOM     15  C   UNL     1       4.792   4.182  16.786  0.00  0.00    +0.000 A 
ATOM     16  C   UNL     1       4.594   5.568  16.885  0.00  0.00    +0.000 A 
BRANCH  16  17
ATOM     17  N   UNL     1       5.546   6.428  16.207  0.00  0.00    +0.000 N 
ATOM     18  O   UNL     1       6.605   6.686  16.800  0.00  0.00    +0.000 OA
ATOM     19  O   UNL     1       5.254   6.800  15.063  0.00  0.00    +0.000 OA
ENDBRANCH  16  17
ENDBRANCH  10  11
ENDBRANCH   2   9
BRANCH   6  20
ATOM     20  C   UNL     1      -1.171  11.388  21.885  0.00  0.00    +0.000 C 
BRANCH  20  21
ATOM     21  C   UNL     1      -1.751  12.440  22.808  0.00  0.00    +0.000 A 
ATOM     22  C   UNL     1      -3.032  12.261  23.361  0.00  0.00    +0.000 A 
ATOM     23  C   UNL     1      -3.566  13.208  24.237  0.00  0.00    +0.000 A 
ATOM     24  C   UNL     1      -2.818  14.332  24.562  0.00  0.00    +0.000 A 
ATOM     25  F   UNL     1      -3.327  15.237  25.409  0.00  0.00    +0.000 F 
ATOM     26  C   UNL     1      -1.550  14.530  24.029  0.00  0.00    +0.000 A 
ATOM     27  C   UNL     1      -1.014  13.585  23.151  0.00  0.00    +0.000 A 
ENDBRANCH  20  21
ENDBRANCH   6  20
TORSDOF 5
ENDMDL
MODEL 2
REMARK VINA RESULT:      -8.1      1.075      1.574
REMARK  Name = 
REMARK  5 active torsions:
REMARK  status: ('A' for Active; 'I' for Inactive)
REMARK    1  A    between atoms: C_2  and  C_3
REMARK    2  A    between atoms: C_4  and  C_5
REMARK    3  A    between atoms: C_10  and  N_11
REMARK    4  A    between atoms: N_17  and  C_18
REMARK    5  A    between atoms: C_18  and  C_19
REMARK                            x       y       z     vdW  Elec       q    Type
REMARK                         _______ _______ _______ _____ _____    ______ ____
ROOT
ATOM      1  O   UNL     1       2.375   9.304  17.600  0.00  0.00    +0.000 OA
ATOM      2  C   UNL     1       1.887   8.784  18.600  0.00  0.00    +0.000 C 
ATOM      3  N   UNL     1       1.018   9.425  19.454  0.00  0.00    +0.000 N 
ATOM      4  C   UNL     1       0.540   8.911  20.746  0.00  0.00    +0.000 C 
ATOM      5  C   UNL     1       0.812   9.915  21.893  0.00  0.00    +0.000 C 
ATOM      6  N   UNL     1       0.369  11.309  21.624  0.00  0.00    +0.000 NA
ATOM      7  C   UNL     1       0.965  11.735  20.334  0.00  0.00    +0.000 C 
ATOM      8  C   UNL     1       0.634  10.807  19.153  0.00  0.00    +0.000 C 
ENDROOT
BRANCH   2   9
ATOM      9  C   UNL     1       2.221   7.378  18.915  0.00  0.00    +0.000 C 
ATOM     10  C   UNL     1       2.749   6.624  17.941  0.00  0.00    +0.000 C 
BRANCH  10  11
ATOM     11  C   UNL     1       2.888   5.176  18.089  0.00  0.00    +0.000 A 
ATOM     12  C   UNL     1       1.703   4.437  17.997  0.00  0.00    +0.000 A 
ATOM     13  C   UNL     1       1.715   3.041  18.108  0.00  0.00    +0.000 A 
ATOM     14  C   UNL     1       2.917   2.364  18.307  0.00  0.00    +0.000 A 
ATOM     15  C   UNL     1       4.112   3.080  18.403  0.00  0.00    +0.000 A 
ATOM     16  C   UNL     1       4.083   4.480  18.304  0.00  0.00    +0.000 A 
BRANCH  16  17
ATOM     17  N   UNL     1       5.345   5.184  18.438  0.00  0.00    +0.000 N 
ATOM     18  O   UNL     1       5.740   5.433  19.588  0.00  0.00    +0.000 OA
ATOM     19  O   UNL     1       5.960   5.440  17.396  0.00  0.00    +0.000 OA
ENDBRANCH  16  17
ENDBRANCH  10  11
ENDBRANCH   2   9
BRANCH   6  20
ATOM     20  C   UNL     1      -1.103  11.387  21.645  0.00  0.00    +0.000 C 
BRANCH  20  21
ATOM     21  C   UNL     1      -1.684  12.342  22.667  0.00  0.00    +0.000 A 
ATOM     22  C   UNL     1      -0.972  13.499  23.032  0.00  0.00    +0.000 A 
ATOM     23  C   UNL     1      -1.510  14.404  23.950  0.00  0.00    +0.000 A 
ATOM     24  C   UNL     1      -2.759  14.153  24.500  0.00  0.00    +0.000 A 
ATOM     25  F   UNL     1      -3.279  15.025  25.376  0.00  0.00    +0.000 F 
ATOM     26  C   UNL     1      -3.482  13.017  24.154  0.00  0.00    +0.000 A 
ATOM     27  C   UNL     1      -2.946  12.110  23.238  0.00  0.00    +0.000 A 
ENDBRANCH  20  21
ENDBRANCH   6  20
TORSDOF 5
ENDMDL
MODEL 3
REMARK VINA RESULT:      -8.0      0.296      1.135
REMARK  Name = 
REMARK  5 active torsions:
REMARK  status: ('A' for Active; 'I' for Inactive)
REMARK    1  A    between atoms: C_2  and  C_3
REMARK    2  A    between atoms: C_4  and  C_5
REMARK    3  A    between atoms: C_10  and  N_11
REMARK    4  A    between atoms: N_17  and  C_18
REMARK    5  A    between atoms: C_18  and  C_19
REMARK                            x       y       z     vdW  Elec       q    Type
REMARK                         _______ _______ _______ _____ _____    ______ ____
ROOT
ATOM      1  O   UNL     1       1.908   9.942  17.485  0.00  0.00    +0.000 OA
ATOM      2  C   UNL     1       1.656   9.295  18.499  0.00  0.00    +0.000 C 
ATOM      3  N   UNL     1       0.852   9.749  19.520  0.00  0.00    +0.000 N 
ATOM      4  C   UNL     1       0.654   9.093  20.820  0.00  0.00    +0.000 C 
ATOM      5  C   UNL     1       0.963  10.052  21.995  0.00  0.00    +0.000 C 
ATOM      6  N   UNL     1       0.301  11.381  21.910  0.00  0.00    +0.000 NA
ATOM      7  C   UNL     1       0.626  11.968  20.588  0.00  0.00    +0.000 C 
ATOM      8  C   UNL     1       0.243  11.077  19.394  0.00  0.00    +0.000 C 
ENDROOT
BRANCH   2   9
ATOM      9  C   UNL     1       2.220   7.936  18.644  0.00  0.00    +0.000 C 
ATOM     10  C   UNL     1       2.961   7.453  17.637  0.00  0.00    +0.000 C 
BRANCH  10  11
ATOM     11  C   UNL     1       3.356   6.046  17.591  0.00  0.00    +0.000 A 
ATOM     12  C   UNL     1       2.411   5.130  18.068  0.00  0.00    +0.000 A 
ATOM     13  C   UNL     1       2.673   3.755  18.058  0.00  0.00    +0.000 A 
ATOM     14  C   UNL     1       3.885   3.275  17.563  0.00  0.00    +0.000 A 
ATOM     15  C   UNL     1       4.844   4.170  17.083  0.00  0.00    +0.000 A 
ATOM     16  C   UNL     1       4.573   5.547  17.111  0.00  0.00    +0.000 A 
BRANCH  16  17
ATOM     17  N   UNL     1       5.610   6.440  16.628  0.00  0.00    +0.000 N 
ATOM     18  O   UNL     1       5.651   6.660  15.408  0.00  0.00    +0.000 OA
ATOM     19  O   UNL     1       6.347   6.957  17.476  0.00  0.00    +0.000 OA
ENDBRANCH  16  17
ENDBRANCH  10  11
ENDBRANCH   2   9
BRANCH   6  20
ATOM     20  C   UNL     1      -1.147  11.243  22.152  0.00  0.00    +0.000 C 
BRANCH  20  21
ATOM     21  C   UNL     1      -1.775  12.355  22.965  0.00  0.00    +0.000 A 
ATOM     22  C   UNL     1      -1.043  13.524  23.241  0.00  0.00    +0.000 A 
ATOM     23  C   UNL     1      -1.620  14.570  23.964  0.00  0.00    +0.000 A 
ATOM     24  C   UNL     1      -2.930  14.448  24.408  0.00  0.00    +0.000 A 
ATOM     25  F   UNL     1      -3.487  15.455  25.096  0.00  0.00    +0.000 F 
ATOM     26  C   UNL     1      -3.673  13.303  24.147  0.00  0.00    +0.000 A 
ATOM     27  C   UNL     1      -3.098  12.255  23.426  0.00  0.00    +0.000 A 
ENDBRANCH  20  21
ENDBRANCH   6  20
TORSDOF 5
ENDMDL
MODEL 4
REMARK VINA RESULT:      -7.9      1.197      1.538
REMARK  Name = 
REMARK  5 active torsions:
REMARK  status: ('A' for Active; 'I' for Inactive)
REMARK    1  A    between atoms: C_2  and  C_3
REMARK    2  A    between atoms: C_4  and  C_5
REMARK    3  A    between atoms: C_10  and  N_11
REMARK    4  A    between atoms: N_17  and  C_18
REMARK    5  A    between atoms: C_18  and  C_19
REMARK                            x       y       z     vdW  Elec       q    Type
REMARK                         _______ _______ _______ _____ _____    ______ ____
ROOT
ATOM      1  O   UNL     1       2.420   8.984  17.973  0.00  0.00    +0.000 OA
ATOM      2  C   UNL     1       1.924   8.444  18.958  0.00  0.00    +0.000 C 
ATOM      3  N   UNL     1       1.057   9.071  19.824  0.00  0.00    +0.000 N 
ATOM      4  C   UNL     1       0.569   8.530  21.101  0.00  0.00    +0.000 C 
ATOM      5  C   UNL     1       0.845   9.504  22.273  0.00  0.00    +0.000 C 
ATOM      6  N   UNL     1       0.414  10.908  22.036  0.00  0.00    +0.000 NA
ATOM      7  C   UNL     1       1.018  11.360  20.759  0.00  0.00    +0.000 C 
ATOM      8  C   UNL     1       0.684  10.463  19.556  0.00  0.00    +0.000 C 
ENDROOT
BRANCH   2   9
ATOM      9  C   UNL     1       2.246   7.028  19.241  0.00  0.00    +0.000 C 
ATOM     10  C   UNL     1       2.482   6.219  18.200  0.00  0.00    +0.000 C 
BRANCH  10  11
ATOM     11  C   UNL     1       2.573   4.769  18.369  0.00  0.00    +0.000 A 
ATOM     12  C   UNL     1       1.465   4.154  18.965  0.00  0.00    +0.000 A 
ATOM     13  C   UNL     1       1.432   2.768  19.163  0.00  0.00    +0.000 A 
ATOM     14  C   UNL     1       2.507   1.976  18.761  0.00  0.00    +0.000 A 
ATOM     15  C   UNL     1       3.622   2.567  18.165  0.00  0.00    +0.000 A 
ATOM     16  C   UNL     1       3.648   3.959  17.985  0.00  0.00    +0.000 A 
BRANCH  16  17
ATOM     17  N   UNL     1       4.840   4.532  17.387  0.00  0.00    +0.000 N 
ATOM     18  O   UNL     1       4.846   4.679  16.155  0.00  0.00    +0.000 OA
ATOM     19  O   UNL     1       5.744   4.879  18.157  0.00  0.00    +0.000 OA
ENDBRANCH  16  17
ENDBRANCH  10  11
ENDBRANCH   2   9
BRANCH   6  20
ATOM     20  C   UNL     1      -1.058  10.997  22.054  0.00  0.00    +0.000 C 
BRANCH  20  21
ATOM     21  C   UNL     1      -1.623  12.182  22.809  0.00  0.00    +0.000 A 
ATOM     22  C   UNL     1      -2.908  12.107  23.376  0.00  0.00    +0.000 A 
ATOM     23  C   UNL     1      -3.429  13.181  24.100  0.00  0.00    +0.000 A 
ATOM     24  C   UNL     1      -2.664  14.329  24.260  0.00  0.00    +0.000 A 
ATOM     25  F   UNL     1      -3.161  15.357  24.961  0.00  0.00    +0.000 F 
ATOM     26  C   UNL     1      -1.391  14.426  23.709  0.00  0.00    +0.000 A 
ATOM     27  C   UNL     1      -0.869  13.353  22.983  0.00  0.00    +0.000 A 
ENDBRANCH  20  21
ENDBRANCH   6  20
TORSDOF 5
ENDMDL
MODEL 5
REMARK VINA RESULT:      -7.8      1.529      1.891
REMARK  Name = 
REMARK  5 active torsions:
REMARK  status: ('A' for Active; 'I' for Inactive)
REMARK    1  A    between atoms: C_2  and  C_3
REMARK    2  A    between atoms: C_4  and  C_5
REMARK    3  A    between atoms: C_10  and  N_11
REMARK    4  A    between atoms: N_17  and  C_18
REMARK    5  A    between atoms: C_18  and  C_19
REMARK                            x       y       z     vdW  Elec       q    Type
REMARK                         _______ _______ _______ _____ _____    ______ ____
ROOT
ATOM      1  O   UNL     1       2.252   9.080  17.573  0.00  0.00    +0.000 OA
ATOM      2  C   UNL     1       1.954   8.515  18.623  0.00  0.00    +0.000 C 
ATOM      3  N   UNL     1       1.157   9.073  19.596  0.00  0.00    +0.000 N 
ATOM      4  C   UNL     1       0.908   8.515  20.934  0.00  0.00    +0.000 C 
ATOM      5  C   UNL     1       1.244   9.537  22.047  0.00  0.00    +0.000 C 
ATOM      6  N   UNL     1       0.645  10.886  21.862  0.00  0.00    +0.000 NA
ATOM      7  C   UNL     1       1.018  11.367  20.509  0.00  0.00    +0.000 C 
ATOM      8  C   UNL     1       0.612  10.415  19.371  0.00  0.00    +0.000 C 
ENDROOT
BRANCH   2   9
ATOM      9  C   UNL     1       2.453   7.145  18.868  0.00  0.00    +0.000 C 
ATOM     10  C   UNL     1       2.404   6.268  17.856  0.00  0.00    +0.000 C 
BRANCH  10  11
ATOM     11  C   UNL     1       2.650   4.843  18.071  0.00  0.00    +0.000 A 
ATOM     12  C   UNL     1       1.515   4.025  18.103  0.00  0.00    +0.000 A 
ATOM     13  C   UNL     1       1.629   2.642  18.287  0.00  0.00    +0.000 A 
ATOM     14  C   UNL     1       2.885   2.056  18.436  0.00  0.00    +0.000 A 
ATOM     15  C   UNL     1       4.032   2.851  18.409  0.00  0.00    +0.000 A 
ATOM     16  C   UNL     1       3.902   4.238  18.238  0.00  0.00    +0.000 A 
BRANCH  16  17
ATOM     17  N   UNL     1       5.119   5.028  18.244  0.00  0.00    +0.000 N 
ATOM     18  O   UNL     1       5.565   5.380  19.347  0.00  0.00    +0.000 OA
ATOM     19  O   UNL     1       5.652   5.250  17.150  0.00  0.00    +0.000 OA
ENDBRANCH  16  17
ENDBRANCH  10  11
ENDBRANCH   2   9
BRANCH   6  20
ATOM     20  C   UNL     1      -0.811  10.830  22.085  0.00  0.00    +0.000 C 
BRANCH  20  21
ATOM     21  C   UNL     1      -1.509  12.173  22.128  0.00  0.00    +0.000 A 
ATOM     22  C   UNL     1      -1.216  13.086  23.156  0.00  0.00    +0.000 A 
ATOM     23  C   UNL     1      -1.830  14.339  23.190  0.00  0.00    +0.000 A 
ATOM     24  C   UNL     1      -2.735  14.681  22.194  0.00  0.00    +0.000 A 
ATOM     25  F   UNL     1      -3.319  15.887  22.222  0.00  0.00    +0.000 F 
ATOM     26  C   UNL     1      -3.040  13.796  21.167  0.00  0.00    +0.000 A 
ATOM     27  C   UNL     1      -2.429  12.541  21.132  0.00  0.00    +0.000 A 
ENDBRANCH  20  21
ENDBRANCH   6  20
TORSDOF 5
ENDMDL
MODEL 6
REMARK VINA RESULT:      -7.7      1.031      1.124
REMARK  Name = 
REMARK  5 active torsions:
REMARK  status: ('A' for Active; 'I' for Inactive)
REMARK    1  A    between atoms: C_2  and  C_3
REMARK    2  A    between atoms: C_4  and  C_5
REMARK    3  A    between atoms: C_10  and  N_11
REMARK    4  A    between atoms: N_17  and  C_18
REMARK    5  A    between atoms: C_18  and  C_19
REMARK                            x       y       z     vdW  Elec       q    Type
REMARK                         _______ _______ _______ _____ _____    ______ ____
ROOT
ATOM      1  O   UNL     1       2.092   9.704  17.502  0.00  0.00    +0.000 OA
ATOM      2  C   UNL     1       1.767   9.029  18.476  0.00  0.00    +0.000 C 
ATOM      3  N   UNL     1       0.994   9.500  19.514  0.00  0.00    +0.000 N 
ATOM      4  C   UNL     1       0.717   8.794  20.773  0.00  0.00    +0.000 C 
ATOM      5  C   UNL     1       1.098   9.655  22.003  0.00  0.00    +0.000 C 
ATOM      6  N   UNL     1       0.564  11.042  21.986  0.00  0.00    +0.000 NA
ATOM      7  C   UNL     1       0.961  11.668  20.702  0.00  0.00    +0.000 C 
ATOM      8  C   UNL     1       0.514  10.883  19.457  0.00  0.00    +0.000 C 
ENDROOT
BRANCH   2   9
ATOM      9  C   UNL     1       2.199   7.617  18.550  0.00  0.00    +0.000 C 
ATOM     10  C   UNL     1       3.212   7.228  17.763  0.00  0.00    +0.000 C 
BRANCH  10  11
ATOM     11  C   UNL     1       3.547   5.815  17.596  0.00  0.00    +0.000 A 
ATOM     12  C   UNL     1       2.634   4.903  18.138  0.00  0.00    +0.000 A 
ATOM     13  C   UNL     1       2.842   3.523  18.026  0.00  0.00    +0.000 A 
ATOM     14  C   UNL     1       3.966   3.035  17.361  0.00  0.00    +0.000 A 
ATOM     15  C   UNL     1       4.891   3.925  16.813  0.00  0.00    +0.000 A 
ATOM     16  C   UNL     1       4.677   5.306  16.945  0.00  0.00    +0.000 A 
BRANCH  16  17
ATOM     17  N   UNL     1       5.679   6.193  16.384  0.00  0.00    +0.000 N 
ATOM     18  O   UNL     1       6.679   6.435  17.077  0.00  0.00    +0.000 OA
ATOM     19  O   UNL     1       5.487   6.603  15.233  0.00  0.00    +0.000 OA
ENDBRANCH  16  17
ENDBRANCH  10  11
ENDBRANCH   2   9
BRANCH   6  20
ATOM     20  C   UNL     1      -0.894  11.028  22.207  0.00  0.00    +0.000 C 
BRANCH  20  21
ATOM     21  C   UNL     1      -1.556  12.390  22.232  0.00  0.00    +0.000 A 
ATOM     22  C   UNL     1      -2.503  12.730  21.249  0.00  0.00    +0.000 A 
ATOM     23  C   UNL     1      -3.143  13.970  21.278  0.00  0.00    +0.000 A 
ATOM     24  C   UNL     1      -2.839  14.869  22.292  0.00  0.00    +0.000 A 
ATOM     25  F   UNL     1      -3.459  16.056  22.325  0.00  0.00    +0.000 F 
ATOM     26  C   UNL     1      -1.908  14.555  23.275  0.00  0.00    +0.000 A 
ATOM     27  C   UNL     1      -1.265  13.315  23.247  0.00  0.00    +0.000 A 
ENDBRANCH  20  21
ENDBRANCH   6  20
TORSDOF 5
ENDMDL
MODEL 7
REMARK VINA RESULT:      -7.7      1.017      1.428
REMARK  Name = 
REMARK  5 active torsions:
REMARK  status: ('A' for Active; 'I' for Inactive)
REMARK    1  A    between atoms: C_2  and  C_3
REMARK    2  A    between atoms: C_4  and  C_5
REMARK    3  A    between atoms: C_10  and  N_11
REMARK    4  A    between atoms: N_17  and  C_18
REMARK    5  A    between atoms: C_18  and  C_19
REMARK                            x       y       z     vdW  Elec       q    Type
REMARK                         _______ _______ _______ _____ _____    ______ ____
ROOT
ATOM      1  O   UNL     1       2.095   9.730  17.508  0.00  0.00    +0.000 OA
ATOM      2  C   UNL     1       1.746   9.046  18.467  0.00  0.00    +0.000 C 
ATOM      3  N   UNL     1       0.972   9.514  19.505  0.00  0.00    +0.000 N 
ATOM      4  C   UNL     1       0.668   8.792  20.749  0.00  0.00    +0.000 C 
ATOM      5  C   UNL     1       1.053   9.624  21.997  0.00  0.00    +0.000 C 
ATOM      6  N   UNL     1       0.547  11.022  21.999  0.00  0.00    +0.000 NA
ATOM      7  C   UNL     1       0.970  11.662  20.730  0.00  0.00    +0.000 C 
ATOM      8  C   UNL     1       0.520  10.907  19.467  0.00  0.00    +0.000 C 
ENDROOT
BRANCH   2   9
ATOM      9  C   UNL     1       2.150   7.624  18.520  0.00  0.00    +0.000 C 
ATOM     10  C   UNL     1       3.243   7.256  17.838  0.00  0.00    +0.000 C 
BRANCH  10  11
ATOM     11  C   UNL     1       3.577   5.846  17.641  0.00  0.00    +0.000 A 
ATOM     12  C   UNL     1       2.690   4.923  18.207  0.00  0.00    +0.000 A 
ATOM     13  C   UNL     1       2.900   3.546  18.070  0.00  0.00    +0.000 A 
ATOM     14  C   UNL     1       4.001   3.071  17.357  0.00  0.00    +0.000 A 
ATOM     15  C   UNL     1       4.900   3.973  16.785  0.00  0.00    +0.000 A 
ATOM     16  C   UNL     1       4.684   5.351  16.942  0.00  0.00    +0.000 A 
BRANCH  16  17
ATOM     17  N   UNL     1       5.660   6.249  16.354  0.00  0.00    +0.000 N 
ATOM     18  O   UNL     1       5.416   6.696  15.222  0.00  0.00    +0.000 OA
ATOM     19  O   UNL     1       6.643   6.544  17.046  0.00  0.00    +0.000 OA
ENDBRANCH  16  17
ENDBRANCH  10  11
ENDBRANCH   2   9
BRANCH   6  20
ATOM     20  C   UNL     1      -0.913  11.033  22.205  0.00  0.00    +0.000 C 
BRANCH  20  21
ATOM     21  C   UNL     1      -1.549  12.407  22.246  0.00  0.00    +0.000 A 
ATOM     22  C   UNL     1      -1.198  13.314  23.262  0.00  0.00    +0.000 A 
ATOM     23  C   UNL     1      -1.754  14.594  23.294  0.00  0.00    +0.000 A 
ATOM     24  C   UNL     1      -2.658  14.969  22.308  0.00  0.00    +0.000 A 
ATOM     25  F   UNL     1      -3.186  16.200  22.334  0.00  0.00    +0.000 F 
ATOM     26  C   UNL     1      -3.019  14.090  21.293  0.00  0.00    +0.000 A 
ATOM     27  C   UNL     1      -2.465  12.808  21.260  0.00  0.00    +0.000 A 
ENDBRANCH  20  21
ENDBRANCH   6  20
TORSDOF 5
ENDMDL
MODEL 8
REMARK VINA RESULT:      -7.7      1.330      1.541
REMARK  Name = 
REMARK  5 active torsions:
REMARK  status: ('A' for Active; 'I' for Inactive)
REMARK    1  A    between atoms: C_2  and  C_3
REMARK    2  A    between atoms: C_4  and  C_5
REMARK    3  A    between atoms: C_10  and  N_11
REMARK    4  A    between atoms: N_17  and  C_18
REMARK    5  A    between atoms: C_18  and  C_19
REMARK                            x       y       z     vdW  Elec       q    Type
REMARK                         _______ _______ _______ _____ _____    ______ ____
ROOT
ATOM      1  O   UNL     1       2.779  10.524  17.550  0.00  0.00    +0.000 OA
ATOM      2  C   UNL     1       1.846   9.908  18.059  0.00  0.00    +0.000 C 
ATOM      3  N   UNL     1       0.792  10.509  18.711  0.00  0.00    +0.000 N 
ATOM      4  C   UNL     1      -0.256   9.820  19.478  0.00  0.00    +0.000 C 
ATOM      5  C   UNL     1      -0.364  10.375  20.919  0.00  0.00    +0.000 C 
ATOM      6  N   UNL     1      -0.455  11.856  21.014  0.00  0.00    +0.000 NA
ATOM      7  C   UNL     1       0.684  12.433  20.261  0.00  0.00    +0.000 C 
ATOM      8  C   UNL     1       0.764  11.972  18.796  0.00  0.00    +0.000 C 
ENDROOT
BRANCH   2   9
ATOM      9  C   UNL     1       1.818   8.433  17.960  0.00  0.00    +0.000 C 
ATOM     10  C   UNL     1       2.966   7.769  18.157  0.00  0.00    +0.000 C 
BRANCH  10  11
ATOM     11  C   UNL     1       3.083   6.344  17.848  0.00  0.00    +0.000 A 
ATOM     12  C   UNL     1       1.999   5.546  18.230  0.00  0.00    +0.000 A 
ATOM     13  C   UNL     1       1.992   4.170  17.972  0.00  0.00    +0.000 A 
ATOM     14  C   UNL     1       3.071   3.573  17.320  0.00  0.00    +0.000 A 
ATOM     15  C   UNL     1       4.163   4.349  16.930  0.00  0.00    +0.000 A 
ATOM     16  C   UNL     1       4.163   5.725  17.207  0.00  0.00    +0.000 A 
BRANCH  16  17
ATOM     17  N   UNL     1       5.332   6.487  16.808  0.00  0.00    +0.000 N 
ATOM     18  O   UNL     1       6.241   6.616  17.643  0.00  0.00    +0.000 OA
ATOM     19  O   UNL     1       5.358   6.910  15.646  0.00  0.00    +0.000 OA
ENDBRANCH  16  17
ENDBRANCH  10  11
ENDBRANCH   2   9
BRANCH   6  20
ATOM     20  C   UNL     1      -1.771  12.316  20.532  0.00  0.00    +0.000 C 
BRANCH  20  21
ATOM     21  C   UNL     1      -2.820  12.511  21.608  0.00  0.00    +0.000 A 
ATOM     22  C   UNL     1      -4.134  12.865  21.253  0.00  0.00    +0.000 A 
ATOM     23  C   UNL     1      -5.118  13.017  22.231  0.00  0.00    +0.000 A 
ATOM     24  C   UNL     1      -4.788  12.813  23.565  0.00  0.00    +0.000 A 
ATOM     25  F   UNL     1      -5.734  12.953  24.504  0.00  0.00    +0.000 F 
ATOM     26  C   UNL     1      -3.497  12.462  23.940  0.00  0.00    +0.000 A 
ATOM     27  C   UNL     1      -2.511  12.310  22.963  0.00  0.00    +0.000 A 
ENDBRANCH  20  21
ENDBRANCH   6  20
TORSDOF 5
ENDMDL
MODEL 9
REMARK VINA RESULT:      -7.7      1.884      2.381
REMARK  Name = 
REMARK  5 active torsions:
REMARK  status: ('A' for Active; 'I' for Inactive)
REMARK    1  A    between atoms: C_2  and  C_3
REMARK    2  A    between atoms: C_4  and  C_5
REMARK    3  A    between atoms: C_10  and  N_11
REMARK    4  A    between atoms: N_17  and  C_18
REMARK    5  A    between atoms: C_18  and  C_19
REMARK                            x       y       z     vdW  Elec       q    Type
REMARK                         _______ _______ _______ _____ _____    ______ ____
ROOT
ATOM      1  O   UNL     1       2.347   8.904  17.381  0.00  0.00    +0.000 OA
ATOM      2  C   UNL     1       2.014   8.572  18.516  0.00  0.00    +0.000 C 
ATOM      3  N   UNL     1       1.147   9.293  19.305  0.00  0.00    +0.000 N 
ATOM      4  C   UNL     1       0.847   9.032  20.720  0.00  0.00    +0.000 C 
ATOM      5  C   UNL     1       1.088  10.288  21.594  0.00  0.00    +0.000 C 
ATOM      6  N   UNL     1       0.455  11.535  21.087  0.00  0.00    +0.000 NA
ATOM      7  C   UNL     1       0.882  11.723  19.680  0.00  0.00    +0.000 C 
ATOM      8  C   UNL     1       0.571  10.527  18.764  0.00  0.00    +0.000 C 
ENDROOT
BRANCH   2   9
ATOM      9  C   UNL     1       2.545   7.312  19.081  0.00  0.00    +0.000 C 
ATOM     10  C   UNL     1       1.915   6.171  18.771  0.00  0.00    +0.000 C 
BRANCH  10  11
ATOM     11  C   UNL     1       2.220   4.921  19.466  0.00  0.00    +0.000 A 
ATOM     12  C   UNL     1       1.951   4.904  20.839  0.00  0.00    +0.000 A 
ATOM     13  C   UNL     1       2.188   3.757  21.605  0.00  0.00    +0.000 A 
ATOM     14  C   UNL     1       2.694   2.604  21.005  0.00  0.00    +0.000 A 
ATOM     15  C   UNL     1       2.971   2.598  19.637  0.00  0.00    +0.000 A 
ATOM     16  C   UNL     1       2.741   3.759  18.883  0.00  0.00    +0.000 A 
BRANCH  16  17
ATOM     17  N   UNL     1       3.071   3.714  17.471  0.00  0.00    +0.000 N 
ATOM     18  O   UNL     1       4.204   4.094  17.137  0.00  0.00    +0.000 OA
ATOM     19  O   UNL     1       2.213   3.252  16.707  0.00  0.00    +0.000 OA
ENDBRANCH  16  17
ENDBRANCH  10  11
ENDBRANCH   2   9
BRANCH   6  20
ATOM     20  C   UNL     1      -1.008  11.464  21.253  0.00  0.00    +0.000 C 
BRANCH  20  21
ATOM     21  C   UNL     1      -1.579  12.355  22.337  0.00  0.00    +0.000 A 
ATOM     22  C   UNL     1      -0.848  13.467  22.790  0.00  0.00    +0.000 A 
ATOM     23  C   UNL     1      -1.376  14.314  23.767  0.00  0.00    +0.000 A 
ATOM     24  C   UNL     1      -2.635  14.049  24.289  0.00  0.00    +0.000 A 
ATOM     25  F   UNL     1      -3.145  14.865  25.221  0.00  0.00    +0.000 F 
ATOM     26  C   UNL     1      -3.377  12.956  23.856  0.00  0.00    +0.000 A 
ATOM     27  C   UNL     1      -2.850  12.107  22.880  0.00  0.00    +0.000 A 
ENDBRANCH  20  21
ENDBRANCH   6  20
TORSDOF 5
ENDMDL
