MODEL 1
REMARK VINA RESULT:      -7.3      0.000      0.000
REMARK  Name = 
REMARK  10 active torsions:
REMARK  status: ('A' for Active; 'I' for Inactive)
REMARK    1  A    between atoms: S_2  and  N_4
REMARK    2  A    between atoms: S_2  and  C_17
REMARK    3  A    between atoms: N_4  and  C_5
REMARK    4  A    between atoms: C_5  and  C_6
REMARK    5  A    between atoms: C_6  and  C_7
REMARK    6  A    between atoms: C_7  and  C_8
REMARK    7  A    between atoms: C_8  and  C_9
REMARK    8  A    between atoms: C_9  and  C_10
REMARK    9  A    between atoms: C_10  and  C_11
REMARK   10  A    between atoms: C_11  and  C_12
REMARK                            x       y       z     vdW  Elec       q    Type
REMARK                         _______ _______ _______ _____ _____    ______ ____
ROOT
ATOM      1  N   UNL     1       2.924   2.384  20.272  0.00  0.00    +0.000 NA
ATOM      2  H   UNL     1       3.680   2.969  20.623  0.00  0.00    +0.000 HD
ENDROOT
BRANCH   1   4
ATOM      3  O   UNL     1       3.769   0.971  18.349  0.00  0.00    +0.000 OA
ATOM      4  S   UNL     1       3.020   2.183  18.589  0.00  0.00    +0.000 S 
ATOM      5  O   UNL     1       1.705   2.404  18.033  0.00  0.00    +0.000 OA
BRANCH   4   6
ATOM      6  C   UNL     1       4.068   3.541  18.113  0.00  0.00    +0.000 A 
ATOM      7  C   UNL     1       3.723   4.288  16.985  0.00  0.00    +0.000 A 
ATOM      8  C   UNL     1       4.526   5.362  16.602  0.00  0.00    +0.000 A 
ATOM      9  C   UNL     1       5.662   5.710  17.349  0.00  0.00    +0.000 A 
ATOM     10  C   UNL     1       6.460   6.807  16.984  0.00  0.00    +0.000 A 
ATOM     11  C   UNL     1       7.579   7.156  17.740  0.00  0.00    +0.000 A 
ATOM     12  C   UNL     1       7.918   6.412  18.865  0.00  0.00    +0.000 A 
ATOM     13  C   UNL     1       7.136   5.315  19.241  0.00  0.00    +0.000 A 
ATOM     14  C   UNL     1       6.003   4.953  18.496  0.00  0.00    +0.000 A 
ATOM     15  C   UNL     1       5.198   3.862  18.869  0.00  0.00    +0.000 A 
ENDBRANCH   4   6
ENDBRANCH   1   4
BRANCH   1  16
ATOM     16  C   UNL     1       1.584   2.667  20.799  0.00  0.00    +0.000 C 
BRANCH  16  17
ATOM     17  C   UNL     1       1.155   4.088  20.450  0.00  0.00    +0.000 C 
BRANCH  17  18
ATOM     18  C   UNL     1       2.261   5.057  20.872  0.00  0.00    +0.000 C 
BRANCH  18  19
ATOM     19  C   UNL     1       1.946   6.496  20.485  0.00  0.00    +0.000 C 
BRANCH  19  20
ATOM     20  C   UNL     1       2.804   6.933  19.296  0.00  0.00    +0.000 C 
BRANCH  20  21
ATOM     21  C   UNL     1       1.933   7.407  18.136  0.00  0.00    +0.000 C 
BRANCH  21  22
ATOM     22  C   UNL     1       1.994   8.928  17.986  0.00  0.00    +0.000 C 
BRANCH  22  23
ATOM     23  C   UNL     1       0.876   9.593  18.705  0.00  0.00    +0.000 A 
ATOM     24  C   UNL     1       0.701   9.771  20.061  0.00  0.00    +0.000 A 
ATOM     25  N   UNL     1      -0.471  10.460  20.183  0.00  0.00    +0.000 N 
ATOM     26  C   UNL     1      -0.962  10.665  18.926  0.00  0.00    +0.000 A 
ATOM     27  N   UNL     1      -0.172  10.155  18.014  0.00  0.00    +0.000 NA
ATOM     28  H   UNL     1      -0.903  10.767  21.044  0.00  0.00    +0.000 HD
ENDBRANCH  22  23
ENDBRANCH  21  22
ENDBRANCH  20  21
ENDBRANCH  19  20
ENDBRANCH  18  19
ENDBRANCH  17  18
ENDBRANCH  16  17
ENDBRANCH   1  16
TORSDOF 10
ENDMDL
MODEL 2
REMARK VINA RESULT:      -7.3      5.339      8.004
REMARK  Name = 
REMARK  10 active torsions:
REMARK  status: ('A' for Active; 'I' for Inactive)
REMARK    1  A    between atoms: S_2  and  N_4
REMARK    2  A    between atoms: S_2  and  C_17
REMARK    3  A    between atoms: N_4  and  C_5
REMARK    4  A    between atoms: C_5  and  C_6
REMARK    5  A    between atoms: C_6  and  C_7
REMARK    6  A    between atoms: C_7  and  C_8
REMARK    7  A    between atoms: C_8  and  C_9
REMARK    8  A    between atoms: C_9  and  C_10
REMARK    9  A    between atoms: C_10  and  C_11
REMARK   10  A    between atoms: C_11  and  C_12
REMARK                            x       y       z     vdW  Elec       q    Type
REMARK                         _______ _______ _______ _____ _____    ______ ____
ROOT
ATOM      1  N   UNL     1       6.484   6.413  16.279  0.00  0.00    +0.000 NA
ATOM      2  H   UNL     1       5.613   6.836  16.596  0.00  0.00    +0.000 HD
ENDROOT
BRANCH   1   4
ATOM      3  O   UNL     1       6.133   4.107  15.296  0.00  0.00    +0.000 OA
ATOM      4  S   UNL     1       6.497   4.737  16.544  0.00  0.00    +0.000 S 
ATOM      5  O   UNL     1       7.710   4.403  17.256  0.00  0.00    +0.000 OA
BRANCH   4   6
ATOM      6  C   UNL     1       5.120   4.525  17.651  0.00  0.00    +0.000 A 
ATOM      7  C   UNL     1       5.042   5.335  18.786  0.00  0.00    +0.000 A 
ATOM      8  C   UNL     1       3.965   5.191  19.659  0.00  0.00    +0.000 A 
ATOM      9  C   UNL     1       2.950   4.257  19.398  0.00  0.00    +0.000 A 
ATOM     10  C   UNL     1       1.849   4.124  20.260  0.00  0.00    +0.000 A 
ATOM     11  C   UNL     1       0.836   3.204  19.986  0.00  0.00    +0.000 A 
ATOM     12  C   UNL     1       0.915   2.401  18.853  0.00  0.00    +0.000 A 
ATOM     13  C   UNL     1       2.006   2.517  17.987  0.00  0.00    +0.000 A 
ATOM     14  C   UNL     1       3.031   3.442  18.243  0.00  0.00    +0.000 A 
ATOM     15  C   UNL     1       4.127   3.582  17.373  0.00  0.00    +0.000 A 
ENDBRANCH   4   6
ENDBRANCH   1   4
BRANCH   1  16
ATOM     16  C   UNL     1       7.718   7.120  16.639  0.00  0.00    +0.000 C 
BRANCH  16  17
ATOM     17  C   UNL     1       7.562   7.831  17.979  0.00  0.00    +0.000 C 
BRANCH  17  18
ATOM     18  C   UNL     1       7.985   9.292  17.816  0.00  0.00    +0.000 C 
BRANCH  18  19
ATOM     19  C   UNL     1       9.059   9.697  18.819  0.00  0.00    +0.000 C 
BRANCH  19  20
ATOM     20  C   UNL     1       9.751  10.986  18.375  0.00  0.00    +0.000 C 
BRANCH  20  21
ATOM     21  C   UNL     1      10.662  11.526  19.473  0.00  0.00    +0.000 C 
BRANCH  21  22
ATOM     22  C   UNL     1      11.914  12.175  18.882  0.00  0.00    +0.000 C 
BRANCH  22  23
ATOM     23  C   UNL     1      11.569  13.314  17.991  0.00  0.00    +0.000 A 
ATOM     24  C   UNL     1      11.710  13.419  16.624  0.00  0.00    +0.000 A 
ATOM     25  N   UNL     1      11.221  14.654  16.306  0.00  0.00    +0.000 N 
ATOM     26  C   UNL     1      10.817  15.247  17.467  0.00  0.00    +0.000 A 
ATOM     27  N   UNL     1      11.012  14.465  18.499  0.00  0.00    +0.000 NA
ATOM     28  H   UNL     1      11.165  15.060  15.383  0.00  0.00    +0.000 HD
ENDBRANCH  22  23
ENDBRANCH  21  22
ENDBRANCH  20  21
ENDBRANCH  19  20
ENDBRANCH  18  19
ENDBRANCH  17  18
ENDBRANCH  16  17
ENDBRANCH   1  16
TORSDOF 10
ENDMDL
MODEL 3
REMARK VINA RESULT:      -7.3      5.538      7.965
REMARK  Name = 
REMARK  10 active torsions:
REMARK  status: ('A' for Active; 'I' for Inactive)
REMARK    1  A    between atoms: S_2  and  N_4
REMARK    2  A    between atoms: S_2  and  C_17
REMARK    3  A    between atoms: N_4  and  C_5
REMARK    4  A    between atoms: C_5  and  C_6
REMARK    5  A    between atoms: C_6  and  C_7
REMARK    6  A    between atoms: C_7  and  C_8
REMARK    7  A    between atoms: C_8  and  C_9
REMARK    8  A    between atoms: C_9  and  C_10
REMARK    9  A    between atoms: C_10  and  C_11
REMARK   10  A    between atoms: C_11  and  C_12
REMARK                            x       y       z     vdW  Elec       q    Type
REMARK                         _______ _______ _______ _____ _____    ______ ____
ROOT
ATOM      1  N   UNL     1       7.256   6.938  16.948  0.00  0.00    +0.000 NA
ATOM      2  H   UNL     1       6.517   7.633  16.851  0.00  0.00    +0.000 HD
ENDROOT
BRANCH   1   4
ATOM      3  O   UNL     1       6.603   5.781  14.794  0.00  0.00    +0.000 OA
ATOM      4  S   UNL     1       6.845   5.479  16.186  0.00  0.00    +0.000 S 
ATOM      5  O   UNL     1       7.789   4.469  16.607  0.00  0.00    +0.000 OA
BRANCH   4   6
ATOM      6  C   UNL     1       5.265   5.110  16.917  0.00  0.00    +0.000 A 
ATOM      7  C   UNL     1       4.419   6.170  17.252  0.00  0.00    +0.000 A 
ATOM      8  C   UNL     1       3.172   5.900  17.816  0.00  0.00    +0.000 A 
ATOM      9  C   UNL     1       2.752   4.578  18.030  0.00  0.00    +0.000 A 
ATOM     10  C   UNL     1       1.488   4.299  18.572  0.00  0.00    +0.000 A 
ATOM     11  C   UNL     1       1.071   2.981  18.768  0.00  0.00    +0.000 A 
ATOM     12  C   UNL     1       1.914   1.928  18.430  0.00  0.00    +0.000 A 
ATOM     13  C   UNL     1       3.178   2.188  17.891  0.00  0.00    +0.000 A 
ATOM     14  C   UNL     1       3.611   3.507  17.681  0.00  0.00    +0.000 A 
ATOM     15  C   UNL     1       4.873   3.786  17.126  0.00  0.00    +0.000 A 
ENDBRANCH   4   6
ENDBRANCH   1   4
BRANCH   1  16
ATOM     16  C   UNL     1       7.855   6.808  18.282  0.00  0.00    +0.000 C 
BRANCH  16  17
ATOM     17  C   UNL     1       8.484   8.126  18.721  0.00  0.00    +0.000 C 
BRANCH  17  18
ATOM     18  C   UNL     1       8.088   9.219  17.728  0.00  0.00    +0.000 C 
BRANCH  18  19
ATOM     19  C   UNL     1       8.394  10.616  18.255  0.00  0.00    +0.000 C 
BRANCH  19  20
ATOM     20  C   UNL     1       9.795  10.664  18.866  0.00  0.00    +0.000 C 
BRANCH  20  21
ATOM     21  C   UNL     1      10.082  12.035  19.473  0.00  0.00    +0.000 C 
BRANCH  21  22
ATOM     22  C   UNL     1      11.448  12.559  19.029  0.00  0.00    +0.000 C 
BRANCH  22  23
ATOM     23  C   UNL     1      11.315  13.679  18.061  0.00  0.00    +0.000 A 
ATOM     24  C   UNL     1      11.902  13.830  16.823  0.00  0.00    +0.000 A 
ATOM     25  N   UNL     1      11.428  15.017  16.343  0.00  0.00    +0.000 N 
ATOM     26  C   UNL     1      10.595  15.541  17.290  0.00  0.00    +0.000 A 
ATOM     27  N   UNL     1      10.505  14.757  18.335  0.00  0.00    +0.000 NA
ATOM     28  H   UNL     1      11.649  15.438  15.452  0.00  0.00    +0.000 HD
ENDBRANCH  22  23
ENDBRANCH  21  22
ENDBRANCH  20  21
ENDBRANCH  19  20
ENDBRANCH  18  19
ENDBRANCH  17  18
ENDBRANCH  16  17
ENDBRANCH   1  16
TORSDOF 10
ENDMDL
MODEL 4
REMARK VINA RESULT:      -7.2      5.658      8.121
REMARK  Name = 
REMARK  10 active torsions:
REMARK  status: ('A' for Active; 'I' for Inactive)
REMARK    1  A    between atoms: S_2  and  N_4
REMARK    2  A    between atoms: S_2  and  C_17
REMARK    3  A    between atoms: N_4  and  C_5
REMARK    4  A    between atoms: C_5  and  C_6
REMARK    5  A    between atoms: C_6  and  C_7
REMARK    6  A    between atoms: C_7  and  C_8
REMARK    7  A    between atoms: C_8  and  C_9
REMARK    8  A    between atoms: C_9  and  C_10
REMARK    9  A    between atoms: C_10  and  C_11
REMARK   10  A    between atoms: C_11  and  C_12
REMARK                            x       y       z     vdW  Elec       q    Type
REMARK                         _______ _______ _______ _____ _____    ______ ____
ROOT
ATOM      1  N   UNL     1       6.819   6.765  17.936  0.00  0.00    +0.000 NA
ATOM      2  H   UNL     1       6.041   6.938  18.571  0.00  0.00    +0.000 HD
ENDROOT
BRANCH   1   4
ATOM      3  O   UNL     1       7.148   5.045  16.108  0.00  0.00    +0.000 OA
ATOM      4  S   UNL     1       6.945   5.120  17.537  0.00  0.00    +0.000 S 
ATOM      5  O   UNL     1       7.843   4.495  18.481  0.00  0.00    +0.000 OA
BRANCH   4   6
ATOM      6  C   UNL     1       5.296   4.533  17.856  0.00  0.00    +0.000 A 
ATOM      7  C   UNL     1       4.683   3.710  16.909  0.00  0.00    +0.000 A 
ATOM      8  C   UNL     1       3.395   3.231  17.147  0.00  0.00    +0.000 A 
ATOM      9  C   UNL     1       2.719   3.551  18.334  0.00  0.00    +0.000 A 
ATOM     10  C   UNL     1       1.432   3.051  18.592  0.00  0.00    +0.000 A 
ATOM     11  C   UNL     1       0.772   3.361  19.781  0.00  0.00    +0.000 A 
ATOM     12  C   UNL     1       1.386   4.178  20.725  0.00  0.00    +0.000 A 
ATOM     13  C   UNL     1       2.666   4.687  20.483  0.00  0.00    +0.000 A 
ATOM     14  C   UNL     1       3.348   4.380  19.295  0.00  0.00    +0.000 A 
ATOM     15  C   UNL     1       4.641   4.872  19.043  0.00  0.00    +0.000 A 
ENDBRANCH   4   6
ENDBRANCH   1   4
BRANCH   1  16
ATOM     16  C   UNL     1       8.083   7.436  18.259  0.00  0.00    +0.000 C 
BRANCH  16  17
ATOM     17  C   UNL     1       8.051   8.892  17.809  0.00  0.00    +0.000 C 
BRANCH  17  18
ATOM     18  C   UNL     1       8.948   9.717  18.734  0.00  0.00    +0.000 C 
BRANCH  18  19
ATOM     19  C   UNL     1       9.473  10.976  18.056  0.00  0.00    +0.000 C 
BRANCH  19  20
ATOM     20  C   UNL     1      10.585  11.612  18.892  0.00  0.00    +0.000 C 
BRANCH  20  21
ATOM     21  C   UNL     1      11.812  11.912  18.036  0.00  0.00    +0.000 C 
BRANCH  21  22
ATOM     22  C   UNL     1      11.574  13.126  17.137  0.00  0.00    +0.000 C 
BRANCH  22  23
ATOM     23  C   UNL     1      11.305  14.351  17.935  0.00  0.00    +0.000 A 
ATOM     24  C   UNL     1      12.147  15.034  18.787  0.00  0.00    +0.000 A 
ATOM     25  N   UNL     1      11.415  16.095  19.240  0.00  0.00    +0.000 N 
ATOM     26  C   UNL     1      10.179  16.017  18.667  0.00  0.00    +0.000 A 
ATOM     27  N   UNL     1      10.082  14.979  17.875  0.00  0.00    +0.000 NA
ATOM     28  H   UNL     1      11.727  16.811  19.881  0.00  0.00    +0.000 HD
ENDBRANCH  22  23
ENDBRANCH  21  22
ENDBRANCH  20  21
ENDBRANCH  19  20
ENDBRANCH  18  19
ENDBRANCH  17  18
ENDBRANCH  16  17
ENDBRANCH   1  16
TORSDOF 10
ENDMDL
MODEL 5
REMARK VINA RESULT:      -7.0      1.059      1.416
REMARK  Name = 
REMARK  10 active torsions:
REMARK  status: ('A' for Active; 'I' for Inactive)
REMARK    1  A    between atoms: S_2  and  N_4
REMARK    2  A    between atoms: S_2  and  C_17
REMARK    3  A    between atoms: N_4  and  C_5
REMARK    4  A    between atoms: C_5  and  C_6
REMARK    5  A    between atoms: C_6  and  C_7
REMARK    6  A    between atoms: C_7  and  C_8
REMARK    7  A    between atoms: C_8  and  C_9
REMARK    8  A    between atoms: C_9  and  C_10
REMARK    9  A    between atoms: C_10  and  C_11
REMARK   10  A    between atoms: C_11  and  C_12
REMARK                            x       y       z     vdW  Elec       q    Type
REMARK                         _______ _______ _______ _____ _____    ______ ____
ROOT
ATOM      1  N   UNL     1       2.532   2.876  20.031  0.00  0.00    +0.000 NA
ATOM      2  H   UNL     1       1.903   2.171  20.413  0.00  0.00    +0.000 HD
ENDROOT
BRANCH   1   4
ATOM      3  O   UNL     1       4.786   1.878  20.603  0.00  0.00    +0.000 OA
ATOM      4  S   UNL     1       3.968   2.183  19.451  0.00  0.00    +0.000 S 
ATOM      5  O   UNL     1       3.622   1.190  18.461  0.00  0.00    +0.000 OA
BRANCH   4   6
ATOM      6  C   UNL     1       4.736   3.558  18.623  0.00  0.00    +0.000 A 
ATOM      7  C   UNL     1       4.223   3.969  17.391  0.00  0.00    +0.000 A 
ATOM      8  C   UNL     1       4.806   5.051  16.732  0.00  0.00    +0.000 A 
ATOM      9  C   UNL     1       5.885   5.743  17.303  0.00  0.00    +0.000 A 
ATOM     10  C   UNL     1       6.459   6.849  16.657  0.00  0.00    +0.000 A 
ATOM     11  C   UNL     1       7.523   7.541  17.238  0.00  0.00    +0.000 A 
ATOM     12  C   UNL     1       8.029   7.132  18.467  0.00  0.00    +0.000 A 
ATOM     13  C   UNL     1       7.471   6.030  19.122  0.00  0.00    +0.000 A 
ATOM     14  C   UNL     1       6.397   5.326  18.556  0.00  0.00    +0.000 A 
ATOM     15  C   UNL     1       5.815   4.225  19.209  0.00  0.00    +0.000 A 
ENDBRANCH   4   6
ENDBRANCH   1   4
BRANCH   1  16
ATOM     16  C   UNL     1       2.694   4.101  20.822  0.00  0.00    +0.000 C 
BRANCH  16  17
ATOM     17  C   UNL     1       1.597   5.107  20.492  0.00  0.00    +0.000 C 
BRANCH  17  18
ATOM     18  C   UNL     1       1.920   5.770  19.152  0.00  0.00    +0.000 C 
BRANCH  18  19
ATOM     19  C   UNL     1       2.833   6.979  19.311  0.00  0.00    +0.000 C 
BRANCH  19  20
ATOM     20  C   UNL     1       2.926   7.757  17.998  0.00  0.00    +0.000 C 
BRANCH  20  21
ATOM     21  C   UNL     1       1.652   8.557  17.743  0.00  0.00    +0.000 C 
BRANCH  21  22
ATOM     22  C   UNL     1       1.837  10.026  18.124  0.00  0.00    +0.000 C 
BRANCH  22  23
ATOM     23  C   UNL     1       0.718  10.516  18.970  0.00  0.00    +0.000 A 
ATOM     24  C   UNL     1      -0.591  10.767  18.617  0.00  0.00    +0.000 A 
ATOM     25  N   UNL     1      -1.202  11.172  19.770  0.00  0.00    +0.000 N 
ATOM     26  C   UNL     1      -0.262  11.162  20.760  0.00  0.00    +0.000 A 
ATOM     27  N   UNL     1       0.904  10.770  20.310  0.00  0.00    +0.000 NA
ATOM     28  H   UNL     1      -2.172  11.432  19.878  0.00  0.00    +0.000 HD
ENDBRANCH  22  23
ENDBRANCH  21  22
ENDBRANCH  20  21
ENDBRANCH  19  20
ENDBRANCH  18  19
ENDBRANCH  17  18
ENDBRANCH  16  17
ENDBRANCH   1  16
TORSDOF 10
ENDMDL
MODEL 6
REMARK VINA RESULT:      -7.0      5.967      8.184
REMARK  Name = 
REMARK  10 active torsions:
REMARK  status: ('A' for Active; 'I' for Inactive)
REMARK    1  A    between atoms: S_2  and  N_4
REMARK    2  A    between atoms: S_2  and  C_17
REMARK    3  A    between atoms: N_4  and  C_5
REMARK    4  A    between atoms: C_5  and  C_6
REMARK    5  A    between atoms: C_6  and  C_7
REMARK    6  A    between atoms: C_7  and  C_8
REMARK    7  A    between atoms: C_8  and  C_9
REMARK    8  A    between atoms: C_9  and  C_10
REMARK    9  A    between atoms: C_10  and  C_11
REMARK   10  A    between atoms: C_11  and  C_12
REMARK                            x       y       z     vdW  Elec       q    Type
REMARK                         _______ _______ _______ _____ _____    ______ ____
ROOT
ATOM      1  N   UNL     1       7.583   6.848  18.269  0.00  0.00    +0.000 NA
ATOM      2  H   UNL     1       8.186   6.517  19.022  0.00  0.00    +0.000 HD
ENDROOT
BRANCH   1   4
ATOM      3  O   UNL     1       7.257   6.210  15.841  0.00  0.00    +0.000 OA
ATOM      4  S   UNL     1       7.239   5.613  17.157  0.00  0.00    +0.000 S 
ATOM      5  O   UNL     1       8.046   4.463  17.497  0.00  0.00    +0.000 OA
BRANCH   4   6
ATOM      6  C   UNL     1       5.540   5.238  17.531  0.00  0.00    +0.000 A 
ATOM      7  C   UNL     1       4.638   6.294  17.678  0.00  0.00    +0.000 A 
ATOM      8  C   UNL     1       3.301   6.020  17.961  0.00  0.00    +0.000 A 
ATOM      9  C   UNL     1       2.849   4.696  18.078  0.00  0.00    +0.000 A 
ATOM     10  C   UNL     1       1.499   4.412  18.337  0.00  0.00    +0.000 A 
ATOM     11  C   UNL     1       1.054   3.093  18.437  0.00  0.00    +0.000 A 
ATOM     12  C   UNL     1       1.955   2.043  18.287  0.00  0.00    +0.000 A 
ATOM     13  C   UNL     1       3.304   2.308  18.033  0.00  0.00    +0.000 A 
ATOM     14  C   UNL     1       3.767   3.629  17.922  0.00  0.00    +0.000 A 
ATOM     15  C   UNL     1       5.118   3.912  17.651  0.00  0.00    +0.000 A 
ENDBRANCH   4   6
ENDBRANCH   1   4
BRANCH   1  16
ATOM     16  C   UNL     1       7.927   8.148  17.684  0.00  0.00    +0.000 C 
BRANCH  16  17
ATOM     17  C   UNL     1       8.710   8.997  18.680  0.00  0.00    +0.000 C 
BRANCH  17  18
ATOM     18  C   UNL     1       8.660  10.459  18.231  0.00  0.00    +0.000 C 
BRANCH  18  19
ATOM     19  C   UNL     1      10.043  11.013  17.914  0.00  0.00    +0.000 C 
BRANCH  19  20
ATOM     20  C   UNL     1      10.569  11.845  19.084  0.00  0.00    +0.000 C 
BRANCH  20  21
ATOM     21  C   UNL     1      10.155  13.308  18.948  0.00  0.00    +0.000 C 
BRANCH  21  22
ATOM     22  C   UNL     1      10.342  13.803  17.513  0.00  0.00    +0.000 C 
BRANCH  22  23
ATOM     23  C   UNL     1      10.349  15.288  17.444  0.00  0.00    +0.000 A 
ATOM     24  C   UNL     1      11.219  16.120  16.773  0.00  0.00    +0.000 A 
ATOM     25  N   UNL     1      10.766  17.385  17.018  0.00  0.00    +0.000 N 
ATOM     26  C   UNL     1       9.667  17.280  17.821  0.00  0.00    +0.000 A 
ATOM     27  N   UNL     1       9.390  16.029  18.094  0.00  0.00    +0.000 NA
ATOM     28  H   UNL     1      11.166  18.246  16.672  0.00  0.00    +0.000 HD
ENDBRANCH  22  23
ENDBRANCH  21  22
ENDBRANCH  20  21
ENDBRANCH  19  20
ENDBRANCH  18  19
ENDBRANCH  17  18
ENDBRANCH  16  17
ENDBRANCH   1  16
TORSDOF 10
ENDMDL
MODEL 7
REMARK VINA RESULT:      -7.0      5.113      7.262
REMARK  Name = 
REMARK  10 active torsions:
REMARK  status: ('A' for Active; 'I' for Inactive)
REMARK    1  A    between atoms: S_2  and  N_4
REMARK    2  A    between atoms: S_2  and  C_17
REMARK    3  A    between atoms: N_4  and  C_5
REMARK    4  A    between atoms: C_5  and  C_6
REMARK    5  A    between atoms: C_6  and  C_7
REMARK    6  A    between atoms: C_7  and  C_8
REMARK    7  A    between atoms: C_8  and  C_9
REMARK    8  A    between atoms: C_9  and  C_10
REMARK    9  A    between atoms: C_10  and  C_11
REMARK   10  A    between atoms: C_11  and  C_12
REMARK                            x       y       z     vdW  Elec       q    Type
REMARK                         _______ _______ _______ _____ _____    ______ ____
ROOT
ATOM      1  N   UNL     1       7.119   7.458  16.999  0.00  0.00    +0.000 NA
ATOM      2  H   UNL     1       6.181   7.858  17.011  0.00  0.00    +0.000 HD
ENDROOT
BRANCH   1   4
ATOM      3  O   UNL     1       7.152   5.590  15.291  0.00  0.00    +0.000 OA
ATOM      4  S   UNL     1       7.080   5.784  16.721  0.00  0.00    +0.000 S 
ATOM      5  O   UNL     1       8.005   5.155  17.636  0.00  0.00    +0.000 OA
BRANCH   4   6
ATOM      6  C   UNL     1       5.424   5.363  17.217  0.00  0.00    +0.000 A 
ATOM      7  C   UNL     1       4.496   6.392  17.396  0.00  0.00    +0.000 A 
ATOM      8  C   UNL     1       3.191   6.081  17.774  0.00  0.00    +0.000 A 
ATOM      9  C   UNL     1       2.796   4.746  17.957  0.00  0.00    +0.000 A 
ATOM     10  C   UNL     1       1.476   4.424  18.312  0.00  0.00    +0.000 A 
ATOM     11  C   UNL     1       1.086   3.095  18.477  0.00  0.00    +0.000 A 
ATOM     12  C   UNL     1       2.012   2.072  18.295  0.00  0.00    +0.000 A 
ATOM     13  C   UNL     1       3.331   2.375  17.944  0.00  0.00    +0.000 A 
ATOM     14  C   UNL     1       3.738   3.707  17.768  0.00  0.00    +0.000 A 
ATOM     15  C   UNL     1       5.057   4.028  17.400  0.00  0.00    +0.000 A 
ENDBRANCH   4   6
ENDBRANCH   1   4
BRANCH   1  16
ATOM     16  C   UNL     1       8.028   7.902  18.061  0.00  0.00    +0.000 C 
BRANCH  16  17
ATOM     17  C   UNL     1       8.277   9.403  17.966  0.00  0.00    +0.000 C 
BRANCH  17  18
ATOM     18  C   UNL     1       9.174   9.832  19.128  0.00  0.00    +0.000 C 
BRANCH  18  19
ATOM     19  C   UNL     1       9.984  11.081  18.803  0.00  0.00    +0.000 C 
BRANCH  19  20
ATOM     20  C   UNL     1       9.098  12.326  18.860  0.00  0.00    +0.000 C 
BRANCH  20  21
ATOM     21  C   UNL     1       9.769  13.441  19.657  0.00  0.00    +0.000 C 
BRANCH  21  22
ATOM     22  C   UNL     1      10.053  12.998  21.093  0.00  0.00    +0.000 C 
BRANCH  22  23
ATOM     23  C   UNL     1       8.800  12.861  21.880  0.00  0.00    +0.000 A 
ATOM     24  C   UNL     1       7.851  13.817  22.173  0.00  0.00    +0.000 A 
ATOM     25  N   UNL     1       6.896  13.164  22.899  0.00  0.00    +0.000 N 
ATOM     26  C   UNL     1       7.293  11.864  23.027  0.00  0.00    +0.000 A 
ATOM     27  N   UNL     1       8.435  11.650  22.422  0.00  0.00    +0.000 NA
ATOM     28  H   UNL     1       6.048  13.564  23.276  0.00  0.00    +0.000 HD
ENDBRANCH  22  23
ENDBRANCH  21  22
ENDBRANCH  20  21
ENDBRANCH  19  20
ENDBRANCH  18  19
ENDBRANCH  17  18
ENDBRANCH  16  17
ENDBRANCH   1  16
TORSDOF 10
ENDMDL
MODEL 8
REMARK VINA RESULT:      -6.9      4.512      6.764
REMARK  Name = 
REMARK  10 active torsions:
REMARK  status: ('A' for Active; 'I' for Inactive)
REMARK    1  A    between atoms: S_2  and  N_4
REMARK    2  A    between atoms: S_2  and  C_17
REMARK    3  A    between atoms: N_4  and  C_5
REMARK    4  A    between atoms: C_5  and  C_6
REMARK    5  A    between atoms: C_6  and  C_7
REMARK    6  A    between atoms: C_7  and  C_8
REMARK    7  A    between atoms: C_8  and  C_9
REMARK    8  A    between atoms: C_9  and  C_10
REMARK    9  A    between atoms: C_10  and  C_11
REMARK   10  A    between atoms: C_11  and  C_12
REMARK                            x       y       z     vdW  Elec       q    Type
REMARK                         _______ _______ _______ _____ _____    ______ ____
ROOT
ATOM      1  N   UNL     1       7.457   5.318  17.130  0.00  0.00    +0.000 NA
ATOM      2  H   UNL     1       8.260   5.566  16.553  0.00  0.00    +0.000 HD
ENDROOT
BRANCH   1   4
ATOM      3  O   UNL     1       5.845   6.267  15.423  0.00  0.00    +0.000 OA
ATOM      4  S   UNL     1       6.068   5.061  16.188  0.00  0.00    +0.000 S 
ATOM      5  O   UNL     1       6.179   3.761  15.569  0.00  0.00    +0.000 OA
BRANCH   4   6
ATOM      6  C   UNL     1       4.789   4.989  17.424  0.00  0.00    +0.000 A 
ATOM      7  C   UNL     1       3.868   6.036  17.495  0.00  0.00    +0.000 A 
ATOM      8  C   UNL     1       2.852   5.991  18.450  0.00  0.00    +0.000 A 
ATOM      9  C   UNL     1       2.736   4.898  19.323  0.00  0.00    +0.000 A 
ATOM     10  C   UNL     1       1.700   4.835  20.269  0.00  0.00    +0.000 A 
ATOM     11  C   UNL     1       1.581   3.738  21.123  0.00  0.00    +0.000 A 
ATOM     12  C   UNL     1       2.499   2.695  21.047  0.00  0.00    +0.000 A 
ATOM     13  C   UNL     1       3.538   2.744  20.113  0.00  0.00    +0.000 A 
ATOM     14  C   UNL     1       3.669   3.836  19.241  0.00  0.00    +0.000 A 
ATOM     15  C   UNL     1       4.700   3.894  18.286  0.00  0.00    +0.000 A 
ENDBRANCH   4   6
ENDBRANCH   1   4
BRANCH   1  16
ATOM     16  C   UNL     1       7.258   6.116  18.345  0.00  0.00    +0.000 C 
BRANCH  16  17
ATOM     17  C   UNL     1       8.243   7.278  18.395  0.00  0.00    +0.000 C 
BRANCH  17  18
ATOM     18  C   UNL     1       7.612   8.492  17.710  0.00  0.00    +0.000 C 
BRANCH  18  19
ATOM     19  C   UNL     1       8.517   9.717  17.758  0.00  0.00    +0.000 C 
BRANCH  19  20
ATOM     20  C   UNL     1       9.009   9.965  19.185  0.00  0.00    +0.000 C 
BRANCH  20  21
ATOM     21  C   UNL     1       9.959  11.159  19.237  0.00  0.00    +0.000 C 
BRANCH  21  22
ATOM     22  C   UNL     1      10.288  11.539  20.681  0.00  0.00    +0.000 C 
BRANCH  22  23
ATOM     23  C   UNL     1       9.152  12.243  21.332  0.00  0.00    +0.000 A 
ATOM     24  C   UNL     1       8.616  13.478  21.041  0.00  0.00    +0.000 A 
ATOM     25  N   UNL     1       7.579  13.635  21.916  0.00  0.00    +0.000 N 
ATOM     26  C   UNL     1       7.528  12.517  22.698  0.00  0.00    +0.000 A 
ATOM     27  N   UNL     1       8.461  11.659  22.370  0.00  0.00    +0.000 NA
ATOM     28  H   UNL     1       6.959  14.430  21.979  0.00  0.00    +0.000 HD
ENDBRANCH  22  23
ENDBRANCH  21  22
ENDBRANCH  20  21
ENDBRANCH  19  20
ENDBRANCH  18  19
ENDBRANCH  17  18
ENDBRANCH  16  17
ENDBRANCH   1  16
TORSDOF 10
ENDMDL
MODEL 9
REMARK VINA RESULT:      -6.8      5.451      7.687
REMARK  Name = 
REMARK  10 active torsions:
REMARK  status: ('A' for Active; 'I' for Inactive)
REMARK    1  A    between atoms: S_2  and  N_4
REMARK    2  A    between atoms: S_2  and  C_17
REMARK    3  A    between atoms: N_4  and  C_5
REMARK    4  A    between atoms: C_5  and  C_6
REMARK    5  A    between atoms: C_6  and  C_7
REMARK    6  A    between atoms: C_7  and  C_8
REMARK    7  A    between atoms: C_8  and  C_9
REMARK    8  A    between atoms: C_9  and  C_10
REMARK    9  A    between atoms: C_10  and  C_11
REMARK   10  A    between atoms: C_11  and  C_12
REMARK                            x       y       z     vdW  Elec       q    Type
REMARK                         _______ _______ _______ _____ _____    ______ ____
ROOT
ATOM      1  N   UNL     1       7.492   5.015  17.057  0.00  0.00    +0.000 NA
ATOM      2  H   UNL     1       8.330   4.984  16.478  0.00  0.00    +0.000 HD
ENDROOT
BRANCH   1   4
ATOM      3  O   UNL     1       5.944   6.135  15.396  0.00  0.00    +0.000 OA
ATOM      4  S   UNL     1       6.081   4.893  16.122  0.00  0.00    +0.000 S 
ATOM      5  O   UNL     1       6.089   3.607  15.463  0.00  0.00    +0.000 OA
BRANCH   4   6
ATOM      6  C   UNL     1       4.810   4.879  17.367  0.00  0.00    +0.000 A 
ATOM      7  C   UNL     1       3.875   5.917  17.381  0.00  0.00    +0.000 A 
ATOM      8  C   UNL     1       2.866   5.917  18.343  0.00  0.00    +0.000 A 
ATOM      9  C   UNL     1       2.767   4.877  19.280  0.00  0.00    +0.000 A 
ATOM     10  C   UNL     1       1.737   4.858  20.234  0.00  0.00    +0.000 A 
ATOM     11  C   UNL     1       1.637   3.813  21.154  0.00  0.00    +0.000 A 
ATOM     12  C   UNL     1       2.567   2.779  21.135  0.00  0.00    +0.000 A 
ATOM     13  C   UNL     1       3.601   2.784  20.194  0.00  0.00    +0.000 A 
ATOM     14  C   UNL     1       3.713   3.824  19.257  0.00  0.00    +0.000 A 
ATOM     15  C   UNL     1       4.738   3.836  18.294  0.00  0.00    +0.000 A 
ENDBRANCH   4   6
ENDBRANCH   1   4
BRANCH   1  16
ATOM     16  C   UNL     1       7.467   6.037  18.110  0.00  0.00    +0.000 C 
BRANCH  16  17
ATOM     17  C   UNL     1       7.570   7.434  17.507  0.00  0.00    +0.000 C 
BRANCH  17  18
ATOM     18  C   UNL     1       8.401   8.316  18.441  0.00  0.00    +0.000 C 
BRANCH  18  19
ATOM     19  C   UNL     1       8.238   9.799  18.131  0.00  0.00    +0.000 C 
BRANCH  19  20
ATOM     20  C   UNL     1       9.554  10.543  18.360  0.00  0.00    +0.000 C 
BRANCH  20  21
ATOM     21  C   UNL     1       9.348  12.054  18.301  0.00  0.00    +0.000 C 
BRANCH  21  22
ATOM     22  C   UNL     1      10.437  12.727  17.466  0.00  0.00    +0.000 C 
BRANCH  22  23
ATOM     23  C   UNL     1      10.882  14.007  18.078  0.00  0.00    +0.000 A 
ATOM     24  C   UNL     1      10.648  15.298  17.655  0.00  0.00    +0.000 A 
ATOM     25  N   UNL     1      11.254  16.094  18.584  0.00  0.00    +0.000 N 
ATOM     26  C   UNL     1      11.830  15.278  19.514  0.00  0.00    +0.000 A 
ATOM     27  N   UNL     1      11.622  14.015  19.237  0.00  0.00    +0.000 NA
ATOM     28  H   UNL     1      11.275  17.105  18.589  0.00  0.00    +0.000 HD
ENDBRANCH  22  23
ENDBRANCH  21  22
ENDBRANCH  20  21
ENDBRANCH  19  20
ENDBRANCH  18  19
ENDBRANCH  17  18
ENDBRANCH  16  17
ENDBRANCH   1  16
TORSDOF 10
ENDMDL
