MODEL 1
REMARK VINA RESULT:      -6.9      0.000      0.000
REMARK  Name = 
REMARK  5 active torsions:
REMARK  status: ('A' for Active; 'I' for Inactive)
REMARK    1  A    between atoms: C_1  and  N_2
REMARK    2  A    between atoms: N_2  and  C_3
REMARK    3  A    between atoms: C_8  and  C_9
REMARK    4  A    between atoms: N_13  and  C_14
REMARK    5  A    between atoms: N_13  and  C_15
REMARK                            x       y       z     vdW  Elec       q    Type
REMARK                         _______ _______ _______ _____ _____    ______ ____
ROOT
ATOM      1  C   UNL     1       5.165   5.163  16.727  0.00  0.00    +0.000 A 
ATOM      2  C   UNL     1       4.860   4.359  15.695  0.00  0.00    +0.000 A 
ATOM      3  N   UNL     1       5.575   4.223  14.531  0.00  0.00    +0.000 NA
ATOM      4  C   UNL     1       6.651   4.932  14.366  0.00  0.00    +0.000 A 
ATOM      5  N   UNL     1       7.401   4.856  13.206  0.00  0.00    +0.000 N 
ATOM      6  C   UNL     1       7.005   3.944  12.131  0.00  0.00    +0.000 C 
ATOM      7  C   UNL     1       8.550   5.681  12.863  0.00  0.00    +0.000 C 
ATOM      8  N   UNL     1       7.063   5.776  15.366  0.00  0.00    +0.000 N 
ATOM      9  C   UNL     1       6.428   5.919  16.565  0.00  0.00    +0.000 A 
ATOM     10  O   UNL     1       6.907   6.637  17.436  0.00  0.00    +0.000 OA
ATOM     11  H   UNL     1       7.920   6.290  15.291  0.00  0.00    +0.000 HD
ENDROOT
BRANCH   1  19
ATOM     12  C   UNL     1       2.254   3.201  21.645  0.00  0.00    +0.000 C 
ATOM     13  N   UNL     1       3.118   3.096  20.489  0.00  0.00    +0.000 N 
ATOM     14  C   UNL     1       4.183   2.115  20.465  0.00  0.00    +0.000 C 
ATOM     15  C   UNL     1       3.299   4.236  19.725  0.00  0.00    +0.000 A 
ATOM     16  N   UNL     1       2.597   5.338  20.032  0.00  0.00    +0.000 NA
ATOM     17  C   UNL     1       2.771   6.424  19.264  0.00  0.00    +0.000 A 
ATOM     18  C   UNL     1       3.606   6.456  18.179  0.00  0.00    +0.000 A 
ATOM     19  C   UNL     1       4.290   5.291  17.909  0.00  0.00    +0.000 A 
ATOM     20  N   UNL     1       4.147   4.189  18.682  0.00  0.00    +0.000 NA
ENDBRANCH   1  19
TORSDOF 1
ENDMDL
MODEL 2
REMARK VINA RESULT:      -6.8      3.094      7.256
REMARK  Name = 
REMARK  5 active torsions:
REMARK  status: ('A' for Active; 'I' for Inactive)
REMARK    1  A    between atoms: C_1  and  N_2
REMARK    2  A    between atoms: N_2  and  C_3
REMARK    3  A    between atoms: C_8  and  C_9
REMARK    4  A    between atoms: N_13  and  C_14
REMARK    5  A    between atoms: N_13  and  C_15
REMARK                            x       y       z     vdW  Elec       q    Type
REMARK                         _______ _______ _______ _____ _____    ______ ____
ROOT
ATOM      1  C   UNL     1       2.380   7.031  18.988  0.00  0.00    +0.000 A 
ATOM      2  C   UNL     1       1.966   6.840  20.252  0.00  0.00    +0.000 A 
ATOM      3  N   UNL     1       1.338   7.763  21.050  0.00  0.00    +0.000 NA
ATOM      4  C   UNL     1       1.113   8.953  20.580  0.00  0.00    +0.000 A 
ATOM      5  N   UNL     1       0.504   9.933  21.345  0.00  0.00    +0.000 N 
ATOM      6  C   UNL     1       0.074   9.639  22.713  0.00  0.00    +0.000 C 
ATOM      7  C   UNL     1       0.308  11.325  20.969  0.00  0.00    +0.000 C 
ATOM      8  N   UNL     1       1.481   9.251  19.293  0.00  0.00    +0.000 N 
ATOM      9  C   UNL     1       2.060   8.366  18.432  0.00  0.00    +0.000 A 
ATOM     10  O   UNL     1       2.286   8.690  17.271  0.00  0.00    +0.000 OA
ATOM     11  H   UNL     1       1.266  10.140  18.884  0.00  0.00    +0.000 HD
ENDROOT
BRANCH   1  19
ATOM     12  C   UNL     1       7.023   4.762  15.857  0.00  0.00    +0.000 C 
ATOM     13  N   UNL     1       6.296   5.764  16.607  0.00  0.00    +0.000 N 
ATOM     14  C   UNL     1       7.016   6.775  17.353  0.00  0.00    +0.000 C 
ATOM     15  C   UNL     1       5.035   5.424  17.067  0.00  0.00    +0.000 A 
ATOM     16  N   UNL     1       4.518   4.237  16.714  0.00  0.00    +0.000 NA
ATOM     17  C   UNL     1       3.285   3.938  17.153  0.00  0.00    +0.000 A 
ATOM     18  C   UNL     1       2.529   4.786  17.916  0.00  0.00    +0.000 A 
ATOM     19  C   UNL     1       3.112   5.993  18.235  0.00  0.00    +0.000 A 
ATOM     20  N   UNL     1       4.361   6.309  17.822  0.00  0.00    +0.000 NA
ENDBRANCH   1  19
TORSDOF 1
ENDMDL
MODEL 3
REMARK VINA RESULT:      -6.7      3.021      7.242
REMARK  Name = 
REMARK  5 active torsions:
REMARK  status: ('A' for Active; 'I' for Inactive)
REMARK    1  A    between atoms: C_1  and  N_2
REMARK    2  A    between atoms: N_2  and  C_3
REMARK    3  A    between atoms: C_8  and  C_9
REMARK    4  A    between atoms: N_13  and  C_14
REMARK    5  A    between atoms: N_13  and  C_15
REMARK                            x       y       z     vdW  Elec       q    Type
REMARK                         _______ _______ _______ _____ _____    ______ ____
ROOT
ATOM      1  C   UNL     1       2.535   6.659  19.080  0.00  0.00    +0.000 A 
ATOM      2  C   UNL     1       2.291   7.914  18.667  0.00  0.00    +0.000 A 
ATOM      3  N   UNL     1       1.626   8.887  19.371  0.00  0.00    +0.000 NA
ATOM      4  C   UNL     1       1.160   8.604  20.550  0.00  0.00    +0.000 A 
ATOM      5  N   UNL     1       0.461   9.535  21.299  0.00  0.00    +0.000 N 
ATOM      6  C   UNL     1       0.247  10.887  20.779  0.00  0.00    +0.000 C 
ATOM      7  C   UNL     1      -0.203   9.299  22.572  0.00  0.00    +0.000 C 
ATOM      8  N   UNL     1       1.367   7.354  21.075  0.00  0.00    +0.000 N 
ATOM      9  C   UNL     1       2.063   6.360  20.452  0.00  0.00    +0.000 A 
ATOM     10  O   UNL     1       2.271   5.296  21.025  0.00  0.00    +0.000 OA
ATOM     11  H   UNL     1       1.072   7.126  22.005  0.00  0.00    +0.000 HD
ENDROOT
BRANCH   1  19
ATOM     12  C   UNL     1       6.935   4.531  15.526  0.00  0.00    +0.000 C 
ATOM     13  N   UNL     1       6.275   5.493  16.384  0.00  0.00    +0.000 N 
ATOM     14  C   UNL     1       7.058   6.440  17.149  0.00  0.00    +0.000 C 
ATOM     15  C   UNL     1       5.037   5.142  16.897  0.00  0.00    +0.000 A 
ATOM     16  N   UNL     1       4.476   3.990  16.500  0.00  0.00    +0.000 NA
ATOM     17  C   UNL     1       3.267   3.682  16.993  0.00  0.00    +0.000 A 
ATOM     18  C   UNL     1       2.575   4.489  17.855  0.00  0.00    +0.000 A 
ATOM     19  C   UNL     1       3.200   5.663  18.217  0.00  0.00    +0.000 A 
ATOM     20  N   UNL     1       4.428   5.985  17.749  0.00  0.00    +0.000 NA
ENDBRANCH   1  19
TORSDOF 1
ENDMDL
MODEL 4
REMARK VINA RESULT:      -6.6      3.546      7.114
REMARK  Name = 
REMARK  5 active torsions:
REMARK  status: ('A' for Active; 'I' for Inactive)
REMARK    1  A    between atoms: C_1  and  N_2
REMARK    2  A    between atoms: N_2  and  C_3
REMARK    3  A    between atoms: C_8  and  C_9
REMARK    4  A    between atoms: N_13  and  C_14
REMARK    5  A    between atoms: N_13  and  C_15
REMARK                            x       y       z     vdW  Elec       q    Type
REMARK                         _______ _______ _______ _____ _____    ______ ____
ROOT
ATOM      1  C   UNL     1       2.423   7.611  18.536  0.00  0.00    +0.000 A 
ATOM      2  C   UNL     1       2.259   8.697  17.763  0.00  0.00    +0.000 A 
ATOM      3  N   UNL     1       1.575   9.839  18.098  0.00  0.00    +0.000 NA
ATOM      4  C   UNL     1       1.007   9.913  19.265  0.00  0.00    +0.000 A 
ATOM      5  N   UNL     1       0.285  11.028  19.653  0.00  0.00    +0.000 N 
ATOM      6  C   UNL     1       0.163  12.176  18.752  0.00  0.00    +0.000 C 
ATOM      7  C   UNL     1      -0.486  11.176  20.877  0.00  0.00    +0.000 C 
ATOM      8  N   UNL     1       1.126   8.864  20.141  0.00  0.00    +0.000 N 
ATOM      9  C   UNL     1       1.833   7.725  19.890  0.00  0.00    +0.000 A 
ATOM     10  O   UNL     1       1.956   6.869  20.758  0.00  0.00    +0.000 OA
ATOM     11  H   UNL     1       0.750   8.917  21.068  0.00  0.00    +0.000 HD
ENDROOT
BRANCH   1  19
ATOM     12  C   UNL     1       7.059   4.478  16.256  0.00  0.00    +0.000 C 
ATOM     13  N   UNL     1       6.368   5.652  16.742  0.00  0.00    +0.000 N 
ATOM     14  C   UNL     1       7.116   6.743  17.330  0.00  0.00    +0.000 C 
ATOM     15  C   UNL     1       5.059   5.491  17.164  0.00  0.00    +0.000 A 
ATOM     16  N   UNL     1       4.474   4.292  17.010  0.00  0.00    +0.000 NA
ATOM     17  C   UNL     1       3.198   4.165  17.405  0.00  0.00    +0.000 A 
ATOM     18  C   UNL     1       2.464   5.194  17.932  0.00  0.00    +0.000 A 
ATOM     19  C   UNL     1       3.118   6.401  18.054  0.00  0.00    +0.000 A 
ATOM     20  N   UNL     1       4.411   6.549  17.682  0.00  0.00    +0.000 NA
ENDBRANCH   1  19
TORSDOF 1
ENDMDL
MODEL 5
REMARK VINA RESULT:      -6.5      1.072      2.417
REMARK  Name = 
REMARK  5 active torsions:
REMARK  status: ('A' for Active; 'I' for Inactive)
REMARK    1  A    between atoms: C_1  and  N_2
REMARK    2  A    between atoms: N_2  and  C_3
REMARK    3  A    between atoms: C_8  and  C_9
REMARK    4  A    between atoms: N_13  and  C_14
REMARK    5  A    between atoms: N_13  and  C_15
REMARK                            x       y       z     vdW  Elec       q    Type
REMARK                         _______ _______ _______ _____ _____    ______ ____
ROOT
ATOM      1  C   UNL     1       5.262   4.964  16.743  0.00  0.00    +0.000 A 
ATOM      2  C   UNL     1       4.979   4.187  15.683  0.00  0.00    +0.000 A 
ATOM      3  N   UNL     1       5.684   4.126  14.507  0.00  0.00    +0.000 NA
ATOM      4  C   UNL     1       6.729   4.885  14.359  0.00  0.00    +0.000 A 
ATOM      5  N   UNL     1       7.467   4.885  13.188  0.00  0.00    +0.000 N 
ATOM      6  C   UNL     1       7.096   4.000  12.083  0.00  0.00    +0.000 C 
ATOM      7  C   UNL     1       8.577   5.769  12.866  0.00  0.00    +0.000 C 
ATOM      8  N   UNL     1       7.117   5.706  15.386  0.00  0.00    +0.000 N 
ATOM      9  C   UNL     1       6.492   5.777  16.596  0.00  0.00    +0.000 A 
ATOM     10  O   UNL     1       6.951   6.480  17.490  0.00  0.00    +0.000 OA
ATOM     11  H   UNL     1       7.951   6.258  15.323  0.00  0.00    +0.000 HD
ENDROOT
BRANCH   1  19
ATOM     12  C   UNL     1       1.504   7.541  20.709  0.00  0.00    +0.000 C 
ATOM     13  N   UNL     1       2.346   7.476  19.534  0.00  0.00    +0.000 N 
ATOM     14  C   UNL     1       2.070   8.326  18.395  0.00  0.00    +0.000 C 
ATOM     15  C   UNL     1       2.993   6.279  19.281  0.00  0.00    +0.000 A 
ATOM     16  N   UNL     1       2.887   5.285  20.177  0.00  0.00    +0.000 NA
ATOM     17  C   UNL     1       3.541   4.142  19.922  0.00  0.00    +0.000 A 
ATOM     18  C   UNL     1       4.320   3.948  18.814  0.00  0.00    +0.000 A 
ATOM     19  C   UNL     1       4.398   5.009  17.938  0.00  0.00    +0.000 A 
ATOM     20  N   UNL     1       3.731   6.165  18.163  0.00  0.00    +0.000 NA
ENDBRANCH   1  19
TORSDOF 1
ENDMDL
MODEL 6
REMARK VINA RESULT:      -6.5      3.461      7.071
REMARK  Name = 
REMARK  5 active torsions:
REMARK  status: ('A' for Active; 'I' for Inactive)
REMARK    1  A    between atoms: C_1  and  N_2
REMARK    2  A    between atoms: N_2  and  C_3
REMARK    3  A    between atoms: C_8  and  C_9
REMARK    4  A    between atoms: N_13  and  C_14
REMARK    5  A    between atoms: N_13  and  C_15
REMARK                            x       y       z     vdW  Elec       q    Type
REMARK                         _______ _______ _______ _____ _____    ______ ____
ROOT
ATOM      1  C   UNL     1       2.139   7.508  19.178  0.00  0.00    +0.000 A 
ATOM      2  C   UNL     1       1.701   7.460  20.447  0.00  0.00    +0.000 A 
ATOM      3  N   UNL     1       1.041   8.458  21.118  0.00  0.00    +0.000 NA
ATOM      4  C   UNL     1       0.807   9.580  20.507  0.00  0.00    +0.000 A 
ATOM      5  N   UNL     1       0.166  10.632  21.138  0.00  0.00    +0.000 N 
ATOM      6  C   UNL     1      -0.289  10.493  22.522  0.00  0.00    +0.000 C 
ATOM      7  C   UNL     1      -0.045  11.967  20.597  0.00  0.00    +0.000 C 
ATOM      8  N   UNL     1       1.198   9.732  19.201  0.00  0.00    +0.000 N 
ATOM      9  C   UNL     1       1.811   8.763  18.462  0.00  0.00    +0.000 A 
ATOM     10  O   UNL     1       2.056   8.952  17.276  0.00  0.00    +0.000 OA
ATOM     11  H   UNL     1       0.978  10.563  18.686  0.00  0.00    +0.000 HD
ENDROOT
BRANCH   1  19
ATOM     12  C   UNL     1       3.462   1.729  18.010  0.00  0.00    +0.000 C 
ATOM     13  N   UNL     1       2.715   2.825  18.592  0.00  0.00    +0.000 N 
ATOM     14  C   UNL     1       1.309   2.665  18.894  0.00  0.00    +0.000 C 
ATOM     15  C   UNL     1       3.157   4.109  18.322  0.00  0.00    +0.000 A 
ATOM     16  N   UNL     1       4.295   4.268  17.628  0.00  0.00    +0.000 NA
ATOM     17  C   UNL     1       4.716   5.521  17.399  0.00  0.00    +0.000 A 
ATOM     18  C   UNL     1       4.059   6.634  17.852  0.00  0.00    +0.000 A 
ATOM     19  C   UNL     1       2.904   6.403  18.567  0.00  0.00    +0.000 A 
ATOM     20  N   UNL     1       2.448   5.149  18.794  0.00  0.00    +0.000 NA
ENDBRANCH   1  19
TORSDOF 1
ENDMDL
MODEL 7
REMARK VINA RESULT:      -6.4      3.686      6.814
REMARK  Name = 
REMARK  5 active torsions:
REMARK  status: ('A' for Active; 'I' for Inactive)
REMARK    1  A    between atoms: C_1  and  N_2
REMARK    2  A    between atoms: N_2  and  C_3
REMARK    3  A    between atoms: C_8  and  C_9
REMARK    4  A    between atoms: N_13  and  C_14
REMARK    5  A    between atoms: N_13  and  C_15
REMARK                            x       y       z     vdW  Elec       q    Type
REMARK                         _______ _______ _______ _____ _____    ______ ____
ROOT
ATOM      1  C   UNL     1       2.348   7.791  18.556  0.00  0.00    +0.000 A 
ATOM      2  C   UNL     1       2.173   8.870  17.774  0.00  0.00    +0.000 A 
ATOM      3  N   UNL     1       1.481  10.009  18.103  0.00  0.00    +0.000 NA
ATOM      4  C   UNL     1       0.916  10.088  19.270  0.00  0.00    +0.000 A 
ATOM      5  N   UNL     1       0.186  11.201  19.651  0.00  0.00    +0.000 N 
ATOM      6  C   UNL     1       0.052  12.340  18.741  0.00  0.00    +0.000 C 
ATOM      7  C   UNL     1      -0.583  11.353  20.877  0.00  0.00    +0.000 C 
ATOM      8  N   UNL     1       1.046   9.048  20.154  0.00  0.00    +0.000 N 
ATOM      9  C   UNL     1       1.761   7.913  19.910  0.00  0.00    +0.000 A 
ATOM     10  O   UNL     1       1.893   7.064  20.786  0.00  0.00    +0.000 OA
ATOM     11  H   UNL     1       0.672   9.106  21.082  0.00  0.00    +0.000 HD
ENDROOT
BRANCH   1  19
ATOM     12  C   UNL     1       3.284   1.850  17.985  0.00  0.00    +0.000 C 
ATOM     13  N   UNL     1       2.601   3.045  18.432  0.00  0.00    +0.000 N 
ATOM     14  C   UNL     1       1.176   3.012  18.689  0.00  0.00    +0.000 C 
ATOM     15  C   UNL     1       3.144   4.264  18.062  0.00  0.00    +0.000 A 
ATOM     16  N   UNL     1       4.313   4.276  17.403  0.00  0.00    +0.000 NA
ATOM     17  C   UNL     1       4.832   5.470  17.076  0.00  0.00    +0.000 A 
ATOM     18  C   UNL     1       4.243   6.663  17.397  0.00  0.00    +0.000 A 
ATOM     19  C   UNL     1       3.051   6.583  18.082  0.00  0.00    +0.000 A 
ATOM     20  N   UNL     1       2.497   5.391  18.406  0.00  0.00    +0.000 NA
ENDBRANCH   1  19
TORSDOF 1
ENDMDL
MODEL 8
REMARK VINA RESULT:      -6.4      1.659      6.687
REMARK  Name = 
REMARK  5 active torsions:
REMARK  status: ('A' for Active; 'I' for Inactive)
REMARK    1  A    between atoms: C_1  and  N_2
REMARK    2  A    between atoms: N_2  and  C_3
REMARK    3  A    between atoms: C_8  and  C_9
REMARK    4  A    between atoms: N_13  and  C_14
REMARK    5  A    between atoms: N_13  and  C_15
REMARK                            x       y       z     vdW  Elec       q    Type
REMARK                         _______ _______ _______ _____ _____    ______ ____
ROOT
ATOM      1  C   UNL     1       4.708   4.270  17.373  0.00  0.00    +0.000 A 
ATOM      2  C   UNL     1       3.419   4.012  17.090  0.00  0.00    +0.000 A 
ATOM      3  N   UNL     1       2.460   3.591  17.976  0.00  0.00    +0.000 NA
ATOM      4  C   UNL     1       2.790   3.400  19.218  0.00  0.00    +0.000 A 
ATOM      5  N   UNL     1       1.873   2.954  20.154  0.00  0.00    +0.000 N 
ATOM      6  C   UNL     1       0.484   2.706  19.764  0.00  0.00    +0.000 C 
ATOM      7  C   UNL     1       2.153   2.595  21.536  0.00  0.00    +0.000 C 
ATOM      8  N   UNL     1       4.078   3.648  19.620  0.00  0.00    +0.000 N 
ATOM      9  C   UNL     1       5.064   4.117  18.803  0.00  0.00    +0.000 A 
ATOM     10  O   UNL     1       6.169   4.389  19.260  0.00  0.00    +0.000 OA
ATOM     11  H   UNL     1       4.346   3.567  20.582  0.00  0.00    +0.000 HD
ENDROOT
BRANCH   1  19
ATOM     12  C   UNL     1       7.232   4.098  11.887  0.00  0.00    +0.000 C 
ATOM     13  N   UNL     1       6.279   3.744  12.917  0.00  0.00    +0.000 N 
ATOM     14  C   UNL     1       4.948   3.305  12.553  0.00  0.00    +0.000 C 
ATOM     15  C   UNL     1       6.423   4.350  14.153  0.00  0.00    +0.000 A 
ATOM     16  N   UNL     1       7.482   5.148  14.361  0.00  0.00    +0.000 NA
ATOM     17  C   UNL     1       7.614   5.707  15.574  0.00  0.00    +0.000 A 
ATOM     18  C   UNL     1       6.741   5.488  16.605  0.00  0.00    +0.000 A 
ATOM     19  C   UNL     1       5.681   4.651  16.332  0.00  0.00    +0.000 A 
ATOM     20  N   UNL     1       5.515   4.092  15.110  0.00  0.00    +0.000 NA
ENDBRANCH   1  19
TORSDOF 1
ENDMDL
MODEL 9
REMARK VINA RESULT:      -6.2      3.666      7.245
REMARK  Name = 
REMARK  5 active torsions:
REMARK  status: ('A' for Active; 'I' for Inactive)
REMARK    1  A    between atoms: C_1  and  N_2
REMARK    2  A    between atoms: N_2  and  C_3
REMARK    3  A    between atoms: C_8  and  C_9
REMARK    4  A    between atoms: N_13  and  C_14
REMARK    5  A    between atoms: N_13  and  C_15
REMARK                            x       y       z     vdW  Elec       q    Type
REMARK                         _______ _______ _______ _____ _____    ______ ____
ROOT
ATOM      1  C   UNL     1       1.943   7.978  19.424  0.00  0.00    +0.000 A 
ATOM      2  C   UNL     1       1.452   8.077  20.671  0.00  0.00    +0.000 A 
ATOM      3  N   UNL     1       0.777   9.150  21.197  0.00  0.00    +0.000 NA
ATOM      4  C   UNL     1       0.582  10.197  20.453  0.00  0.00    +0.000 A 
ATOM      5  N   UNL     1      -0.072  11.319  20.933  0.00  0.00    +0.000 N 
ATOM      6  C   UNL     1      -0.585  11.342  22.303  0.00  0.00    +0.000 C 
ATOM      7  C   UNL     1      -0.243  12.585  20.235  0.00  0.00    +0.000 C 
ATOM      8  N   UNL     1       1.029  10.197  19.156  0.00  0.00    +0.000 N 
ATOM      9  C   UNL     1       1.660   9.146  18.558  0.00  0.00    +0.000 A 
ATOM     10  O   UNL     1       1.957   9.197  17.369  0.00  0.00    +0.000 OA
ATOM     11  H   UNL     1       0.841  10.965  18.541  0.00  0.00    +0.000 HD
ENDROOT
BRANCH   1  19
ATOM     12  C   UNL     1       4.108   2.350  19.806  0.00  0.00    +0.000 C 
ATOM     13  N   UNL     1       3.343   3.505  20.226  0.00  0.00    +0.000 N 
ATOM     14  C   UNL     1       2.160   3.334  21.041  0.00  0.00    +0.000 C 
ATOM     15  C   UNL     1       3.390   4.627  19.416  0.00  0.00    +0.000 A 
ATOM     16  N   UNL     1       4.209   4.622  18.352  0.00  0.00    +0.000 NA
ATOM     17  C   UNL     1       4.255   5.728  17.595  0.00  0.00    +0.000 A 
ATOM     18  C   UNL     1       3.532   6.859  17.864  0.00  0.00    +0.000 A 
ATOM     19  C   UNL     1       2.719   6.805  18.976  0.00  0.00    +0.000 A 
ATOM     20  N   UNL     1       2.640   5.693  19.744  0.00  0.00    +0.000 NA
ENDBRANCH   1  19
TORSDOF 1
ENDMDL
