MODEL 1
REMARK VINA RESULT:      -8.3      0.000      0.000
REMARK  Name = 
REMARK  4 active torsions:
REMARK  status: ('A' for Active; 'I' for Inactive)
REMARK    1  A    between atoms: C_1  and  C_2
REMARK    2  A    between atoms: C_5  and  C_6
REMARK    3  A    between atoms: C_14  and  C_15
REMARK    4  A    between atoms: N_17  and  C_18
REMARK                            x       y       z     vdW  Elec       q    Type
REMARK                         _______ _______ _______ _____ _____    ______ ____
ROOT
ATOM      1  C   UNL     1       2.210   2.747  21.909  0.00  0.00    +0.000 C 
ATOM      2  C   UNL     1       3.189   3.029  20.844  0.00  0.00    +0.000 A 
ATOM      3  O   UNL     1       4.251   2.189  20.785  0.00  0.00    +0.000 OA
ATOM      4  N   UNL     1       5.086   2.566  19.762  0.00  0.00    +0.000 NA
ATOM      5  C   UNL     1       4.512   3.615  19.149  0.00  0.00    +0.000 A 
ATOM      6  C   UNL     1       3.293   3.959  19.832  0.00  0.00    +0.000 A 
ENDROOT
BRANCH   5   7
ATOM      7  C   UNL     1       5.183   4.258  18.003  0.00  0.00    +0.000 A 
ATOM      8  C   UNL     1       6.298   5.111  18.185  0.00  0.00    +0.000 A 
ATOM      9 CL   UNL     1       7.032   5.416  19.729  0.00  0.00    +0.000 Cl
ATOM     10  C   UNL     1       6.901   5.767  17.098  0.00  0.00    +0.000 A 
ATOM     11  C   UNL     1       6.448   5.554  15.803  0.00  0.00    +0.000 A 
ATOM     12  C   UNL     1       5.361   4.714  15.596  0.00  0.00    +0.000 A 
ATOM     13  C   UNL     1       4.710   4.107  16.681  0.00  0.00    +0.000 A 
ATOM     14 CL   UNL     1       3.236   3.285  16.277  0.00  0.00    +0.000 Cl
ENDBRANCH   5   7
BRANCH   6  15
ATOM     15  C   UNL     1       2.349   5.015  19.511  0.00  0.00    +0.000 C 
ATOM     16  O   UNL     1       1.312   4.744  18.923  0.00  0.00    +0.000 OA
ATOM     17  N   UNL     1       2.793   6.289  19.849  0.00  0.00    +0.000 N 
ATOM     18  H   UNL     1       3.715   6.357  20.261  0.00  0.00    +0.000 HD
BRANCH  17  19
ATOM     19  C   UNL     1       2.206   7.517  19.445  0.00  0.00    +0.000 A 
ATOM     20  C   UNL     1       2.375   8.072  18.175  0.00  0.00    +0.000 A 
ATOM     21  C   UNL     1       1.837   9.326  17.861  0.00  0.00    +0.000 A 
ATOM     22  C   UNL     1       1.113  10.034  18.812  0.00  0.00    +0.000 A 
ATOM     23  C   UNL     1       0.916   9.475  20.073  0.00  0.00    +0.000 A 
ATOM     24 CL   UNL     1       0.022  10.354  21.254  0.00  0.00    +0.000 Cl
ATOM     25  C   UNL     1       1.452   8.225  20.393  0.00  0.00    +0.000 A 
ENDBRANCH  17  19
ENDBRANCH   6  15
TORSDOF 3
ENDMDL
MODEL 2
REMARK VINA RESULT:      -8.2      0.149      1.885
REMARK  Name = 
REMARK  4 active torsions:
REMARK  status: ('A' for Active; 'I' for Inactive)
REMARK    1  A    between atoms: C_1  and  C_2
REMARK    2  A    between atoms: C_5  and  C_6
REMARK    3  A    between atoms: C_14  and  C_15
REMARK    4  A    between atoms: N_17  and  C_18
REMARK                            x       y       z     vdW  Elec       q    Type
REMARK                         _______ _______ _______ _____ _____    ______ ____
ROOT
ATOM      1  C   UNL     1       2.194   2.767  21.797  0.00  0.00    +0.000 C 
ATOM      2  C   UNL     1       3.207   3.082  20.775  0.00  0.00    +0.000 A 
ATOM      3  O   UNL     1       4.287   2.264  20.747  0.00  0.00    +0.000 OA
ATOM      4  N   UNL     1       5.153   2.670  19.761  0.00  0.00    +0.000 NA
ATOM      5  C   UNL     1       4.582   3.715  19.139  0.00  0.00    +0.000 A 
ATOM      6  C   UNL     1       3.331   4.027  19.779  0.00  0.00    +0.000 A 
ENDROOT
BRANCH   5   7
ATOM      7  C   UNL     1       5.283   4.387  18.028  0.00  0.00    +0.000 A 
ATOM      8  C   UNL     1       4.883   4.202  16.683  0.00  0.00    +0.000 A 
ATOM      9 CL   UNL     1       3.506   3.255  16.213  0.00  0.00    +0.000 Cl
ATOM     10  C   UNL     1       5.587   4.798  15.623  0.00  0.00    +0.000 A 
ATOM     11  C   UNL     1       6.669   5.633  15.872  0.00  0.00    +0.000 A 
ATOM     12  C   UNL     1       7.076   5.839  17.184  0.00  0.00    +0.000 A 
ATOM     13  C   UNL     1       6.421   5.194  18.246  0.00  0.00    +0.000 A 
ATOM     14 CL   UNL     1       7.195   5.368  19.789  0.00  0.00    +0.000 Cl
ENDBRANCH   5   7
BRANCH   6  15
ATOM     15  C   UNL     1       2.380   5.067  19.435  0.00  0.00    +0.000 C 
ATOM     16  O   UNL     1       1.398   4.793  18.759  0.00  0.00    +0.000 OA
ATOM     17  N   UNL     1       2.754   6.337  19.861  0.00  0.00    +0.000 N 
ATOM     18  H   UNL     1       3.641   6.413  20.344  0.00  0.00    +0.000 HD
BRANCH  17  19
ATOM     19  C   UNL     1       2.159   7.565  19.468  0.00  0.00    +0.000 A 
ATOM     20  C   UNL     1       2.303   8.121  18.196  0.00  0.00    +0.000 A 
ATOM     21  C   UNL     1       1.758   9.373  17.892  0.00  0.00    +0.000 A 
ATOM     22  C   UNL     1       1.051  10.081  18.857  0.00  0.00    +0.000 A 
ATOM     23  C   UNL     1       0.879   9.522  20.122  0.00  0.00    +0.000 A 
ATOM     24 CL   UNL     1       0.007  10.400  21.319  0.00  0.00    +0.000 Cl
ATOM     25  C   UNL     1       1.422   8.272  20.430  0.00  0.00    +0.000 A 
ENDBRANCH  17  19
ENDBRANCH   6  15
TORSDOF 3
ENDMDL
MODEL 3
REMARK VINA RESULT:      -7.6      0.975      1.425
REMARK  Name = 
REMARK  4 active torsions:
REMARK  status: ('A' for Active; 'I' for Inactive)
REMARK    1  A    between atoms: C_1  and  C_2
REMARK    2  A    between atoms: C_5  and  C_6
REMARK    3  A    between atoms: C_14  and  C_15
REMARK    4  A    between atoms: N_17  and  C_18
REMARK                            x       y       z     vdW  Elec       q    Type
REMARK                         _______ _______ _______ _____ _____    ______ ____
ROOT
ATOM      1  C   UNL     1       2.181   2.679  21.957  0.00  0.00    +0.000 C 
ATOM      2  C   UNL     1       3.129   2.974  20.869  0.00  0.00    +0.000 A 
ATOM      3  O   UNL     1       4.173   2.119  20.750  0.00  0.00    +0.000 OA
ATOM      4  N   UNL     1       4.980   2.510  19.711  0.00  0.00    +0.000 NA
ATOM      5  C   UNL     1       4.406   3.586  19.147  0.00  0.00    +0.000 A 
ATOM      6  C   UNL     1       3.216   3.931  19.880  0.00  0.00    +0.000 A 
ENDROOT
BRANCH   5   7
ATOM      7  C   UNL     1       5.050   4.251  17.998  0.00  0.00    +0.000 A 
ATOM      8  C   UNL     1       6.150   5.123  18.173  0.00  0.00    +0.000 A 
ATOM      9 CL   UNL     1       6.896   5.433  19.710  0.00  0.00    +0.000 Cl
ATOM     10  C   UNL     1       6.727   5.799  17.084  0.00  0.00    +0.000 A 
ATOM     11  C   UNL     1       6.262   5.586  15.792  0.00  0.00    +0.000 A 
ATOM     12  C   UNL     1       5.190   4.726  15.592  0.00  0.00    +0.000 A 
ATOM     13  C   UNL     1       4.564   4.099  16.681  0.00  0.00    +0.000 A 
ATOM     14 CL   UNL     1       3.101   3.251  16.289  0.00  0.00    +0.000 Cl
ENDBRANCH   5   7
BRANCH   6  15
ATOM     15  C   UNL     1       2.282   5.012  19.621  0.00  0.00    +0.000 C 
ATOM     16  O   UNL     1       1.575   4.977  18.625  0.00  0.00    +0.000 OA
ATOM     17  N   UNL     1       2.362   6.057  20.535  0.00  0.00    +0.000 N 
ATOM     18  H   UNL     1       3.058   5.972  21.266  0.00  0.00    +0.000 HD
BRANCH  17  19
ATOM     19  C   UNL     1       1.757   7.335  20.404  0.00  0.00    +0.000 A 
ATOM     20  C   UNL     1       0.817   7.840  21.304  0.00  0.00    +0.000 A 
ATOM     21  C   UNL     1       0.196   9.075  21.078  0.00  0.00    +0.000 A 
ATOM     22  C   UNL     1       0.519   9.824  19.952  0.00  0.00    +0.000 A 
ATOM     23  C   UNL     1       1.476   9.340  19.064  0.00  0.00    +0.000 A 
ATOM     24 CL   UNL     1       1.873  10.266  17.667  0.00  0.00    +0.000 Cl
ATOM     25  C   UNL     1       2.098   8.108  19.284  0.00  0.00    +0.000 A 
ENDBRANCH  17  19
ENDBRANCH   6  15
TORSDOF 3
ENDMDL
MODEL 4
REMARK VINA RESULT:      -7.5      3.311      6.674
REMARK  Name = 
REMARK  4 active torsions:
REMARK  status: ('A' for Active; 'I' for Inactive)
REMARK    1  A    between atoms: C_1  and  C_2
REMARK    2  A    between atoms: C_5  and  C_6
REMARK    3  A    between atoms: C_14  and  C_15
REMARK    4  A    between atoms: N_17  and  C_18
REMARK                            x       y       z     vdW  Elec       q    Type
REMARK                         _______ _______ _______ _____ _____    ______ ____
ROOT
ATOM      1  C   UNL     1       8.329   6.362  18.615  0.00  0.00    +0.000 C 
ATOM      2  C   UNL     1       7.026   5.697  18.790  0.00  0.00    +0.000 A 
ATOM      3  O   UNL     1       6.692   5.387  20.067  0.00  0.00    +0.000 OA
ATOM      4  N   UNL     1       5.467   4.767  20.090  0.00  0.00    +0.000 NA
ATOM      5  C   UNL     1       5.014   4.739  18.825  0.00  0.00    +0.000 A 
ATOM      6  C   UNL     1       6.003   5.312  17.951  0.00  0.00    +0.000 A 
ENDROOT
BRANCH   5   7
ATOM      7  C   UNL     1       3.711   4.118  18.521  0.00  0.00    +0.000 A 
ATOM      8  C   UNL     1       2.580   4.900  18.187  0.00  0.00    +0.000 A 
ATOM      9 CL   UNL     1       2.623   6.628  18.020  0.00  0.00    +0.000 Cl
ATOM     10  C   UNL     1       1.326   4.310  17.952  0.00  0.00    +0.000 A 
ATOM     11  C   UNL     1       1.175   2.929  17.990  0.00  0.00    +0.000 A 
ATOM     12  C   UNL     1       2.273   2.138  18.306  0.00  0.00    +0.000 A 
ATOM     13  C   UNL     1       3.513   2.722  18.609  0.00  0.00    +0.000 A 
ATOM     14 CL   UNL     1       4.709   1.618  19.210  0.00  0.00    +0.000 Cl
ENDBRANCH   5   7
BRANCH   6  15
ATOM     15  C   UNL     1       5.934   5.495  16.512  0.00  0.00    +0.000 C 
ATOM     16  O   UNL     1       4.957   6.037  16.016  0.00  0.00    +0.000 OA
ATOM     17  N   UNL     1       6.999   4.928  15.820  0.00  0.00    +0.000 N 
ATOM     18  H   UNL     1       7.694   4.441  16.372  0.00  0.00    +0.000 HD
BRANCH  17  19
ATOM     19  C   UNL     1       7.081   4.737  14.416  0.00  0.00    +0.000 A 
ATOM     20  C   UNL     1       7.901   5.496  13.580  0.00  0.00    +0.000 A 
ATOM     21  C   UNL     1       7.880   5.314  12.192  0.00  0.00    +0.000 A 
ATOM     22  C   UNL     1       7.043   4.359  11.625  0.00  0.00    +0.000 A 
ATOM     23  C   UNL     1       6.241   3.578  12.454  0.00  0.00    +0.000 A 
ATOM     24 CL   UNL     1       5.201   2.399  11.752  0.00  0.00    +0.000 Cl
ATOM     25  C   UNL     1       6.258   3.757  13.840  0.00  0.00    +0.000 A 
ENDBRANCH  17  19
ENDBRANCH   6  15
TORSDOF 3
ENDMDL
MODEL 5
REMARK VINA RESULT:      -7.4      0.981      2.368
REMARK  Name = 
REMARK  4 active torsions:
REMARK  status: ('A' for Active; 'I' for Inactive)
REMARK    1  A    between atoms: C_1  and  C_2
REMARK    2  A    between atoms: C_5  and  C_6
REMARK    3  A    between atoms: C_14  and  C_15
REMARK    4  A    between atoms: N_17  and  C_18
REMARK                            x       y       z     vdW  Elec       q    Type
REMARK                         _______ _______ _______ _____ _____    ______ ____
ROOT
ATOM      1  C   UNL     1       2.032   2.954  21.860  0.00  0.00    +0.000 C 
ATOM      2  C   UNL     1       3.035   3.206  20.810  0.00  0.00    +0.000 A 
ATOM      3  O   UNL     1       4.050   2.311  20.740  0.00  0.00    +0.000 OA
ATOM      4  N   UNL     1       4.915   2.665  19.733  0.00  0.00    +0.000 NA
ATOM      5  C   UNL     1       4.405   3.757  19.140  0.00  0.00    +0.000 A 
ATOM      6  C   UNL     1       3.199   4.152  19.821  0.00  0.00    +0.000 A 
ENDROOT
BRANCH   5   7
ATOM      7  C   UNL     1       5.120   4.390  18.016  0.00  0.00    +0.000 A 
ATOM      8  C   UNL     1       4.724   4.175  16.674  0.00  0.00    +0.000 A 
ATOM      9 CL   UNL     1       3.336   3.236  16.222  0.00  0.00    +0.000 Cl
ATOM     10  C   UNL     1       5.441   4.734  15.602  0.00  0.00    +0.000 A 
ATOM     11  C   UNL     1       6.534   5.559  15.835  0.00  0.00    +0.000 A 
ATOM     12  C   UNL     1       6.938   5.794  17.144  0.00  0.00    +0.000 A 
ATOM     13  C   UNL     1       6.269   5.186  18.218  0.00  0.00    +0.000 A 
ATOM     14 CL   UNL     1       7.038   5.390  19.761  0.00  0.00    +0.000 Cl
ENDBRANCH   5   7
BRANCH   6  15
ATOM     15  C   UNL     1       2.318   5.265  19.517  0.00  0.00    +0.000 C 
ATOM     16  O   UNL     1       1.785   5.334  18.419  0.00  0.00    +0.000 OA
ATOM     17  N   UNL     1       2.243   6.217  20.529  0.00  0.00    +0.000 N 
ATOM     18  H   UNL     1       2.809   6.053  21.352  0.00  0.00    +0.000 HD
BRANCH  17  19
ATOM     19  C   UNL     1       1.665   7.509  20.424  0.00  0.00    +0.000 A 
ATOM     20  C   UNL     1       0.750   8.023  21.345  0.00  0.00    +0.000 A 
ATOM     21  C   UNL     1       0.154   9.274  21.145  0.00  0.00    +0.000 A 
ATOM     22  C   UNL     1       0.475  10.031  20.024  0.00  0.00    +0.000 A 
ATOM     23  C   UNL     1       1.407   9.537  19.114  0.00  0.00    +0.000 A 
ATOM     24 CL   UNL     1       1.803  10.472  17.723  0.00  0.00    +0.000 Cl
ATOM     25  C   UNL     1       2.005   8.289  19.308  0.00  0.00    +0.000 A 
ENDBRANCH  17  19
ENDBRANCH   6  15
TORSDOF 3
ENDMDL
MODEL 6
REMARK VINA RESULT:      -7.1      3.287      6.643
REMARK  Name = 
REMARK  4 active torsions:
REMARK  status: ('A' for Active; 'I' for Inactive)
REMARK    1  A    between atoms: C_1  and  C_2
REMARK    2  A    between atoms: C_5  and  C_6
REMARK    3  A    between atoms: C_14  and  C_15
REMARK    4  A    between atoms: N_17  and  C_18
REMARK                            x       y       z     vdW  Elec       q    Type
REMARK                         _______ _______ _______ _____ _____    ______ ____
ROOT
ATOM      1  C   UNL     1       8.314   6.284  18.649  0.00  0.00    +0.000 C 
ATOM      2  C   UNL     1       6.998   5.648  18.832  0.00  0.00    +0.000 A 
ATOM      3  O   UNL     1       6.663   5.348  20.110  0.00  0.00    +0.000 OA
ATOM      4  N   UNL     1       5.425   4.755  20.141  0.00  0.00    +0.000 NA
ATOM      5  C   UNL     1       4.966   4.733  18.878  0.00  0.00    +0.000 A 
ATOM      6  C   UNL     1       5.963   5.283  17.997  0.00  0.00    +0.000 A 
ENDROOT
BRANCH   5   7
ATOM      7  C   UNL     1       3.648   4.139  18.581  0.00  0.00    +0.000 A 
ATOM      8  C   UNL     1       3.450   2.738  18.596  0.00  0.00    +0.000 A 
ATOM      9 CL   UNL     1       4.684   1.599  19.038  0.00  0.00    +0.000 Cl
ATOM     10  C   UNL     1       2.209   2.172  18.259  0.00  0.00    +0.000 A 
ATOM     11  C   UNL     1       1.122   2.980  17.949  0.00  0.00    +0.000 A 
ATOM     12  C   UNL     1       1.288   4.360  17.937  0.00  0.00    +0.000 A 
ATOM     13  C   UNL     1       2.541   4.932  18.207  0.00  0.00    +0.000 A 
ATOM     14 CL   UNL     1       2.636   6.641  17.919  0.00  0.00    +0.000 Cl
ENDBRANCH   5   7
BRANCH   6  15
ATOM     15  C   UNL     1       5.892   5.463  16.559  0.00  0.00    +0.000 C 
ATOM     16  O   UNL     1       4.897   5.968  16.059  0.00  0.00    +0.000 OA
ATOM     17  N   UNL     1       6.980   4.938  15.870  0.00  0.00    +0.000 N 
ATOM     18  H   UNL     1       7.692   4.478  16.424  0.00  0.00    +0.000 HD
BRANCH  17  19
ATOM     19  C   UNL     1       7.074   4.750  14.466  0.00  0.00    +0.000 A 
ATOM     20  C   UNL     1       7.897   5.516  13.638  0.00  0.00    +0.000 A 
ATOM     21  C   UNL     1       7.887   5.337  12.250  0.00  0.00    +0.000 A 
ATOM     22  C   UNL     1       7.060   4.380  11.674  0.00  0.00    +0.000 A 
ATOM     23  C   UNL     1       6.255   3.593  12.495  0.00  0.00    +0.000 A 
ATOM     24 CL   UNL     1       5.226   2.410  11.782  0.00  0.00    +0.000 Cl
ATOM     25  C   UNL     1       6.260   3.768  13.882  0.00  0.00    +0.000 A 
ENDBRANCH  17  19
ENDBRANCH   6  15
TORSDOF 3
ENDMDL
MODEL 7
REMARK VINA RESULT:      -7.0      2.071      4.010
REMARK  Name = 
REMARK  4 active torsions:
REMARK  status: ('A' for Active; 'I' for Inactive)
REMARK    1  A    between atoms: C_1  and  C_2
REMARK    2  A    between atoms: C_5  and  C_6
REMARK    3  A    between atoms: C_14  and  C_15
REMARK    4  A    between atoms: N_17  and  C_18
REMARK                            x       y       z     vdW  Elec       q    Type
REMARK                         _______ _______ _______ _____ _____    ______ ____
ROOT
ATOM      1  C   UNL     1       6.116   5.364  15.344  0.00  0.00    +0.000 C 
ATOM      2  C   UNL     1       5.276   4.635  16.309  0.00  0.00    +0.000 A 
ATOM      3  O   UNL     1       5.302   3.284  16.208  0.00  0.00    +0.000 OA
ATOM      4  N   UNL     1       4.474   2.729  17.154  0.00  0.00    +0.000 NA
ATOM      5  C   UNL     1       3.971   3.741  17.881  0.00  0.00    +0.000 A 
ATOM      6  C   UNL     1       4.449   4.993  17.353  0.00  0.00    +0.000 A 
ENDROOT
BRANCH   5   7
ATOM      7  C   UNL     1       3.027   3.463  18.980  0.00  0.00    +0.000 A 
ATOM      8  C   UNL     1       3.444   2.812  20.165  0.00  0.00    +0.000 A 
ATOM      9 CL   UNL     1       5.090   2.357  20.481  0.00  0.00    +0.000 Cl
ATOM     10  C   UNL     1       2.532   2.498  21.187  0.00  0.00    +0.000 A 
ATOM     11  C   UNL     1       1.197   2.869  21.082  0.00  0.00    +0.000 A 
ATOM     12  C   UNL     1       0.764   3.518  19.933  0.00  0.00    +0.000 A 
ATOM     13  C   UNL     1       1.654   3.776  18.878  0.00  0.00    +0.000 A 
ATOM     14 CL   UNL     1       0.909   4.375  17.430  0.00  0.00    +0.000 Cl
ENDBRANCH   5   7
BRANCH   6  15
ATOM     15  C   UNL     1       4.170   6.335  17.830  0.00  0.00    +0.000 C 
ATOM     16  O   UNL     1       5.071   7.007  18.311  0.00  0.00    +0.000 OA
ATOM     17  N   UNL     1       2.827   6.690  17.761  0.00  0.00    +0.000 N 
ATOM     18  H   UNL     1       2.187   5.989  17.409  0.00  0.00    +0.000 HD
BRANCH  17  19
ATOM     19  C   UNL     1       2.227   7.825  18.368  0.00  0.00    +0.000 A 
ATOM     20  C   UNL     1       1.975   9.020  17.693  0.00  0.00    +0.000 A 
ATOM     21  C   UNL     1       1.454  10.131  18.365  0.00  0.00    +0.000 A 
ATOM     22  C   UNL     1       1.167  10.055  19.724  0.00  0.00    +0.000 A 
ATOM     23  C   UNL     1       1.389   8.857  20.400  0.00  0.00    +0.000 A 
ATOM     24 CL   UNL     1       1.038   8.763  22.083  0.00  0.00    +0.000 Cl
ATOM     25  C   UNL     1       1.911   7.745  19.733  0.00  0.00    +0.000 A 
ENDBRANCH  17  19
ENDBRANCH   6  15
TORSDOF 3
ENDMDL
MODEL 8
REMARK VINA RESULT:      -6.9      1.997      4.010
REMARK  Name = 
REMARK  4 active torsions:
REMARK  status: ('A' for Active; 'I' for Inactive)
REMARK    1  A    between atoms: C_1  and  C_2
REMARK    2  A    between atoms: C_5  and  C_6
REMARK    3  A    between atoms: C_14  and  C_15
REMARK    4  A    between atoms: N_17  and  C_18
REMARK                            x       y       z     vdW  Elec       q    Type
REMARK                         _______ _______ _______ _____ _____    ______ ____
ROOT
ATOM      1  C   UNL     1       7.081   6.537  18.223  0.00  0.00    +0.000 C 
ATOM      2  C   UNL     1       6.045   5.545  18.557  0.00  0.00    +0.000 A 
ATOM      3  O   UNL     1       6.498   4.354  19.018  0.00  0.00    +0.000 OA
ATOM      4  N   UNL     1       5.438   3.521  19.281  0.00  0.00    +0.000 NA
ATOM      5  C   UNL     1       4.317   4.218  19.031  0.00  0.00    +0.000 A 
ATOM      6  C   UNL     1       4.666   5.526  18.540  0.00  0.00    +0.000 A 
ENDROOT
BRANCH   5   7
ATOM      7  C   UNL     1       2.997   3.584  19.211  0.00  0.00    +0.000 A 
ATOM      8  C   UNL     1       2.374   2.867  18.162  0.00  0.00    +0.000 A 
ATOM      9 CL   UNL     1       3.115   2.590  16.616  0.00  0.00    +0.000 Cl
ATOM     10  C   UNL     1       1.093   2.310  18.317  0.00  0.00    +0.000 A 
ATOM     11  C   UNL     1       0.422   2.406  19.529  0.00  0.00    +0.000 A 
ATOM     12  C   UNL     1       1.015   3.097  20.578  0.00  0.00    +0.000 A 
ATOM     13  C   UNL     1       2.266   3.714  20.412  0.00  0.00    +0.000 A 
ATOM     14 CL   UNL     1       2.756   4.730  21.730  0.00  0.00    +0.000 Cl
ENDBRANCH   5   7
BRANCH   6  15
ATOM     15  C   UNL     1       3.779   6.609  18.156  0.00  0.00    +0.000 C 
ATOM     16  O   UNL     1       3.965   7.199  17.101  0.00  0.00    +0.000 OA
ATOM     17  N   UNL     1       2.825   6.925  19.117  0.00  0.00    +0.000 N 
ATOM     18  H   UNL     1       2.851   6.392  19.978  0.00  0.00    +0.000 HD
BRANCH  17  19
ATOM     19  C   UNL     1       1.993   8.075  19.127  0.00  0.00    +0.000 A 
ATOM     20  C   UNL     1       1.753   8.865  18.001  0.00  0.00    +0.000 A 
ATOM     21  C   UNL     1       0.987  10.033  18.092  0.00  0.00    +0.000 A 
ATOM     22  C   UNL     1       0.442  10.419  19.312  0.00  0.00    +0.000 A 
ATOM     23  C   UNL     1       0.655   9.623  20.435  0.00  0.00    +0.000 A 
ATOM     24 CL   UNL     1      -0.016  10.103  21.947  0.00  0.00    +0.000 Cl
ATOM     25  C   UNL     1       1.419   8.456  20.350  0.00  0.00    +0.000 A 
ENDBRANCH  17  19
ENDBRANCH   6  15
TORSDOF 3
ENDMDL
MODEL 9
REMARK VINA RESULT:      -6.8      2.025      3.711
REMARK  Name = 
REMARK  4 active torsions:
REMARK  status: ('A' for Active; 'I' for Inactive)
REMARK    1  A    between atoms: C_1  and  C_2
REMARK    2  A    between atoms: C_5  and  C_6
REMARK    3  A    between atoms: C_14  and  C_15
REMARK    4  A    between atoms: N_17  and  C_18
REMARK                            x       y       z     vdW  Elec       q    Type
REMARK                         _______ _______ _______ _____ _____    ______ ____
ROOT
ATOM      1  C   UNL     1       7.151   6.532  18.235  0.00  0.00    +0.000 C 
ATOM      2  C   UNL     1       6.103   5.553  18.571  0.00  0.00    +0.000 A 
ATOM      3  O   UNL     1       6.540   4.375  19.077  0.00  0.00    +0.000 OA
ATOM      4  N   UNL     1       5.470   3.554  19.337  0.00  0.00    +0.000 NA
ATOM      5  C   UNL     1       4.358   4.248  19.039  0.00  0.00    +0.000 A 
ATOM      6  C   UNL     1       4.725   5.539  18.521  0.00  0.00    +0.000 A 
ENDROOT
BRANCH   5   7
ATOM      7  C   UNL     1       3.031   3.623  19.204  0.00  0.00    +0.000 A 
ATOM      8  C   UNL     1       2.195   3.945  20.299  0.00  0.00    +0.000 A 
ATOM      9 CL   UNL     1       2.593   5.143  21.492  0.00  0.00    +0.000 Cl
ATOM     10  C   UNL     1       0.955   3.309  20.484  0.00  0.00    +0.000 A 
ATOM     11  C   UNL     1       0.493   2.378  19.562  0.00  0.00    +0.000 A 
ATOM     12  C   UNL     1       1.291   2.052  18.472  0.00  0.00    +0.000 A 
ATOM     13  C   UNL     1       2.559   2.633  18.315  0.00  0.00    +0.000 A 
ATOM     14 CL   UNL     1       3.520   1.946  17.043  0.00  0.00    +0.000 Cl
ENDBRANCH   5   7
BRANCH   6  15
ATOM     15  C   UNL     1       3.853   6.614  18.083  0.00  0.00    +0.000 C 
ATOM     16  O   UNL     1       4.062   7.168  17.014  0.00  0.00    +0.000 OA
ATOM     17  N   UNL     1       2.882   6.967  19.015  0.00  0.00    +0.000 N 
ATOM     18  H   UNL     1       2.888   6.463  19.893  0.00  0.00    +0.000 HD
BRANCH  17  19
ATOM     19  C   UNL     1       2.057   8.122  18.971  0.00  0.00    +0.000 A 
ATOM     20  C   UNL     1       1.862   8.889  17.821  0.00  0.00    +0.000 A 
ATOM     21  C   UNL     1       1.101  10.063  17.860  0.00  0.00    +0.000 A 
ATOM     22  C   UNL     1       0.516  10.478  19.051  0.00  0.00    +0.000 A 
ATOM     23  C   UNL     1       0.684   9.704  20.197  0.00  0.00    +0.000 A 
ATOM     24 CL   UNL     1      -0.037  10.220  21.674  0.00  0.00    +0.000 Cl
ATOM     25  C   UNL     1       1.443   8.532  20.164  0.00  0.00    +0.000 A 
ENDBRANCH  17  19
ENDBRANCH   6  15
TORSDOF 3
ENDMDL
