MODEL 1
REMARK VINA RESULT:      -9.5      0.000      0.000
REMARK  Name = 
REMARK  7 active torsions:
REMARK  status: ('A' for Active; 'I' for Inactive)
REMARK    1  A    between atoms: C_1  and  O_2
REMARK    2  A    between atoms: O_2  and  C_3
REMARK    3  A    between atoms: C_6  and  C_7
REMARK    4  A    between atoms: C_7  and  C_9
REMARK    5  A    between atoms: N_12  and  C_13
REMARK    6  A    between atoms: N_16  and  C_17
REMARK    7  A    between atoms: C_17  and  C_18
REMARK                            x       y       z     vdW  Elec       q    Type
REMARK                         _______ _______ _______ _____ _____    ______ ____
ROOT
ATOM      1  C   UNL     1       2.241   7.589  19.208  0.00  0.00    +0.000 C 
ATOM      2  C   UNL     1       2.374   8.212  17.801  0.00  0.00    +0.000 C 
ATOM      3  C   UNL     1       2.108   9.703  17.976  0.00  0.00    +0.000 C 
ATOM      4  N   UNL     1       1.334   9.799  19.184  0.00  0.00    +0.000 N 
ATOM      5  C   UNL     1       1.410   8.653  19.963  0.00  0.00    +0.000 C 
ATOM      6  O   UNL     1       0.954   8.583  21.094  0.00  0.00    +0.000 OA
ENDROOT
BRANCH   1  10
ATOM      7  C   UNL     1       2.163   3.192  19.190  0.00  0.00    +0.000 C 
ATOM      8  C   UNL     1       1.582   3.984  18.019  0.00  0.00    +0.000 C 
ATOM      9  C   UNL     1       2.013   5.450  18.023  0.00  0.00    +0.000 C 
ATOM     10  N   UNL     1       1.730   6.175  19.266  0.00  0.00    +0.000 NA
ATOM     11  C   UNL     1       2.103   5.435  20.477  0.00  0.00    +0.000 C 
ATOM     12  C   UNL     1       1.786   3.930  20.479  0.00  0.00    +0.000 C 
BRANCH   7  13
ATOM     13  C   UNL     1       3.675   2.877  19.079  0.00  0.00    +0.000 C 
ATOM     14  O   UNL     1       4.148   1.833  19.523  0.00  0.00    +0.000 OA
BRANCH  13  18
ATOM     15  C   UNL     1       6.164   5.816  17.076  0.00  0.00    +0.000 A 
ATOM     16  C   UNL     1       6.043   5.796  18.463  0.00  0.00    +0.000 A 
ATOM     17  C   UNL     1       5.267   4.818  19.105  0.00  0.00    +0.000 A 
ATOM     18  C   UNL     1       4.589   3.844  18.357  0.00  0.00    +0.000 A 
ATOM     19  C   UNL     1       4.779   3.823  16.976  0.00  0.00    +0.000 A 
ATOM     20  C   UNL     1       5.546   4.814  16.333  0.00  0.00    +0.000 A 
BRANCH  15  22
ATOM     21  C   UNL     1       7.604   7.682  17.479  0.00  0.00    +0.000 C 
ATOM     22  O   UNL     1       6.870   6.872  16.568  0.00  0.00    +0.000 OA
ENDBRANCH  15  22
ENDBRANCH  13  18
ENDBRANCH   7  13
ENDBRANCH   1  10
BRANCH   4  23
ATOM     23  C   UNL     1       0.487  10.942  19.519  0.00  0.00    +0.000 C 
BRANCH  23  24
ATOM     24  C   UNL     1      -0.897  10.982  18.871  0.00  0.00    +0.000 A 
ATOM     25  N   UNL     1      -1.891  11.540  19.492  0.00  0.00    +0.000 NA
ATOM     26  C   UNL     1      -3.109  11.555  18.853  0.00  0.00    +0.000 A 
ATOM     27  C   UNL     1      -3.353  10.976  17.668  0.00  0.00    +0.000 A 
ATOM     28  C   UNL     1      -2.198  10.423  16.937  0.00  0.00    +0.000 A 
ATOM     29  O   UNL     1      -2.299   9.993  15.795  0.00  0.00    +0.000 OA
ATOM     30  N   UNL     1      -1.010  10.453  17.615  0.00  0.00    +0.000 N 
ATOM     31  C   UNL     1      -4.710  10.896  17.040  0.00  0.00    +0.000 C 
ATOM     32  O   UNL     1      -5.750  11.384  17.907  0.00  0.00    +0.000 OA
ATOM     33  C   UNL     1      -5.368  12.591  18.568  0.00  0.00    +0.000 C 
ATOM     34  C   UNL     1      -4.226  12.302  19.543  0.00  0.00    +0.000 C 
ATOM     35  H   UNL     1      -0.193  10.115  17.123  0.00  0.00    +0.000 HD
ENDBRANCH  23  24
ENDBRANCH   4  23
TORSDOF 6
ENDMDL
MODEL 2
REMARK VINA RESULT:      -9.4      0.644      1.178
REMARK  Name = 
REMARK  7 active torsions:
REMARK  status: ('A' for Active; 'I' for Inactive)
REMARK    1  A    between atoms: C_1  and  O_2
REMARK    2  A    between atoms: O_2  and  C_3
REMARK    3  A    between atoms: C_6  and  C_7
REMARK    4  A    between atoms: C_7  and  C_9
REMARK    5  A    between atoms: N_12  and  C_13
REMARK    6  A    between atoms: N_16  and  C_17
REMARK    7  A    between atoms: C_17  and  C_18
REMARK                            x       y       z     vdW  Elec       q    Type
REMARK                         _______ _______ _______ _____ _____    ______ ____
ROOT
ATOM      1  C   UNL     1       2.185   7.793  19.194  0.00  0.00    +0.000 C 
ATOM      2  C   UNL     1       2.276   8.403  17.778  0.00  0.00    +0.000 C 
ATOM      3  C   UNL     1       1.978   9.890  17.942  0.00  0.00    +0.000 C 
ATOM      4  N   UNL     1       1.226   9.981  19.165  0.00  0.00    +0.000 N 
ATOM      5  C   UNL     1       1.344   8.845  19.953  0.00  0.00    +0.000 C 
ATOM      6  O   UNL     1       0.912   8.777  21.094  0.00  0.00    +0.000 OA
ENDROOT
BRANCH   1  10
ATOM      7  C   UNL     1       2.222   3.397  19.328  0.00  0.00    +0.000 C 
ATOM      8  C   UNL     1       1.680   4.133  18.102  0.00  0.00    +0.000 C 
ATOM      9  C   UNL     1       2.072   5.609  18.076  0.00  0.00    +0.000 C 
ATOM     10  N   UNL     1       1.708   6.369  19.277  0.00  0.00    +0.000 NA
ATOM     11  C   UNL     1       2.039   5.681  20.530  0.00  0.00    +0.000 C 
ATOM     12  C   UNL     1       1.761   4.169  20.570  0.00  0.00    +0.000 C 
BRANCH   7  13
ATOM     13  C   UNL     1       3.745   3.121  19.303  0.00  0.00    +0.000 C 
ATOM     14  O   UNL     1       4.254   2.266  20.025  0.00  0.00    +0.000 OA
BRANCH  13  18
ATOM     15  C   UNL     1       6.390   5.099  16.486  0.00  0.00    +0.000 A 
ATOM     16  C   UNL     1       5.559   4.055  16.087  0.00  0.00    +0.000 A 
ATOM     17  C   UNL     1       4.678   3.447  16.995  0.00  0.00    +0.000 A 
ATOM     18  C   UNL     1       4.626   3.875  18.330  0.00  0.00    +0.000 A 
ATOM     19  C   UNL     1       5.403   4.972  18.702  0.00  0.00    +0.000 A 
ATOM     20  C   UNL     1       6.297   5.571  17.793  0.00  0.00    +0.000 A 
BRANCH  15  22
ATOM     21  C   UNL     1       7.197   4.954  14.240  0.00  0.00    +0.000 C 
ATOM     22  O   UNL     1       7.266   5.542  15.534  0.00  0.00    +0.000 OA
ENDBRANCH  15  22
ENDBRANCH  13  18
ENDBRANCH   7  13
ENDBRANCH   1  10
BRANCH   4  23
ATOM     23  C   UNL     1       0.359  11.108  19.504  0.00  0.00    +0.000 C 
BRANCH  23  24
ATOM     24  C   UNL     1      -1.018  11.136  18.841  0.00  0.00    +0.000 A 
ATOM     25  N   UNL     1      -2.033  11.645  19.470  0.00  0.00    +0.000 NA
ATOM     26  C   UNL     1      -3.244  11.653  18.818  0.00  0.00    +0.000 A 
ATOM     27  C   UNL     1      -3.460  11.111  17.610  0.00  0.00    +0.000 A 
ATOM     28  C   UNL     1      -2.283  10.614  16.873  0.00  0.00    +0.000 A 
ATOM     29  O   UNL     1      -2.360  10.222  15.716  0.00  0.00    +0.000 OA
ATOM     30  N   UNL     1      -1.104  10.649  17.566  0.00  0.00    +0.000 N 
ATOM     31  C   UNL     1      -4.807  11.019  16.964  0.00  0.00    +0.000 C 
ATOM     32  O   UNL     1      -5.869  11.449  17.835  0.00  0.00    +0.000 OA
ATOM     33  C   UNL     1      -5.526  12.641  18.543  0.00  0.00    +0.000 C 
ATOM     34  C   UNL     1      -4.387  12.345  19.521  0.00  0.00    +0.000 C 
ATOM     35  H   UNL     1      -0.274  10.350  17.072  0.00  0.00    +0.000 HD
ENDBRANCH  23  24
ENDBRANCH   4  23
TORSDOF 6
ENDMDL
MODEL 3
REMARK VINA RESULT:      -9.3      0.928      1.932
REMARK  Name = 
REMARK  7 active torsions:
REMARK  status: ('A' for Active; 'I' for Inactive)
REMARK    1  A    between atoms: C_1  and  O_2
REMARK    2  A    between atoms: O_2  and  C_3
REMARK    3  A    between atoms: C_6  and  C_7
REMARK    4  A    between atoms: C_7  and  C_9
REMARK    5  A    between atoms: N_12  and  C_13
REMARK    6  A    between atoms: N_16  and  C_17
REMARK    7  A    between atoms: C_17  and  C_18
REMARK                            x       y       z     vdW  Elec       q    Type
REMARK                         _______ _______ _______ _____ _____    ______ ____
ROOT
ATOM      1  C   UNL     1       2.351   7.150  19.331  0.00  0.00    +0.000 C 
ATOM      2  C   UNL     1       2.364   7.794  17.927  0.00  0.00    +0.000 C 
ATOM      3  C   UNL     1       2.130   9.285  18.148  0.00  0.00    +0.000 C 
ATOM      4  N   UNL     1       1.468   9.368  19.423  0.00  0.00    +0.000 N 
ATOM      5  C   UNL     1       1.602   8.208  20.173  0.00  0.00    +0.000 C 
ATOM      6  O   UNL     1       1.249   8.124  21.339  0.00  0.00    +0.000 OA
ENDROOT
BRANCH   1  10
ATOM      7  C   UNL     1       2.125   2.774  18.949  0.00  0.00    +0.000 C 
ATOM      8  C   UNL     1       1.253   3.676  18.076  0.00  0.00    +0.000 C 
ATOM      9  C   UNL     1       1.715   5.133  18.082  0.00  0.00    +0.000 C 
ATOM     10  N   UNL     1       1.833   5.740  19.412  0.00  0.00    +0.000 NA
ATOM     11  C   UNL     1       2.520   4.887  20.389  0.00  0.00    +0.000 C 
ATOM     12  C   UNL     1       2.167   3.391  20.352  0.00  0.00    +0.000 C 
BRANCH   7  13
ATOM     13  C   UNL     1       3.527   2.462  18.370  0.00  0.00    +0.000 C 
ATOM     14  O   UNL     1       3.889   1.309  18.152  0.00  0.00    +0.000 OA
BRANCH  13  18
ATOM     15  C   UNL     1       6.306   5.587  17.202  0.00  0.00    +0.000 A 
ATOM     16  C   UNL     1       5.455   4.991  16.274  0.00  0.00    +0.000 A 
ATOM     17  C   UNL     1       4.532   4.009  16.667  0.00  0.00    +0.000 A 
ATOM     18  C   UNL     1       4.456   3.601  18.007  0.00  0.00    +0.000 A 
ATOM     19  C   UNL     1       5.254   4.258  18.943  0.00  0.00    +0.000 A 
ATOM     20  C   UNL     1       6.190   5.232  18.544  0.00  0.00    +0.000 A 
BRANCH  15  22
ATOM     21  C   UNL     1       7.556   7.611  17.443  0.00  0.00    +0.000 C 
ATOM     22  O   UNL     1       7.220   6.458  16.679  0.00  0.00    +0.000 OA
ENDBRANCH  15  22
ENDBRANCH  13  18
ENDBRANCH   7  13
ENDBRANCH   1  10
BRANCH   4  23
ATOM     23  C   UNL     1       0.666  10.513  19.850  0.00  0.00    +0.000 C 
BRANCH  23  24
ATOM     24  C   UNL     1      -0.641  10.753  19.094  0.00  0.00    +0.000 A 
ATOM     25  N   UNL     1      -0.824  10.220  17.925  0.00  0.00    +0.000 NA
ATOM     26  C   UNL     1      -2.024  10.461  17.299  0.00  0.00    +0.000 A 
ATOM     27  C   UNL     1      -2.986  11.262  17.783  0.00  0.00    +0.000 A 
ATOM     28  C   UNL     1      -2.801  11.790  19.148  0.00  0.00    +0.000 A 
ATOM     29  O   UNL     1      -3.679  12.420  19.723  0.00  0.00    +0.000 OA
ATOM     30  N   UNL     1      -1.596  11.501  19.726  0.00  0.00    +0.000 N 
ATOM     31  C   UNL     1      -4.236  11.612  17.037  0.00  0.00    +0.000 C 
ATOM     32  O   UNL     1      -4.234  11.110  15.689  0.00  0.00    +0.000 OA
ATOM     33  C   UNL     1      -3.746   9.769  15.620  0.00  0.00    +0.000 C 
ATOM     34  C   UNL     1      -2.261   9.747  15.990  0.00  0.00    +0.000 C 
ATOM     35  H   UNL     1      -1.456  11.818  20.676  0.00  0.00    +0.000 HD
ENDBRANCH  23  24
ENDBRANCH   4  23
TORSDOF 6
ENDMDL
MODEL 4
REMARK VINA RESULT:      -9.1      2.775     10.535
REMARK  Name = 
REMARK  7 active torsions:
REMARK  status: ('A' for Active; 'I' for Inactive)
REMARK    1  A    between atoms: C_1  and  O_2
REMARK    2  A    between atoms: O_2  and  C_3
REMARK    3  A    between atoms: C_6  and  C_7
REMARK    4  A    between atoms: C_7  and  C_9
REMARK    5  A    between atoms: N_12  and  C_13
REMARK    6  A    between atoms: N_16  and  C_17
REMARK    7  A    between atoms: C_17  and  C_18
REMARK                            x       y       z     vdW  Elec       q    Type
REMARK                         _______ _______ _______ _____ _____    ______ ____
ROOT
ATOM      1  C   UNL     1       1.483   9.425  19.779  0.00  0.00    +0.000 C 
ATOM      2  C   UNL     1       0.951   8.693  21.031  0.00  0.00    +0.000 C 
ATOM      3  C   UNL     1       1.613   7.319  21.026  0.00  0.00    +0.000 C 
ATOM      4  N   UNL     1       1.977   7.091  19.653  0.00  0.00    +0.000 N 
ATOM      5  C   UNL     1       1.978   8.255  18.898  0.00  0.00    +0.000 C 
ATOM      6  O   UNL     1       2.403   8.308  17.753  0.00  0.00    +0.000 OA
ENDROOT
BRANCH   1  10
ATOM      7  C   UNL     1      -1.305  12.783  19.239  0.00  0.00    +0.000 C 
ATOM      8  C   UNL     1      -1.803  11.339  19.159  0.00  0.00    +0.000 C 
ATOM      9  C   UNL     1      -0.797  10.334  19.721  0.00  0.00    +0.000 C 
ATOM     10  N   UNL     1       0.543  10.402  19.128  0.00  0.00    +0.000 NA
ATOM     11  C   UNL     1       1.063  11.769  19.005  0.00  0.00    +0.000 C 
ATOM     12  C   UNL     1       0.059  12.839  18.544  0.00  0.00    +0.000 C 
BRANCH   7  13
ATOM     13  C   UNL     1      -1.300  13.394  20.661  0.00  0.00    +0.000 C 
ATOM     14  O   UNL     1      -0.360  14.075  21.064  0.00  0.00    +0.000 OA
BRANCH  13  18
ATOM     15  C   UNL     1      -4.706  12.624  23.242  0.00  0.00    +0.000 A 
ATOM     16  C   UNL     1      -3.403  12.374  23.669  0.00  0.00    +0.000 A 
ATOM     17  C   UNL     1      -2.305  12.663  22.843  0.00  0.00    +0.000 A 
ATOM     18  C   UNL     1      -2.501  13.201  21.563  0.00  0.00    +0.000 A 
ATOM     19  C   UNL     1      -3.802  13.522  21.174  0.00  0.00    +0.000 A 
ATOM     20  C   UNL     1      -4.903  13.218  21.998  0.00  0.00    +0.000 A 
BRANCH  15  22
ATOM     21  C   UNL     1      -6.905  12.951  24.121  0.00  0.00    +0.000 C 
ATOM     22  O   UNL     1      -5.688  12.213  24.100  0.00  0.00    +0.000 OA
ENDBRANCH  15  22
ENDBRANCH  13  18
ENDBRANCH   7  13
ENDBRANCH   1  10
BRANCH   4  23
ATOM     23  C   UNL     1       2.229   5.767  19.088  0.00  0.00    +0.000 C 
BRANCH  23  24
ATOM     24  C   UNL     1       3.649   5.495  18.588  0.00  0.00    +0.000 A 
ATOM     25  N   UNL     1       3.868   5.307  17.323  0.00  0.00    +0.000 NA
ATOM     26  C   UNL     1       5.167   5.079  16.932  0.00  0.00    +0.000 A 
ATOM     27  C   UNL     1       6.206   4.972  17.773  0.00  0.00    +0.000 A 
ATOM     28  C   UNL     1       5.956   5.272  19.196  0.00  0.00    +0.000 A 
ATOM     29  O   UNL     1       6.864   5.328  20.015  0.00  0.00    +0.000 OA
ATOM     30  N   UNL     1       4.649   5.509  19.520  0.00  0.00    +0.000 N 
ATOM     31  C   UNL     1       7.593   4.604  17.346  0.00  0.00    +0.000 C 
ATOM     32  O   UNL     1       7.666   4.243  15.955  0.00  0.00    +0.000 OA
ATOM     33  C   UNL     1       6.906   5.132  15.134  0.00  0.00    +0.000 C 
ATOM     34  C   UNL     1       5.418   4.970  15.447  0.00  0.00    +0.000 C 
ATOM     35  H   UNL     1       4.453   5.756  20.481  0.00  0.00    +0.000 HD
ENDBRANCH  23  24
ENDBRANCH   4  23
TORSDOF 6
ENDMDL
MODEL 5
REMARK VINA RESULT:      -9.0      2.779      4.243
REMARK  Name = 
REMARK  7 active torsions:
REMARK  status: ('A' for Active; 'I' for Inactive)
REMARK    1  A    between atoms: C_1  and  O_2
REMARK    2  A    between atoms: O_2  and  C_3
REMARK    3  A    between atoms: C_6  and  C_7
REMARK    4  A    between atoms: C_7  and  C_9
REMARK    5  A    between atoms: N_12  and  C_13
REMARK    6  A    between atoms: N_16  and  C_17
REMARK    7  A    between atoms: C_17  and  C_18
REMARK                            x       y       z     vdW  Elec       q    Type
REMARK                         _______ _______ _______ _____ _____    ______ ____
ROOT
ATOM      1  C   UNL     1       2.336   7.392  19.328  0.00  0.00    +0.000 C 
ATOM      2  C   UNL     1       2.584   7.878  17.882  0.00  0.00    +0.000 C 
ATOM      3  C   UNL     1       2.282   9.372  17.885  0.00  0.00    +0.000 C 
ATOM      4  N   UNL     1       1.404   9.569  19.007  0.00  0.00    +0.000 N 
ATOM      5  C   UNL     1       1.427   8.505  19.899  0.00  0.00    +0.000 C 
ATOM      6  O   UNL     1       0.875   8.536  20.988  0.00  0.00    +0.000 OA
ENDROOT
BRANCH   1  10
ATOM      7  C   UNL     1       2.270   2.995  19.405  0.00  0.00    +0.000 C 
ATOM      8  C   UNL     1       1.533   3.765  18.308  0.00  0.00    +0.000 C 
ATOM      9  C   UNL     1       1.957   5.231  18.225  0.00  0.00    +0.000 C 
ATOM     10  N   UNL     1       1.842   5.980  19.481  0.00  0.00    +0.000 NA
ATOM     11  C   UNL     1       2.378   5.264  20.645  0.00  0.00    +0.000 C 
ATOM     12  C   UNL     1       2.067   3.759  20.718  0.00  0.00    +0.000 C 
BRANCH   7  13
ATOM     13  C   UNL     1       3.753   2.679  19.096  0.00  0.00    +0.000 C 
ATOM     14  O   UNL     1       4.255   1.598  19.397  0.00  0.00    +0.000 OA
BRANCH  13  18
ATOM     15  C   UNL     1       6.049   5.755  17.067  0.00  0.00    +0.000 A 
ATOM     16  C   UNL     1       6.068   5.635  18.455  0.00  0.00    +0.000 A 
ATOM     17  C   UNL     1       5.354   4.613  19.101  0.00  0.00    +0.000 A 
ATOM     18  C   UNL     1       4.597   3.696  18.357  0.00  0.00    +0.000 A 
ATOM     19  C   UNL     1       4.647   3.774  16.965  0.00  0.00    +0.000 A 
ATOM     20  C   UNL     1       5.352   4.809  16.321  0.00  0.00    +0.000 A 
BRANCH  15  22
ATOM     21  C   UNL     1       7.525   7.595  17.459  0.00  0.00    +0.000 C 
ATOM     22  O   UNL     1       6.707   6.845  16.568  0.00  0.00    +0.000 OA
ENDBRANCH  15  22
ENDBRANCH  13  18
ENDBRANCH   7  13
ENDBRANCH   1  10
BRANCH   4  23
ATOM     23  C   UNL     1       0.515  10.720  19.153  0.00  0.00    +0.000 C 
BRANCH  23  24
ATOM     24  C   UNL     1       1.176  12.057  19.487  0.00  0.00    +0.000 A 
ATOM     25  N   UNL     1       1.894  12.669  18.595  0.00  0.00    +0.000 NA
ATOM     26  C   UNL     1       2.453  13.874  18.949  0.00  0.00    +0.000 A 
ATOM     27  C   UNL     1       2.363  14.424  20.170  0.00  0.00    +0.000 A 
ATOM     28  C   UNL     1       1.475  13.763  21.144  0.00  0.00    +0.000 A 
ATOM     29  O   UNL     1       1.226  14.258  22.236  0.00  0.00    +0.000 OA
ATOM     30  N   UNL     1       0.933  12.578  20.728  0.00  0.00    +0.000 N 
ATOM     31  C   UNL     1       3.076  15.676  20.577  0.00  0.00    +0.000 C 
ATOM     32  O   UNL     1       3.979  16.153  19.564  0.00  0.00    +0.000 OA
ATOM     33  C   UNL     1       3.399  16.085  18.260  0.00  0.00    +0.000 C 
ATOM     34  C   UNL     1       3.195  14.621  17.867  0.00  0.00    +0.000 C 
ATOM     35  H   UNL     1       0.289  12.121  21.361  0.00  0.00    +0.000 HD
ENDBRANCH  23  24
ENDBRANCH   4  23
TORSDOF 6
ENDMDL
MODEL 6
REMARK VINA RESULT:      -9.0      2.817      3.932
REMARK  Name = 
REMARK  7 active torsions:
REMARK  status: ('A' for Active; 'I' for Inactive)
REMARK    1  A    between atoms: C_1  and  O_2
REMARK    2  A    between atoms: O_2  and  C_3
REMARK    3  A    between atoms: C_6  and  C_7
REMARK    4  A    between atoms: C_7  and  C_9
REMARK    5  A    between atoms: N_12  and  C_13
REMARK    6  A    between atoms: N_16  and  C_17
REMARK    7  A    between atoms: C_17  and  C_18
REMARK                            x       y       z     vdW  Elec       q    Type
REMARK                         _______ _______ _______ _____ _____    ______ ____
ROOT
ATOM      1  C   UNL     1       2.240   7.678  19.289  0.00  0.00    +0.000 C 
ATOM      2  C   UNL     1       2.375   8.251  17.861  0.00  0.00    +0.000 C 
ATOM      3  C   UNL     1       1.930   9.707  17.949  0.00  0.00    +0.000 C 
ATOM      4  N   UNL     1       1.087   9.764  19.114  0.00  0.00    +0.000 N 
ATOM      5  C   UNL     1       1.253   8.669  19.950  0.00  0.00    +0.000 C 
ATOM      6  O   UNL     1       0.749   8.595  21.060  0.00  0.00    +0.000 OA
ENDROOT
BRANCH   1  10
ATOM      7  C   UNL     1       2.666   3.303  19.429  0.00  0.00    +0.000 C 
ATOM      8  C   UNL     1       2.016   3.983  18.223  0.00  0.00    +0.000 C 
ATOM      9  C   UNL     1       2.277   5.488  18.179  0.00  0.00    +0.000 C 
ATOM     10  N   UNL     1       1.893   6.218  19.393  0.00  0.00    +0.000 NA
ATOM     11  C   UNL     1       2.331   5.568  20.633  0.00  0.00    +0.000 C 
ATOM     12  C   UNL     1       2.187   4.038  20.685  0.00  0.00    +0.000 C 
BRANCH   7  13
ATOM     13  C   UNL     1       4.205   3.161  19.346  0.00  0.00    +0.000 C 
ATOM     14  O   UNL     1       4.820   2.395  20.085  0.00  0.00    +0.000 OA
BRANCH  13  18
ATOM     15  C   UNL     1       6.530   5.201  16.299  0.00  0.00    +0.000 A 
ATOM     16  C   UNL     1       5.714   4.118  15.982  0.00  0.00    +0.000 A 
ATOM     17  C   UNL     1       4.935   3.489  16.966  0.00  0.00    +0.000 A 
ATOM     18  C   UNL     1       4.973   3.935  18.295  0.00  0.00    +0.000 A 
ATOM     19  C   UNL     1       5.730   5.069  18.589  0.00  0.00    +0.000 A 
ATOM     20  C   UNL     1       6.522   5.689  17.603  0.00  0.00    +0.000 A 
BRANCH  15  22
ATOM     21  C   UNL     1       7.249   4.976  14.030  0.00  0.00    +0.000 C 
ATOM     22  O   UNL     1       7.307   5.665  15.274  0.00  0.00    +0.000 OA
ENDBRANCH  15  22
ENDBRANCH  13  18
ENDBRANCH   7  13
ENDBRANCH   1  10
BRANCH   4  23
ATOM     23  C   UNL     1       0.097  10.813  19.351  0.00  0.00    +0.000 C 
BRANCH  23  24
ATOM     24  C   UNL     1       0.637  12.223  19.588  0.00  0.00    +0.000 A 
ATOM     25  N   UNL     1       0.072  13.241  19.015  0.00  0.00    +0.000 NA
ATOM     26  C   UNL     1       0.594  14.486  19.275  0.00  0.00    +0.000 A 
ATOM     27  C   UNL     1       1.685  14.711  20.024  0.00  0.00    +0.000 A 
ATOM     28  C   UNL     1       2.263  13.556  20.737  0.00  0.00    +0.000 A 
ATOM     29  O   UNL     1       3.175  13.684  21.544  0.00  0.00    +0.000 OA
ATOM     30  N   UNL     1       1.689  12.348  20.452  0.00  0.00    +0.000 N 
ATOM     31  C   UNL     1       2.313  16.058  20.201  0.00  0.00    +0.000 C 
ATOM     32  O   UNL     1       1.707  17.065  19.372  0.00  0.00    +0.000 OA
ATOM     33  C   UNL     1       0.282  16.967  19.372  0.00  0.00    +0.000 C 
ATOM     34  C   UNL     1      -0.140  15.666  18.686  0.00  0.00    +0.000 C 
ATOM     35  H   UNL     1       2.040  11.544  20.955  0.00  0.00    +0.000 HD
ENDBRANCH  23  24
ENDBRANCH   4  23
TORSDOF 6
ENDMDL
MODEL 7
REMARK VINA RESULT:      -9.0      2.714      3.741
REMARK  Name = 
REMARK  7 active torsions:
REMARK  status: ('A' for Active; 'I' for Inactive)
REMARK    1  A    between atoms: C_1  and  O_2
REMARK    2  A    between atoms: O_2  and  C_3
REMARK    3  A    between atoms: C_6  and  C_7
REMARK    4  A    between atoms: C_7  and  C_9
REMARK    5  A    between atoms: N_12  and  C_13
REMARK    6  A    between atoms: N_16  and  C_17
REMARK    7  A    between atoms: C_17  and  C_18
REMARK                            x       y       z     vdW  Elec       q    Type
REMARK                         _______ _______ _______ _____ _____    ______ ____
ROOT
ATOM      1  C   UNL     1       2.281   7.582  19.257  0.00  0.00    +0.000 C 
ATOM      2  C   UNL     1       2.428   8.201  17.849  0.00  0.00    +0.000 C 
ATOM      3  C   UNL     1       1.984   9.654  17.982  0.00  0.00    +0.000 C 
ATOM      4  N   UNL     1       1.132   9.673  19.141  0.00  0.00    +0.000 N 
ATOM      5  C   UNL     1       1.290   8.551  19.942  0.00  0.00    +0.000 C 
ATOM      6  O   UNL     1       0.778   8.441  21.045  0.00  0.00    +0.000 OA
ENDROOT
BRANCH   1  10
ATOM      7  C   UNL     1       2.707   3.205  19.350  0.00  0.00    +0.000 C 
ATOM      8  C   UNL     1       2.145   3.905  18.112  0.00  0.00    +0.000 C 
ATOM      9  C   UNL     1       2.404   5.411  18.114  0.00  0.00    +0.000 C 
ATOM     10  N   UNL     1       1.932   6.119  19.309  0.00  0.00    +0.000 NA
ATOM     11  C   UNL     1       2.279   5.448  20.566  0.00  0.00    +0.000 C 
ATOM     12  C   UNL     1       2.136   3.917  20.581  0.00  0.00    +0.000 C 
BRANCH   7  13
ATOM     13  C   UNL     1       4.249   3.066  19.377  0.00  0.00    +0.000 C 
ATOM     14  O   UNL     1       4.800   2.152  19.985  0.00  0.00    +0.000 OA
BRANCH  13  18
ATOM     15  C   UNL     1       6.560   6.022  17.192  0.00  0.00    +0.000 A 
ATOM     16  C   UNL     1       6.500   6.035  18.583  0.00  0.00    +0.000 A 
ATOM     17  C   UNL     1       5.783   5.052  19.284  0.00  0.00    +0.000 A 
ATOM     18  C   UNL     1       5.101   4.040  18.591  0.00  0.00    +0.000 A 
ATOM     19  C   UNL     1       5.232   3.988  17.203  0.00  0.00    +0.000 A 
ATOM     20  C   UNL     1       5.940   4.983  16.502  0.00  0.00    +0.000 A 
BRANCH  15  22
ATOM     21  C   UNL     1       7.686   8.110  17.492  0.00  0.00    +0.000 C 
ATOM     22  O   UNL     1       7.210   7.084  16.627  0.00  0.00    +0.000 OA
ENDBRANCH  15  22
ENDBRANCH  13  18
ENDBRANCH   7  13
ENDBRANCH   1  10
BRANCH   4  23
ATOM     23  C   UNL     1       0.142  10.716  19.405  0.00  0.00    +0.000 C 
BRANCH  23  24
ATOM     24  C   UNL     1       0.678  12.132  19.617  0.00  0.00    +0.000 A 
ATOM     25  N   UNL     1       0.105  13.139  19.033  0.00  0.00    +0.000 NA
ATOM     26  C   UNL     1       0.624  14.390  19.271  0.00  0.00    +0.000 A 
ATOM     27  C   UNL     1       1.719  14.630  20.008  0.00  0.00    +0.000 A 
ATOM     28  C   UNL     1       2.307  13.489  20.734  0.00  0.00    +0.000 A 
ATOM     29  O   UNL     1       3.225  13.632  21.532  0.00  0.00    +0.000 OA
ATOM     30  N   UNL     1       1.736  12.274  20.471  0.00  0.00    +0.000 N 
ATOM     31  C   UNL     1       2.343  15.982  20.160  0.00  0.00    +0.000 C 
ATOM     32  O   UNL     1       1.726  16.974  19.321  0.00  0.00    +0.000 OA
ATOM     33  C   UNL     1       0.302  16.870  19.332  0.00  0.00    +0.000 C 
ATOM     34  C   UNL     1      -0.120  15.558  18.669  0.00  0.00    +0.000 C 
ATOM     35  H   UNL     1       2.094  11.479  20.984  0.00  0.00    +0.000 HD
ENDBRANCH  23  24
ENDBRANCH   4  23
TORSDOF 6
ENDMDL
MODEL 8
REMARK VINA RESULT:      -8.9      2.815      4.304
REMARK  Name = 
REMARK  7 active torsions:
REMARK  status: ('A' for Active; 'I' for Inactive)
REMARK    1  A    between atoms: C_1  and  O_2
REMARK    2  A    between atoms: O_2  and  C_3
REMARK    3  A    between atoms: C_6  and  C_7
REMARK    4  A    between atoms: C_7  and  C_9
REMARK    5  A    between atoms: N_12  and  C_13
REMARK    6  A    between atoms: N_16  and  C_17
REMARK    7  A    between atoms: C_17  and  C_18
REMARK                            x       y       z     vdW  Elec       q    Type
REMARK                         _______ _______ _______ _____ _____    ______ ____
ROOT
ATOM      1  C   UNL     1       2.356   7.469  19.324  0.00  0.00    +0.000 C 
ATOM      2  C   UNL     1       2.475   7.934  17.855  0.00  0.00    +0.000 C 
ATOM      3  C   UNL     1       2.095   9.411  17.852  0.00  0.00    +0.000 C 
ATOM      4  N   UNL     1       1.289   9.586  19.030  0.00  0.00    +0.000 N 
ATOM      5  C   UNL     1       1.432   8.546  19.938  0.00  0.00    +0.000 C 
ATOM      6  O   UNL     1       0.957   8.572  21.063  0.00  0.00    +0.000 OA
ENDROOT
BRANCH   1  10
ATOM      7  C   UNL     1       2.588   3.094  19.707  0.00  0.00    +0.000 C 
ATOM      8  C   UNL     1       1.891   3.733  18.505  0.00  0.00    +0.000 C 
ATOM      9  C   UNL     1       2.218   5.218  18.352  0.00  0.00    +0.000 C 
ATOM     10  N   UNL     1       1.950   6.036  19.539  0.00  0.00    +0.000 NA
ATOM     11  C   UNL     1       2.437   5.440  20.787  0.00  0.00    +0.000 C 
ATOM     12  C   UNL     1       2.227   3.924  20.943  0.00  0.00    +0.000 C 
BRANCH   7  13
ATOM     13  C   UNL     1       4.110   2.869  19.536  0.00  0.00    +0.000 C 
ATOM     14  O   UNL     1       4.706   2.003  20.171  0.00  0.00    +0.000 OA
BRANCH  13  18
ATOM     15  C   UNL     1       6.438   5.052  16.593  0.00  0.00    +0.000 A 
ATOM     16  C   UNL     1       5.627   3.981  16.224  0.00  0.00    +0.000 A 
ATOM     17  C   UNL     1       4.846   3.306  17.176  0.00  0.00    +0.000 A 
ATOM     18  C   UNL     1       4.878   3.693  18.524  0.00  0.00    +0.000 A 
ATOM     19  C   UNL     1       5.631   4.814  18.871  0.00  0.00    +0.000 A 
ATOM     20  C   UNL     1       6.424   5.481  17.917  0.00  0.00    +0.000 A 
BRANCH  15  22
ATOM     21  C   UNL     1       7.073   5.012  14.288  0.00  0.00    +0.000 C 
ATOM     22  O   UNL     1       7.217   5.564  15.592  0.00  0.00    +0.000 OA
ENDBRANCH  15  22
ENDBRANCH  13  18
ENDBRANCH   7  13
ENDBRANCH   1  10
BRANCH   4  23
ATOM     23  C   UNL     1       0.353  10.693  19.218  0.00  0.00    +0.000 C 
BRANCH  23  24
ATOM     24  C   UNL     1       0.959  12.049  19.579  0.00  0.00    +0.000 A 
ATOM     25  N   UNL     1       1.688  12.687  18.715  0.00  0.00    +0.000 NA
ATOM     26  C   UNL     1       2.196  13.908  19.093  0.00  0.00    +0.000 A 
ATOM     27  C   UNL     1       2.046  14.449  20.311  0.00  0.00    +0.000 A 
ATOM     28  C   UNL     1       1.145  13.756  21.251  0.00  0.00    +0.000 A 
ATOM     29  O   UNL     1       0.843  14.239  22.335  0.00  0.00    +0.000 OA
ATOM     30  N   UNL     1       0.656  12.557  20.812  0.00  0.00    +0.000 N 
ATOM     31  C   UNL     1       2.704  15.721  20.747  0.00  0.00    +0.000 C 
ATOM     32  O   UNL     1       3.627  16.231  19.767  0.00  0.00    +0.000 OA
ATOM     33  C   UNL     1       3.096  16.150  18.444  0.00  0.00    +0.000 C 
ATOM     34  C   UNL     1       2.951  14.682  18.039  0.00  0.00    +0.000 C 
ATOM     35  H   UNL     1       0.005  12.077  21.420  0.00  0.00    +0.000 HD
ENDBRANCH  23  24
ENDBRANCH   4  23
TORSDOF 6
ENDMDL
MODEL 9
REMARK VINA RESULT:      -8.7      2.769      3.947
REMARK  Name = 
REMARK  7 active torsions:
REMARK  status: ('A' for Active; 'I' for Inactive)
REMARK    1  A    between atoms: C_1  and  O_2
REMARK    2  A    between atoms: O_2  and  C_3
REMARK    3  A    between atoms: C_6  and  C_7
REMARK    4  A    between atoms: C_7  and  C_9
REMARK    5  A    between atoms: N_12  and  C_13
REMARK    6  A    between atoms: N_16  and  C_17
REMARK    7  A    between atoms: C_17  and  C_18
REMARK                            x       y       z     vdW  Elec       q    Type
REMARK                         _______ _______ _______ _____ _____    ______ ____
ROOT
ATOM      1  C   UNL     1       2.342   7.553  19.198  0.00  0.00    +0.000 C 
ATOM      2  C   UNL     1       2.353   8.133  17.766  0.00  0.00    +0.000 C 
ATOM      3  C   UNL     1       1.972   9.603  17.906  0.00  0.00    +0.000 C 
ATOM      4  N   UNL     1       1.253   9.680  19.150  0.00  0.00    +0.000 N 
ATOM      5  C   UNL     1       1.462   8.572  19.960  0.00  0.00    +0.000 C 
ATOM      6  O   UNL     1       1.070   8.506  21.115  0.00  0.00    +0.000 OA
ENDROOT
BRANCH   1  10
ATOM      7  C   UNL     1       2.646   3.172  19.432  0.00  0.00    +0.000 C 
ATOM      8  C   UNL     1       2.026   3.843  18.206  0.00  0.00    +0.000 C 
ATOM      9  C   UNL     1       2.328   5.340  18.134  0.00  0.00    +0.000 C 
ATOM     10  N   UNL     1       1.954   6.106  19.328  0.00  0.00    +0.000 NA
ATOM     11  C   UNL     1       2.362   5.470  20.586  0.00  0.00    +0.000 C 
ATOM     12  C   UNL     1       2.176   3.945  20.668  0.00  0.00    +0.000 C 
BRANCH   7  13
ATOM     13  C   UNL     1       4.182   2.986  19.367  0.00  0.00    +0.000 C 
ATOM     14  O   UNL     1       4.735   2.027  19.900  0.00  0.00    +0.000 OA
BRANCH  13  18
ATOM     15  C   UNL     1       6.456   5.973  17.187  0.00  0.00    +0.000 A 
ATOM     16  C   UNL     1       6.405   5.977  18.579  0.00  0.00    +0.000 A 
ATOM     17  C   UNL     1       5.699   4.984  19.277  0.00  0.00    +0.000 A 
ATOM     18  C   UNL     1       5.022   3.971  18.582  0.00  0.00    +0.000 A 
ATOM     19  C   UNL     1       5.144   3.929  17.194  0.00  0.00    +0.000 A 
ATOM     20  C   UNL     1       5.841   4.934  16.495  0.00  0.00    +0.000 A 
BRANCH  15  22
ATOM     21  C   UNL     1       7.698   7.993  17.497  0.00  0.00    +0.000 C 
ATOM     22  O   UNL     1       7.096   7.043  16.625  0.00  0.00    +0.000 OA
ENDBRANCH  15  22
ENDBRANCH  13  18
ENDBRANCH   7  13
ENDBRANCH   1  10
BRANCH   4  23
ATOM     23  C   UNL     1       0.330  10.761  19.491  0.00  0.00    +0.000 C 
BRANCH  23  24
ATOM     24  C   UNL     1       0.809  12.185  19.206  0.00  0.00    +0.000 A 
ATOM     25  N   UNL     1       2.063  12.413  18.960  0.00  0.00    +0.000 NA
ATOM     26  C   UNL     1       2.433  13.711  18.699  0.00  0.00    +0.000 A 
ATOM     27  C   UNL     1       1.600  14.762  18.749  0.00  0.00    +0.000 A 
ATOM     28  C   UNL     1       0.166  14.479  18.945  0.00  0.00    +0.000 A 
ATOM     29  O   UNL     1      -0.684  15.357  18.875  0.00  0.00    +0.000 OA
ATOM     30  N   UNL     1      -0.142  13.167  19.181  0.00  0.00    +0.000 N 
ATOM     31  C   UNL     1       2.039  16.184  18.582  0.00  0.00    +0.000 C 
ATOM     32  O   UNL     1       3.469  16.316  18.499  0.00  0.00    +0.000 OA
ATOM     33  C   UNL     1       4.048  15.315  17.661  0.00  0.00    +0.000 C 
ATOM     34  C   UNL     1       3.873  13.941  18.310  0.00  0.00    +0.000 C 
ATOM     35  H   UNL     1      -1.121  12.937  19.281  0.00  0.00    +0.000 HD
ENDBRANCH  23  24
ENDBRANCH   4  23
TORSDOF 6
ENDMDL
