MODEL 1
REMARK VINA RESULT:      -8.8      0.000      0.000
REMARK  Name = 
REMARK  3 active torsions:
REMARK  status: ('A' for Active; 'I' for Inactive)
REMARK    1  A    between atoms: C_1  and  C_2
REMARK    2  A    between atoms: C_6  and  C_7
REMARK    3  A    between atoms: N_12  and  C_13
REMARK                            x       y       z     vdW  Elec       q    Type
REMARK                         _______ _______ _______ _____ _____    ______ ____
ROOT
ATOM      1  C   UNL     1       0.773  12.125  18.557  0.00  0.00    +0.000 C 
ATOM      2  C   UNL     1       0.905  10.757  19.178  0.00  0.00    +0.000 A 
ATOM      3  C   UNL     1       1.484   9.727  18.412  0.00  0.00    +0.000 A 
ATOM      4  C   UNL     1       1.642   8.448  18.940  0.00  0.00    +0.000 A 
ATOM      5  C   UNL     1       2.246   7.368  18.174  0.00  0.00    +0.000 A 
ATOM      6  C   UNL     1       2.446   6.154  18.720  0.00  0.00    +0.000 A 
ATOM      7  C   UNL     1       2.101   5.901  20.133  0.00  0.00    +0.000 A 
ATOM      8  O   UNL     1       2.372   4.857  20.716  0.00  0.00    +0.000 OA
ATOM      9  O   UNL     1       1.417   6.917  20.797  0.00  0.00    +0.000 OA
ATOM     10  C   UNL     1       1.221   8.204  20.241  0.00  0.00    +0.000 A 
ATOM     11  C   UNL     1       0.629   9.197  21.046  0.00  0.00    +0.000 A 
ATOM     12  C   UNL     1       0.203   8.933  22.365  0.00  0.00    +0.000 A 
ATOM     13  C   UNL     1      -0.375   9.927  23.155  0.00  0.00    +0.000 A 
ATOM     14  C   UNL     1      -0.536  11.205  22.637  0.00  0.00    +0.000 A 
ATOM     15  C   UNL     1      -0.120  11.485  21.331  0.00  0.00    +0.000 A 
ATOM     16  C   UNL     1       0.468  10.498  20.508  0.00  0.00    +0.000 A 
ENDROOT
BRANCH   6  17
ATOM     17  C   UNL     1       3.172   5.171  17.861  0.00  0.00    +0.000 C 
ATOM     18  O   UNL     1       2.552   4.189  17.439  0.00  0.00    +0.000 OA
ATOM     19  N   UNL     1       4.510   5.362  17.551  0.00  0.00    +0.000 N 
ATOM     20  C   UNL     1       5.110   4.388  16.631  0.00  0.00    +0.000 C 
ATOM     21  C   UNL     1       6.405   4.891  15.963  0.00  0.00    +0.000 C 
ATOM     22  N   UNL     1       7.396   5.480  16.885  0.00  0.00    +0.000 NA
ATOM     23  C   UNL     1       8.038   4.463  17.714  0.00  0.00    +0.000 C 
ATOM     24  C   UNL     1       6.729   6.516  17.701  0.00  0.00    +0.000 C 
ATOM     25  C   UNL     1       5.469   6.029  18.446  0.00  0.00    +0.000 C 
ENDBRANCH   6  17
TORSDOF 1
ENDMDL
MODEL 2
REMARK VINA RESULT:      -8.3      3.189      7.945
REMARK  Name = 
REMARK  3 active torsions:
REMARK  status: ('A' for Active; 'I' for Inactive)
REMARK    1  A    between atoms: C_1  and  C_2
REMARK    2  A    between atoms: C_6  and  C_7
REMARK    3  A    between atoms: N_12  and  C_13
REMARK                            x       y       z     vdW  Elec       q    Type
REMARK                         _______ _______ _______ _____ _____    ______ ____
ROOT
ATOM      1  C   UNL     1       2.179   2.599  21.574  0.00  0.00    +0.000 C 
ATOM      2  C   UNL     1       2.266   3.807  20.676  0.00  0.00    +0.000 A 
ATOM      3  C   UNL     1       1.739   5.028  21.142  0.00  0.00    +0.000 A 
ATOM      4  C   UNL     1       1.803   6.177  20.359  0.00  0.00    +0.000 A 
ATOM      5  C   UNL     1       1.275   7.453  20.820  0.00  0.00    +0.000 A 
ATOM      6  C   UNL     1       1.398   8.568  20.076  0.00  0.00    +0.000 A 
ATOM      7  C   UNL     1       2.120   8.533  18.789  0.00  0.00    +0.000 A 
ATOM      8  O   UNL     1       2.369   9.537  18.130  0.00  0.00    +0.000 OA
ATOM      9  O   UNL     1       2.504   7.278  18.325  0.00  0.00    +0.000 OA
ATOM     10  C   UNL     1       2.400   6.103  19.108  0.00  0.00    +0.000 A 
ATOM     11  C   UNL     1       2.935   4.906  18.591  0.00  0.00    +0.000 A 
ATOM     12  C   UNL     1       3.536   4.845  17.316  0.00  0.00    +0.000 A 
ATOM     13  C   UNL     1       4.069   3.656  16.820  0.00  0.00    +0.000 A 
ATOM     14  C   UNL     1       4.010   2.505  17.594  0.00  0.00    +0.000 A 
ATOM     15  C   UNL     1       3.418   2.545  18.860  0.00  0.00    +0.000 A 
ATOM     16  C   UNL     1       2.869   3.736  19.388  0.00  0.00    +0.000 A 
ENDROOT
BRANCH   6  17
ATOM     17  C   UNL     1       0.910   9.827  20.714  0.00  0.00    +0.000 C 
ATOM     18  O   UNL     1       1.307  10.102  21.851  0.00  0.00    +0.000 OA
ATOM     19  N   UNL     1       0.029  10.660  20.040  0.00  0.00    +0.000 N 
ATOM     20  C   UNL     1      -0.326  11.914  20.716  0.00  0.00    +0.000 C 
ATOM     21  C   UNL     1      -0.899  12.983  19.766  0.00  0.00    +0.000 C 
ATOM     22  N   UNL     1      -1.966  12.509  18.862  0.00  0.00    +0.000 NA
ATOM     23  C   UNL     1      -3.214  12.259  19.580  0.00  0.00    +0.000 C 
ATOM     24  C   UNL     1      -1.487  11.304  18.153  0.00  0.00    +0.000 C 
ATOM     25  C   UNL     1      -0.974  10.181  19.077  0.00  0.00    +0.000 C 
ENDBRANCH   6  17
TORSDOF 1
ENDMDL
MODEL 3
REMARK VINA RESULT:      -8.0      3.205      7.417
REMARK  Name = 
REMARK  3 active torsions:
REMARK  status: ('A' for Active; 'I' for Inactive)
REMARK    1  A    between atoms: C_1  and  C_2
REMARK    2  A    between atoms: C_6  and  C_7
REMARK    3  A    between atoms: N_12  and  C_13
REMARK                            x       y       z     vdW  Elec       q    Type
REMARK                         _______ _______ _______ _____ _____    ______ ____
ROOT
ATOM      1  C   UNL     1       4.554   4.988  16.645  0.00  0.00    +0.000 C 
ATOM      2  C   UNL     1       3.741   5.435  17.834  0.00  0.00    +0.000 A 
ATOM      3  C   UNL     1       3.278   6.765  17.867  0.00  0.00    +0.000 A 
ATOM      4  C   UNL     1       2.514   7.228  18.935  0.00  0.00    +0.000 A 
ATOM      5  C   UNL     1       2.014   8.594  18.990  0.00  0.00    +0.000 A 
ATOM      6  C   UNL     1       1.227   9.008  19.999  0.00  0.00    +0.000 A 
ATOM      7  C   UNL     1       0.806   8.067  21.056  0.00  0.00    +0.000 A 
ATOM      8  O   UNL     1      -0.005   8.354  21.929  0.00  0.00    +0.000 OA
ATOM      9  O   UNL     1       1.398   6.806  21.037  0.00  0.00    +0.000 OA
ATOM     10  C   UNL     1       2.210   6.353  19.970  0.00  0.00    +0.000 A 
ATOM     11  C   UNL     1       2.654   5.016  19.989  0.00  0.00    +0.000 A 
ATOM     12  C   UNL     1       2.340   4.139  21.049  0.00  0.00    +0.000 A 
ATOM     13  C   UNL     1       2.780   2.816  21.052  0.00  0.00    +0.000 A 
ATOM     14  C   UNL     1       3.543   2.346  19.991  0.00  0.00    +0.000 A 
ATOM     15  C   UNL     1       3.864   3.200  18.932  0.00  0.00    +0.000 A 
ATOM     16  C   UNL     1       3.433   4.546  18.902  0.00  0.00    +0.000 A 
ENDROOT
BRANCH   6  17
ATOM     17  C   UNL     1       0.698  10.399  19.877  0.00  0.00    +0.000 C 
ATOM     18  O   UNL     1       1.193  11.281  20.586  0.00  0.00    +0.000 OA
ATOM     19  N   UNL     1      -0.328  10.685  18.987  0.00  0.00    +0.000 N 
ATOM     20  C   UNL     1      -0.720  12.096  18.879  0.00  0.00    +0.000 C 
ATOM     21  C   UNL     1      -1.494  12.421  17.586  0.00  0.00    +0.000 C 
ATOM     22  N   UNL     1      -2.607  11.501  17.276  0.00  0.00    +0.000 NA
ATOM     23  C   UNL     1      -3.737  11.692  18.182  0.00  0.00    +0.000 C 
ATOM     24  C   UNL     1      -2.100  10.113  17.312  0.00  0.00    +0.000 C 
ATOM     25  C   UNL     1      -1.384   9.728  18.622  0.00  0.00    +0.000 C 
ENDBRANCH   6  17
TORSDOF 1
ENDMDL
MODEL 4
REMARK VINA RESULT:      -8.0      3.315      8.071
REMARK  Name = 
REMARK  3 active torsions:
REMARK  status: ('A' for Active; 'I' for Inactive)
REMARK    1  A    between atoms: C_1  and  C_2
REMARK    2  A    between atoms: C_6  and  C_7
REMARK    3  A    between atoms: N_12  and  C_13
REMARK                            x       y       z     vdW  Elec       q    Type
REMARK                         _______ _______ _______ _____ _____    ______ ____
ROOT
ATOM      1  C   UNL     1       3.914   3.244  19.824  0.00  0.00    +0.000 C 
ATOM      2  C   UNL     1       3.698   4.569  19.138  0.00  0.00    +0.000 A 
ATOM      3  C   UNL     1       2.807   5.490  19.723  0.00  0.00    +0.000 A 
ATOM      4  C   UNL     1       2.579   6.733  19.138  0.00  0.00    +0.000 A 
ATOM      5  C   UNL     1       1.672   7.706  19.727  0.00  0.00    +0.000 A 
ATOM      6  C   UNL     1       1.508   8.926  19.181  0.00  0.00    +0.000 A 
ATOM      7  C   UNL     1       2.289   9.326  17.994  0.00  0.00    +0.000 A 
ATOM      8  O   UNL     1       2.272  10.461  17.529  0.00  0.00    +0.000 OA
ATOM      9  O   UNL     1       3.054   8.332  17.389  0.00  0.00    +0.000 OA
ATOM     10  C   UNL     1       3.250   7.054  17.965  0.00  0.00    +0.000 A 
ATOM     11  C   UNL     1       4.145   6.167  17.335  0.00  0.00    +0.000 A 
ATOM     12  C   UNL     1       4.817   6.506  16.142  0.00  0.00    +0.000 A 
ATOM     13  C   UNL     1       5.707   5.621  15.532  0.00  0.00    +0.000 A 
ATOM     14  C   UNL     1       5.940   4.380  16.108  0.00  0.00    +0.000 A 
ATOM     15  C   UNL     1       5.283   4.026  17.291  0.00  0.00    +0.000 A 
ATOM     16  C   UNL     1       4.376   4.902  17.930  0.00  0.00    +0.000 A 
ENDROOT
BRANCH   6  17
ATOM     17  C   UNL     1       0.632   9.863  19.945  0.00  0.00    +0.000 C 
ATOM     18  O   UNL     1       0.843  10.013  21.153  0.00  0.00    +0.000 OA
ATOM     19  N   UNL     1      -0.395  10.543  19.307  0.00  0.00    +0.000 N 
ATOM     20  C   UNL     1      -1.146  11.503  20.125  0.00  0.00    +0.000 C 
ATOM     21  C   UNL     1      -1.925  12.542  19.294  0.00  0.00    +0.000 C 
ATOM     22  N   UNL     1      -2.737  11.981  18.196  0.00  0.00    +0.000 NA
ATOM     23  C   UNL     1      -3.913  11.274  18.698  0.00  0.00    +0.000 C 
ATOM     24  C   UNL     1      -1.880  11.105  17.369  0.00  0.00    +0.000 C 
ATOM     25  C   UNL     1      -1.141  10.005  18.158  0.00  0.00    +0.000 C 
ENDBRANCH   6  17
TORSDOF 1
ENDMDL
MODEL 5
REMARK VINA RESULT:      -7.6      2.494      4.104
REMARK  Name = 
REMARK  3 active torsions:
REMARK  status: ('A' for Active; 'I' for Inactive)
REMARK    1  A    between atoms: C_1  and  C_2
REMARK    2  A    between atoms: C_6  and  C_7
REMARK    3  A    between atoms: N_12  and  C_13
REMARK                            x       y       z     vdW  Elec       q    Type
REMARK                         _______ _______ _______ _____ _____    ______ ____
ROOT
ATOM      1  C   UNL     1      -1.082  10.324  23.260  0.00  0.00    +0.000 C 
ATOM      2  C   UNL     1      -0.389  10.153  21.932  0.00  0.00    +0.000 A 
ATOM      3  C   UNL     1       0.457   9.041  21.755  0.00  0.00    +0.000 A 
ATOM      4  C   UNL     1       1.113   8.828  20.546  0.00  0.00    +0.000 A 
ATOM      5  C   UNL     1       1.984   7.682  20.333  0.00  0.00    +0.000 A 
ATOM      6  C   UNL     1       2.563   7.458  19.138  0.00  0.00    +0.000 A 
ATOM      7  C   UNL     1       2.286   8.348  17.994  0.00  0.00    +0.000 A 
ATOM      8  O   UNL     1       2.685   8.125  16.856  0.00  0.00    +0.000 OA
ATOM      9  O   UNL     1       1.547   9.497  18.264  0.00  0.00    +0.000 OA
ATOM     10  C   UNL     1       0.916   9.731  19.509  0.00  0.00    +0.000 A 
ATOM     11  C   UNL     1       0.087  10.864  19.636  0.00  0.00    +0.000 A 
ATOM     12  C   UNL     1      -0.101  11.775  18.575  0.00  0.00    +0.000 A 
ATOM     13  C   UNL     1      -0.931  12.887  18.712  0.00  0.00    +0.000 A 
ATOM     14  C   UNL     1      -1.588  13.107  19.914  0.00  0.00    +0.000 A 
ATOM     15  C   UNL     1      -1.414  12.216  20.977  0.00  0.00    +0.000 A 
ATOM     16  C   UNL     1      -0.579  11.080  20.868  0.00  0.00    +0.000 A 
ENDROOT
BRANCH   6  17
ATOM     17  C   UNL     1       3.344   6.191  19.027  0.00  0.00    +0.000 C 
ATOM     18  O   UNL     1       4.473   6.238  18.525  0.00  0.00    +0.000 OA
ATOM     19  N   UNL     1       2.808   4.992  19.475  0.00  0.00    +0.000 N 
ATOM     20  C   UNL     1       3.686   3.819  19.400  0.00  0.00    +0.000 C 
ATOM     21  C   UNL     1       3.242   2.660  20.314  0.00  0.00    +0.000 C 
ATOM     22  N   UNL     1       1.813   2.301  20.220  0.00  0.00    +0.000 NA
ATOM     23  C   UNL     1       1.504   1.628  18.960  0.00  0.00    +0.000 C 
ATOM     24  C   UNL     1       1.003   3.524  20.404  0.00  0.00    +0.000 C 
ATOM     25  C   UNL     1       1.370   4.682  19.454  0.00  0.00    +0.000 C 
ENDBRANCH   6  17
TORSDOF 1
ENDMDL
MODEL 6
REMARK VINA RESULT:      -7.6      3.536      7.256
REMARK  Name = 
REMARK  3 active torsions:
REMARK  status: ('A' for Active; 'I' for Inactive)
REMARK    1  A    between atoms: C_1  and  C_2
REMARK    2  A    between atoms: C_6  and  C_7
REMARK    3  A    between atoms: N_12  and  C_13
REMARK                            x       y       z     vdW  Elec       q    Type
REMARK                         _______ _______ _______ _____ _____    ______ ____
ROOT
ATOM      1  C   UNL     1       4.561   6.217  16.651  0.00  0.00    +0.000 C 
ATOM      2  C   UNL     1       3.607   6.773  17.679  0.00  0.00    +0.000 A 
ATOM      3  C   UNL     1       3.123   8.084  17.503  0.00  0.00    +0.000 A 
ATOM      4  C   UNL     1       2.231   8.643  18.414  0.00  0.00    +0.000 A 
ATOM      5  C   UNL     1       1.708   9.991  18.251  0.00  0.00    +0.000 A 
ATOM      6  C   UNL     1       0.800  10.495  19.108  0.00  0.00    +0.000 A 
ATOM      7  C   UNL     1       0.274   9.669  20.213  0.00  0.00    +0.000 A 
ATOM      8  O   UNL     1      -0.639  10.031  20.948  0.00  0.00    +0.000 OA
ATOM      9  O   UNL     1       0.884   8.433  20.410  0.00  0.00    +0.000 OA
ATOM     10  C   UNL     1       1.822   7.885  19.503  0.00  0.00    +0.000 A 
ATOM     11  C   UNL     1       2.282   6.572  19.729  0.00  0.00    +0.000 A 
ATOM     12  C   UNL     1       1.860   5.813  20.841  0.00  0.00    +0.000 A 
ATOM     13  C   UNL     1       2.317   4.513  21.050  0.00  0.00    +0.000 A 
ATOM     14  C   UNL     1       3.206   3.947  20.146  0.00  0.00    +0.000 A 
ATOM     15  C   UNL     1       3.636   4.683  19.038  0.00  0.00    +0.000 A 
ATOM     16  C   UNL     1       3.191   6.003  18.802  0.00  0.00    +0.000 A 
ENDROOT
BRANCH   6  17
ATOM     17  C   UNL     1       0.267  11.847  18.764  0.00  0.00    +0.000 C 
ATOM     18  O   UNL     1      -0.819  11.919  18.181  0.00  0.00    +0.000 OA
ATOM     19  N   UNL     1       0.983  12.989  19.092  0.00  0.00    +0.000 N 
ATOM     20  C   UNL     1       0.336  14.271  18.787  0.00  0.00    +0.000 C 
ATOM     21  C   UNL     1       0.927  15.459  19.573  0.00  0.00    +0.000 C 
ATOM     22  N   UNL     1       2.400  15.552  19.551  0.00  0.00    +0.000 NA
ATOM     23  C   UNL     1       2.899  15.972  18.244  0.00  0.00    +0.000 C 
ATOM     24  C   UNL     1       2.965  14.250  19.964  0.00  0.00    +0.000 C 
ATOM     25  C   UNL     1       2.452  13.044  19.149  0.00  0.00    +0.000 C 
ENDBRANCH   6  17
TORSDOF 1
ENDMDL
MODEL 7
REMARK VINA RESULT:      -7.6      1.377      2.625
REMARK  Name = 
REMARK  3 active torsions:
REMARK  status: ('A' for Active; 'I' for Inactive)
REMARK    1  A    between atoms: C_1  and  C_2
REMARK    2  A    between atoms: C_6  and  C_7
REMARK    3  A    between atoms: N_12  and  C_13
REMARK                            x       y       z     vdW  Elec       q    Type
REMARK                         _______ _______ _______ _____ _____    ______ ____
ROOT
ATOM      1  C   UNL     1      -0.245   9.541  23.578  0.00  0.00    +0.000 C 
ATOM      2  C   UNL     1       0.353   9.555  22.194  0.00  0.00    +0.000 A 
ATOM      3  C   UNL     1       0.959   8.378  21.714  0.00  0.00    +0.000 A 
ATOM      4  C   UNL     1       1.516   8.332  20.439  0.00  0.00    +0.000 A 
ATOM      5  C   UNL     1       2.140   7.125  19.914  0.00  0.00    +0.000 A 
ATOM      6  C   UNL     1       2.620   7.079  18.657  0.00  0.00    +0.000 A 
ATOM      7  C   UNL     1       2.479   8.241  17.758  0.00  0.00    +0.000 A 
ATOM      8  O   UNL     1       2.785   8.215  16.571  0.00  0.00    +0.000 OA
ATOM      9  O   UNL     1       1.988   9.413  18.329  0.00  0.00    +0.000 OA
ATOM     10  C   UNL     1       1.461   9.467  19.641  0.00  0.00    +0.000 A 
ATOM     11  C   UNL     1       0.873  10.672  20.076  0.00  0.00    +0.000 A 
ATOM     12  C   UNL     1       0.826  11.819  19.257  0.00  0.00    +0.000 A 
ATOM     13  C   UNL     1       0.235  13.003  19.696  0.00  0.00    +0.000 A 
ATOM     14  C   UNL     1      -0.323  13.058  20.966  0.00  0.00    +0.000 A 
ATOM     15  C   UNL     1      -0.287  11.932  21.793  0.00  0.00    +0.000 A 
ATOM     16  C   UNL     1       0.307  10.719  21.375  0.00  0.00    +0.000 A 
ENDROOT
BRANCH   6  17
ATOM     17  C   UNL     1       3.135   5.750  18.212  0.00  0.00    +0.000 C 
ATOM     18  O   UNL     1       2.403   4.763  18.337  0.00  0.00    +0.000 OA
ATOM     19  N   UNL     1       4.409   5.634  17.674  0.00  0.00    +0.000 N 
ATOM     20  C   UNL     1       4.791   4.303  17.189  0.00  0.00    +0.000 C 
ATOM     21  C   UNL     1       5.977   4.326  16.204  0.00  0.00    +0.000 C 
ATOM     22  N   UNL     1       7.140   5.121  16.644  0.00  0.00    +0.000 NA
ATOM     23  C   UNL     1       7.862   4.469  17.735  0.00  0.00    +0.000 C 
ATOM     24  C   UNL     1       6.677   6.473  17.021  0.00  0.00    +0.000 C 
ATOM     25  C   UNL     1       5.540   6.491  18.062  0.00  0.00    +0.000 C 
ENDBRANCH   6  17
TORSDOF 1
ENDMDL
MODEL 8
REMARK VINA RESULT:      -7.2      3.596      8.309
REMARK  Name = 
REMARK  3 active torsions:
REMARK  status: ('A' for Active; 'I' for Inactive)
REMARK    1  A    between atoms: C_1  and  C_2
REMARK    2  A    between atoms: C_6  and  C_7
REMARK    3  A    between atoms: N_12  and  C_13
REMARK                            x       y       z     vdW  Elec       q    Type
REMARK                         _______ _______ _______ _____ _____    ______ ____
ROOT
ATOM      1  C   UNL     1       2.390   3.576  20.560  0.00  0.00    +0.000 C 
ATOM      2  C   UNL     1       2.322   5.013  20.109  0.00  0.00    +0.000 A 
ATOM      3  C   UNL     1       1.555   5.919  20.868  0.00  0.00    +0.000 A 
ATOM      4  C   UNL     1       1.467   7.259  20.503  0.00  0.00    +0.000 A 
ATOM      5  C   UNL     1       0.690   8.217  21.275  0.00  0.00    +0.000 A 
ATOM      6  C   UNL     1       0.664   9.522  20.944  0.00  0.00    +0.000 A 
ATOM      7  C   UNL     1       1.468  10.024  19.813  0.00  0.00    +0.000 A 
ATOM      8  O   UNL     1       1.580  11.214  19.541  0.00  0.00    +0.000 OA
ATOM      9  O   UNL     1       2.102   9.065  19.026  0.00  0.00    +0.000 OA
ATOM     10  C   UNL     1       2.154   7.694  19.377  0.00  0.00    +0.000 A 
ATOM     11  C   UNL     1       2.929   6.828  18.579  0.00  0.00    +0.000 A 
ATOM     12  C   UNL     1       3.618   7.284  17.436  0.00  0.00    +0.000 A 
ATOM     13  C   UNL     1       4.388   6.418  16.659  0.00  0.00    +0.000 A 
ATOM     14  C   UNL     1       4.481   5.080  17.015  0.00  0.00    +0.000 A 
ATOM     15  C   UNL     1       3.805   4.610  18.144  0.00  0.00    +0.000 A 
ATOM     16  C   UNL     1       3.017   5.463  18.950  0.00  0.00    +0.000 A 
ENDROOT
BRANCH   6  17
ATOM     17  C   UNL     1      -0.084  10.411  21.882  0.00  0.00    +0.000 C 
ATOM     18  O   UNL     1       0.094  10.268  23.096  0.00  0.00    +0.000 OA
ATOM     19  N   UNL     1      -0.958  11.371  21.393  0.00  0.00    +0.000 N 
ATOM     20  C   UNL     1      -1.581  12.251  22.389  0.00  0.00    +0.000 C 
ATOM     21  C   UNL     1      -2.144  13.555  21.791  0.00  0.00    +0.000 C 
ATOM     22  N   UNL     1      -2.985  13.380  20.590  0.00  0.00    +0.000 NA
ATOM     23  C   UNL     1      -4.282  12.790  20.917  0.00  0.00    +0.000 C 
ATOM     24  C   UNL     1      -2.243  12.566  19.605  0.00  0.00    +0.000 C 
ATOM     25  C   UNL     1      -1.728  11.218  20.148  0.00  0.00    +0.000 C 
ENDBRANCH   6  17
TORSDOF 1
ENDMDL
MODEL 9
REMARK VINA RESULT:      -6.9      1.977      2.782
REMARK  Name = 
REMARK  3 active torsions:
REMARK  status: ('A' for Active; 'I' for Inactive)
REMARK    1  A    between atoms: C_1  and  C_2
REMARK    2  A    between atoms: C_6  and  C_7
REMARK    3  A    between atoms: N_12  and  C_13
REMARK                            x       y       z     vdW  Elec       q    Type
REMARK                         _______ _______ _______ _____ _____    ______ ____
ROOT
ATOM      1  C   UNL     1      -0.482  13.320  18.405  0.00  0.00    +0.000 C 
ATOM      2  C   UNL     1      -0.150  12.039  19.129  0.00  0.00    +0.000 A 
ATOM      3  C   UNL     1       0.633  11.076  18.462  0.00  0.00    +0.000 A 
ATOM      4  C   UNL     1       0.979   9.882  19.088  0.00  0.00    +0.000 A 
ATOM      5  C   UNL     1       1.795   8.874  18.426  0.00  0.00    +0.000 A 
ATOM      6  C   UNL     1       2.171   7.751  19.066  0.00  0.00    +0.000 A 
ATOM      7  C   UNL     1       1.805   7.536  20.479  0.00  0.00    +0.000 A 
ATOM      8  O   UNL     1       2.220   6.595  21.147  0.00  0.00    +0.000 OA
ATOM      9  O   UNL     1       0.927   8.459  21.041  0.00  0.00    +0.000 OA
ATOM     10  C   UNL     1       0.543   9.654  20.386  0.00  0.00    +0.000 A 
ATOM     11  C   UNL     1      -0.249  10.580  21.095  0.00  0.00    +0.000 A 
ATOM     12  C   UNL     1      -0.688  10.334  22.413  0.00  0.00    +0.000 A 
ATOM     13  C   UNL     1      -1.464  11.263  23.105  0.00  0.00    +0.000 A 
ATOM     14  C   UNL     1      -1.814  12.457  22.490  0.00  0.00    +0.000 A 
ATOM     15  C   UNL     1      -1.388  12.718  21.184  0.00  0.00    +0.000 A 
ATOM     16  C   UNL     1      -0.602  11.796  20.457  0.00  0.00    +0.000 A 
ENDROOT
BRANCH   6  17
ATOM     17  C   UNL     1       3.094   6.855  18.308  0.00  0.00    +0.000 C 
ATOM     18  O   UNL     1       3.858   7.362  17.479  0.00  0.00    +0.000 OA
ATOM     19  N   UNL     1       3.087   5.486  18.532  0.00  0.00    +0.000 N 
ATOM     20  C   UNL     1       4.089   4.702  17.801  0.00  0.00    +0.000 C 
ATOM     21  C   UNL     1       4.352   3.313  18.417  0.00  0.00    +0.000 C 
ATOM     22  N   UNL     1       3.141   2.529  18.731  0.00  0.00    +0.000 NA
ATOM     23  C   UNL     1       2.485   2.037  17.521  0.00  0.00    +0.000 C 
ATOM     24  C   UNL     1       2.234   3.361  19.549  0.00  0.00    +0.000 C 
ATOM     25  C   UNL     1       1.888   4.730  18.928  0.00  0.00    +0.000 C 
ENDBRANCH   6  17
TORSDOF 1
ENDMDL
