MODEL 1
REMARK VINA RESULT:      -7.8      0.000      0.000
REMARK  Name = 
REMARK  10 active torsions:
REMARK  status: ('A' for Active; 'I' for Inactive)
REMARK    1  A    between atoms: C_1  and  O_2
REMARK    2  A    between atoms: O_2  and  C_3
REMARK    3  A    between atoms: C_12  and  C_13
REMARK    4  A    between atoms: C_13  and  N_14
REMARK    5  A    between atoms: C_15  and  C_17
REMARK    6  A    between atoms: C_17  and  C_18
REMARK    7  A    between atoms: N_24  and  C_25
REMARK    8  A    between atoms: C_25  and  C_26
REMARK    9  A    between atoms: C_26  and  C_27
REMARK   10  A    between atoms: C_26  and  C_28
REMARK                            x       y       z     vdW  Elec       q    Type
REMARK                         _______ _______ _______ _____ _____    ______ ____
ROOT
ATOM      1  N   UNL     1       2.056   8.002  18.048  0.00  0.00    +0.000 N 
ATOM      2  C   UNL     1       1.686   9.324  17.875  0.00  0.00    +0.000 C 
ATOM      3  O   UNL     1       2.478  10.211  17.571  0.00  0.00    +0.000 OA
ATOM      4  H   UNL     1       1.354   7.274  18.035  0.00  0.00    +0.000 HD
ENDROOT
BRANCH   1   5
ATOM      5  C   UNL     1       3.435   7.559  17.917  0.00  0.00    +0.000 C 
BRANCH   5  15
ATOM      6  C   UNL     1       3.003   5.183  18.810  0.00  0.00    +0.000 A 
ATOM      7  C   UNL     1       3.220   3.801  18.753  0.00  0.00    +0.000 A 
ATOM      8  C   UNL     1       4.077   3.250  17.806  0.00  0.00    +0.000 A 
ATOM      9  C   UNL     1       4.708   4.059  16.866  0.00  0.00    +0.000 A 
ATOM     10  C   UNL     1       5.539   3.451  15.906  0.00  0.00    +0.000 A 
ATOM     11  C   UNL     1       6.171   4.211  14.920  0.00  0.00    +0.000 A 
ATOM     12  C   UNL     1       5.969   5.580  14.892  0.00  0.00    +0.000 A 
ATOM     13  C   UNL     1       5.151   6.192  15.852  0.00  0.00    +0.000 A 
ATOM     14  C   UNL     1       4.500   5.465  16.882  0.00  0.00    +0.000 A 
ATOM     15  C   UNL     1       3.658   6.045  17.901  0.00  0.00    +0.000 A 
BRANCH   6  17
ATOM     16  C   UNL     1       1.577   4.887  20.692  0.00  0.00    +0.000 C 
ATOM     17  O   UNL     1       2.112   5.751  19.692  0.00  0.00    +0.000 OA
ENDBRANCH   6  17
ENDBRANCH   5  15
ENDBRANCH   1   5
BRANCH   2  18
ATOM     18  C   UNL     1       0.189   9.577  18.033  0.00  0.00    +0.000 C 
BRANCH  18  19
ATOM     19  C   UNL     1      -0.120  10.807  18.917  0.00  0.00    +0.000 C 
ATOM     20  C   UNL     1      -0.430  10.358  20.374  0.00  0.00    +0.000 C 
ATOM     21  O   UNL     1      -0.163   9.246  20.825  0.00  0.00    +0.000 OA
ATOM     22  N   UNL     1      -0.964  11.300  21.222  0.00  0.00    +0.000 N 
ATOM     23  C   UNL     1      -1.762  12.402  20.732  0.00  0.00    +0.000 C 
ATOM     24  C   UNL     1      -1.359  12.849  19.320  0.00  0.00    +0.000 C 
ATOM     25  N   UNL     1      -1.201  11.724  18.366  0.00  0.00    +0.000 NA
ATOM     26  H   UNL     1      -1.152  10.936  22.149  0.00  0.00    +0.000 HD
BRANCH  25  27
ATOM     27  C   UNL     1      -2.464  11.015  18.084  0.00  0.00    +0.000 C 
BRANCH  27  28
ATOM     28  C   UNL     1      -3.094  11.182  16.670  0.00  0.00    +0.000 C 
ATOM     29  C   UNL     1      -2.802  10.015  15.722  0.00  0.00    +0.000 C 
ATOM     30  C   UNL     1      -4.615  11.326  16.821  0.00  0.00    +0.000 C 
ENDBRANCH  27  28
ENDBRANCH  25  27
ENDBRANCH  18  19
ENDBRANCH   2  18
TORSDOF 7
ENDMDL
MODEL 2
REMARK VINA RESULT:      -7.8      1.259      2.900
REMARK  Name = 
REMARK  10 active torsions:
REMARK  status: ('A' for Active; 'I' for Inactive)
REMARK    1  A    between atoms: C_1  and  O_2
REMARK    2  A    between atoms: O_2  and  C_3
REMARK    3  A    between atoms: C_12  and  C_13
REMARK    4  A    between atoms: C_13  and  N_14
REMARK    5  A    between atoms: C_15  and  C_17
REMARK    6  A    between atoms: C_17  and  C_18
REMARK    7  A    between atoms: N_24  and  C_25
REMARK    8  A    between atoms: C_25  and  C_26
REMARK    9  A    between atoms: C_26  and  C_27
REMARK   10  A    between atoms: C_26  and  C_28
REMARK                            x       y       z     vdW  Elec       q    Type
REMARK                         _______ _______ _______ _____ _____    ______ ____
ROOT
ATOM      1  N   UNL     1       1.692   7.872  18.998  0.00  0.00    +0.000 N 
ATOM      2  C   UNL     1       1.580   8.937  18.123  0.00  0.00    +0.000 C 
ATOM      3  O   UNL     1       2.525   9.382  17.478  0.00  0.00    +0.000 OA
ATOM      4  H   UNL     1       0.864   7.376  19.301  0.00  0.00    +0.000 HD
ENDROOT
BRANCH   1   5
ATOM      5  C   UNL     1       2.961   7.208  19.254  0.00  0.00    +0.000 C 
BRANCH   5  15
ATOM      6  C   UNL     1       4.267   5.963  17.417  0.00  0.00    +0.000 A 
ATOM      7  C   UNL     1       4.518   4.804  16.672  0.00  0.00    +0.000 A 
ATOM      8  C   UNL     1       3.787   3.641  16.889  0.00  0.00    +0.000 A 
ATOM      9  C   UNL     1       2.812   3.593  17.881  0.00  0.00    +0.000 A 
ATOM     10  C   UNL     1       2.121   2.383  18.086  0.00  0.00    +0.000 A 
ATOM     11  C   UNL     1       1.156   2.269  19.089  0.00  0.00    +0.000 A 
ATOM     12  C   UNL     1       0.884   3.365  19.890  0.00  0.00    +0.000 A 
ATOM     13  C   UNL     1       1.561   4.575  19.684  0.00  0.00    +0.000 A 
ATOM     14  C   UNL     1       2.539   4.744  18.669  0.00  0.00    +0.000 A 
ATOM     15  C   UNL     1       3.256   5.969  18.405  0.00  0.00    +0.000 A 
BRANCH   6  17
ATOM     16  C   UNL     1       6.431   6.931  17.208  0.00  0.00    +0.000 C 
ATOM     17  O   UNL     1       5.018   7.107  17.271  0.00  0.00    +0.000 OA
ENDBRANCH   6  17
ENDBRANCH   5  15
ENDBRANCH   1   5
BRANCH   2  18
ATOM     18  C   UNL     1       0.160   9.477  17.978  0.00  0.00    +0.000 C 
BRANCH  18  19
ATOM     19  C   UNL     1      -0.072  10.774  18.786  0.00  0.00    +0.000 C 
ATOM     20  C   UNL     1      -0.414  10.431  20.266  0.00  0.00    +0.000 C 
ATOM     21  O   UNL     1      -0.219   9.333  20.782  0.00  0.00    +0.000 OA
ATOM     22  N   UNL     1      -0.890  11.453  21.054  0.00  0.00    +0.000 N 
ATOM     23  C   UNL     1      -1.615  12.572  20.496  0.00  0.00    +0.000 C 
ATOM     24  C   UNL     1      -1.182  12.910  19.063  0.00  0.00    +0.000 C 
ATOM     25  N   UNL     1      -1.093  11.724  18.176  0.00  0.00    +0.000 NA
ATOM     26  H   UNL     1      -1.103  11.157  22.000  0.00  0.00    +0.000 HD
BRANCH  25  27
ATOM     27  C   UNL     1      -2.397  11.080  17.929  0.00  0.00    +0.000 C 
BRANCH  27  28
ATOM     28  C   UNL     1      -3.002  11.186  16.499  0.00  0.00    +0.000 C 
ATOM     29  C   UNL     1      -2.772   9.943  15.636  0.00  0.00    +0.000 C 
ATOM     30  C   UNL     1      -4.514  11.431  16.619  0.00  0.00    +0.000 C 
ENDBRANCH  27  28
ENDBRANCH  25  27
ENDBRANCH  18  19
ENDBRANCH   2  18
TORSDOF 7
ENDMDL
MODEL 3
REMARK VINA RESULT:      -7.7      1.963      3.963
REMARK  Name = 
REMARK  10 active torsions:
REMARK  status: ('A' for Active; 'I' for Inactive)
REMARK    1  A    between atoms: C_1  and  O_2
REMARK    2  A    between atoms: O_2  and  C_3
REMARK    3  A    between atoms: C_12  and  C_13
REMARK    4  A    between atoms: C_13  and  N_14
REMARK    5  A    between atoms: C_15  and  C_17
REMARK    6  A    between atoms: C_17  and  C_18
REMARK    7  A    between atoms: N_24  and  C_25
REMARK    8  A    between atoms: C_25  and  C_26
REMARK    9  A    between atoms: C_26  and  C_27
REMARK   10  A    between atoms: C_26  and  C_28
REMARK                            x       y       z     vdW  Elec       q    Type
REMARK                         _______ _______ _______ _____ _____    ______ ____
ROOT
ATOM      1  N   UNL     1       2.092   8.117  18.664  0.00  0.00    +0.000 N 
ATOM      2  C   UNL     1       1.255   8.974  19.357  0.00  0.00    +0.000 C 
ATOM      3  O   UNL     1       1.089   8.918  20.572  0.00  0.00    +0.000 OA
ATOM      4  H   UNL     1       2.402   8.356  17.731  0.00  0.00    +0.000 HD
ENDROOT
BRANCH   1   5
ATOM      5  C   UNL     1       2.822   7.045  19.322  0.00  0.00    +0.000 C 
BRANCH   5  15
ATOM      6  C   UNL     1       4.217   5.902  17.485  0.00  0.00    +0.000 A 
ATOM      7  C   UNL     1       4.530   4.775  16.716  0.00  0.00    +0.000 A 
ATOM      8  C   UNL     1       3.841   3.578  16.885  0.00  0.00    +0.000 A 
ATOM      9  C   UNL     1       2.846   3.466  17.852  0.00  0.00    +0.000 A 
ATOM     10  C   UNL     1       2.199   2.225  18.009  0.00  0.00    +0.000 A 
ATOM     11  C   UNL     1       1.218   2.046  18.986  0.00  0.00    +0.000 A 
ATOM     12  C   UNL     1       0.885   3.108  19.809  0.00  0.00    +0.000 A 
ATOM     13  C   UNL     1       1.518   4.349  19.650  0.00  0.00    +0.000 A 
ATOM     14  C   UNL     1       2.510   4.584  18.663  0.00  0.00    +0.000 A 
ATOM     15  C   UNL     1       3.184   5.842  18.449  0.00  0.00    +0.000 A 
BRANCH   6  17
ATOM     16  C   UNL     1       6.335   6.953  17.218  0.00  0.00    +0.000 C 
ATOM     17  O   UNL     1       4.925   7.078  17.387  0.00  0.00    +0.000 OA
ENDBRANCH   6  17
ENDBRANCH   5  15
ENDBRANCH   1   5
BRANCH   2  18
ATOM     18  C   UNL     1       0.602  10.045  18.487  0.00  0.00    +0.000 C 
BRANCH  18  19
ATOM     19  C   UNL     1      -0.758  10.522  19.048  0.00  0.00    +0.000 C 
ATOM     20  C   UNL     1      -1.864  10.387  17.960  0.00  0.00    +0.000 C 
ATOM     21  O   UNL     1      -1.747   9.719  16.936  0.00  0.00    +0.000 OA
ATOM     22  N   UNL     1      -3.071  10.998  18.213  0.00  0.00    +0.000 N 
ATOM     23  C   UNL     1      -3.173  12.167  19.057  0.00  0.00    +0.000 C 
ATOM     24  C   UNL     1      -2.102  12.205  20.156  0.00  0.00    +0.000 C 
ATOM     25  N   UNL     1      -0.734  11.914  19.661  0.00  0.00    +0.000 NA
ATOM     26  H   UNL     1      -3.738  10.880  17.460  0.00  0.00    +0.000 HD
BRANCH  25  27
ATOM     27  C   UNL     1      -0.218  12.939  18.733  0.00  0.00    +0.000 C 
BRANCH  27  28
ATOM     28  C   UNL     1       1.096  13.678  19.121  0.00  0.00    +0.000 C 
ATOM     29  C   UNL     1       1.643  13.283  20.496  0.00  0.00    +0.000 C 
ATOM     30  C   UNL     1       2.164  13.376  18.060  0.00  0.00    +0.000 C 
ENDBRANCH  27  28
ENDBRANCH  25  27
ENDBRANCH  18  19
ENDBRANCH   2  18
TORSDOF 7
ENDMDL
MODEL 4
REMARK VINA RESULT:      -7.6      1.983      8.728
REMARK  Name = 
REMARK  10 active torsions:
REMARK  status: ('A' for Active; 'I' for Inactive)
REMARK    1  A    between atoms: C_1  and  O_2
REMARK    2  A    between atoms: O_2  and  C_3
REMARK    3  A    between atoms: C_12  and  C_13
REMARK    4  A    between atoms: C_13  and  N_14
REMARK    5  A    between atoms: C_15  and  C_17
REMARK    6  A    between atoms: C_17  and  C_18
REMARK    7  A    between atoms: N_24  and  C_25
REMARK    8  A    between atoms: C_25  and  C_26
REMARK    9  A    between atoms: C_26  and  C_27
REMARK   10  A    between atoms: C_26  and  C_28
REMARK                            x       y       z     vdW  Elec       q    Type
REMARK                         _______ _______ _______ _____ _____    ______ ____
ROOT
ATOM      1  N   UNL     1       1.412   8.806  18.970  0.00  0.00    +0.000 N 
ATOM      2  C   UNL     1       2.387   7.952  18.485  0.00  0.00    +0.000 C 
ATOM      3  O   UNL     1       2.939   8.107  17.400  0.00  0.00    +0.000 OA
ATOM      4  H   UNL     1       1.178   8.800  19.954  0.00  0.00    +0.000 HD
ENDROOT
BRANCH   1   5
ATOM      5  C   UNL     1       0.931   9.947  18.207  0.00  0.00    +0.000 C 
BRANCH   5  15
ATOM      6  C   UNL     1       0.005  11.562  19.986  0.00  0.00    +0.000 A 
ATOM      7  C   UNL     1      -1.053  12.298  20.531  0.00  0.00    +0.000 A 
ATOM      8  C   UNL     1      -2.322  12.256  19.962  0.00  0.00    +0.000 A 
ATOM      9  C   UNL     1      -2.558  11.507  18.814  0.00  0.00    +0.000 A 
ATOM     10  C   UNL     1      -3.851  11.522  18.255  0.00  0.00    +0.000 A 
ATOM     11  C   UNL     1      -4.135  10.815  17.085  0.00  0.00    +0.000 A 
ATOM     12  C   UNL     1      -3.125  10.096  16.470  0.00  0.00    +0.000 A 
ATOM     13  C   UNL     1      -1.839  10.068  17.027  0.00  0.00    +0.000 A 
ATOM     14  C   UNL     1      -1.505  10.758  18.222  0.00  0.00    +0.000 A 
ATOM     15  C   UNL     1      -0.202  10.754  18.845  0.00  0.00    +0.000 A 
BRANCH   6  17
ATOM     16  C   UNL     1       1.852  12.940  20.579  0.00  0.00    +0.000 C 
ATOM     17  O   UNL     1       1.285  11.635  20.486  0.00  0.00    +0.000 OA
ENDBRANCH   6  17
ENDBRANCH   5  15
ENDBRANCH   1   5
BRANCH   2  18
ATOM     18  C   UNL     1       2.768   6.831  19.448  0.00  0.00    +0.000 C 
BRANCH  18  19
ATOM     19  C   UNL     1       2.767   5.439  18.775  0.00  0.00    +0.000 C 
ATOM     20  C   UNL     1       2.710   4.320  19.856  0.00  0.00    +0.000 C 
ATOM     21  O   UNL     1       2.396   4.510  21.029  0.00  0.00    +0.000 OA
ATOM     22  N   UNL     1       2.953   3.032  19.440  0.00  0.00    +0.000 N 
ATOM     23  C   UNL     1       3.789   2.744  18.296  0.00  0.00    +0.000 C 
ATOM     24  C   UNL     1       3.746   3.849  17.231  0.00  0.00    +0.000 C 
ATOM     25  N   UNL     1       3.904   5.215  17.789  0.00  0.00    +0.000 NA
ATOM     26  H   UNL     1       2.911   2.358  20.195  0.00  0.00    +0.000 HD
BRANCH  25  27
ATOM     27  C   UNL     1       5.233   5.453  18.384  0.00  0.00    +0.000 C 
BRANCH  27  28
ATOM     28  C   UNL     1       6.434   5.674  17.419  0.00  0.00    +0.000 C 
ATOM     29  C   UNL     1       7.037   7.079  17.493  0.00  0.00    +0.000 C 
ATOM     30  C   UNL     1       7.529   4.650  17.751  0.00  0.00    +0.000 C 
ENDBRANCH  27  28
ENDBRANCH  25  27
ENDBRANCH  18  19
ENDBRANCH   2  18
TORSDOF 7
ENDMDL
MODEL 5
REMARK VINA RESULT:      -7.5      1.783      8.595
REMARK  Name = 
REMARK  10 active torsions:
REMARK  status: ('A' for Active; 'I' for Inactive)
REMARK    1  A    between atoms: C_1  and  O_2
REMARK    2  A    between atoms: O_2  and  C_3
REMARK    3  A    between atoms: C_12  and  C_13
REMARK    4  A    between atoms: C_13  and  N_14
REMARK    5  A    between atoms: C_15  and  C_17
REMARK    6  A    between atoms: C_17  and  C_18
REMARK    7  A    between atoms: N_24  and  C_25
REMARK    8  A    between atoms: C_25  and  C_26
REMARK    9  A    between atoms: C_26  and  C_27
REMARK   10  A    between atoms: C_26  and  C_28
REMARK                            x       y       z     vdW  Elec       q    Type
REMARK                         _______ _______ _______ _____ _____    ______ ____
ROOT
ATOM      1  N   UNL     1       1.125   8.857  18.699  0.00  0.00    +0.000 N 
ATOM      2  C   UNL     1       2.186   8.102  18.231  0.00  0.00    +0.000 C 
ATOM      3  O   UNL     1       2.766   8.337  17.174  0.00  0.00    +0.000 OA
ATOM      4  H   UNL     1       0.853   8.800  19.671  0.00  0.00    +0.000 HD
ENDROOT
BRANCH   1   5
ATOM      5  C   UNL     1       0.582   9.980  17.951  0.00  0.00    +0.000 C 
BRANCH   5  15
ATOM      6  C   UNL     1      -0.496  11.343  19.850  0.00  0.00    +0.000 A 
ATOM      7  C   UNL     1      -1.598  12.013  20.396  0.00  0.00    +0.000 A 
ATOM      8  C   UNL     1      -2.810  12.070  19.717  0.00  0.00    +0.000 A 
ATOM      9  C   UNL     1      -2.943  11.493  18.457  0.00  0.00    +0.000 A 
ATOM     10  C   UNL     1      -4.180  11.606  17.793  0.00  0.00    +0.000 A 
ATOM     11  C   UNL     1      -4.359  11.075  16.514  0.00  0.00    +0.000 A 
ATOM     12  C   UNL     1      -3.299  10.433  15.897  0.00  0.00    +0.000 A 
ATOM     13  C   UNL     1      -2.069  10.309  16.557  0.00  0.00    +0.000 A 
ATOM     14  C   UNL     1      -1.842  10.818  17.862  0.00  0.00    +0.000 A 
ATOM     15  C   UNL     1      -0.602  10.707  18.592  0.00  0.00    +0.000 A 
BRANCH   6  17
ATOM     16  C   UNL     1       0.828  10.555  21.663  0.00  0.00    +0.000 C 
ATOM     17  O   UNL     1       0.733  11.327  20.468  0.00  0.00    +0.000 OA
ENDBRANCH   6  17
ENDBRANCH   5  15
ENDBRANCH   1   5
BRANCH   2  18
ATOM     18  C   UNL     1       2.620   6.985  19.175  0.00  0.00    +0.000 C 
BRANCH  18  19
ATOM     19  C   UNL     1       2.557   5.587  18.516  0.00  0.00    +0.000 C 
ATOM     20  C   UNL     1       2.033   4.535  19.537  0.00  0.00    +0.000 C 
ATOM     21  O   UNL     1       1.463   4.818  20.588  0.00  0.00    +0.000 OA
ATOM     22  N   UNL     1       2.153   3.210  19.190  0.00  0.00    +0.000 N 
ATOM     23  C   UNL     1       3.195   2.744  18.302  0.00  0.00    +0.000 C 
ATOM     24  C   UNL     1       3.617   3.800  17.271  0.00  0.00    +0.000 C 
ATOM     25  N   UNL     1       3.855   5.141  17.859  0.00  0.00    +0.000 NA
ATOM     26  H   UNL     1       1.804   2.581  19.904  0.00  0.00    +0.000 HD
BRANCH  25  27
ATOM     27  C   UNL     1       5.006   5.178  18.783  0.00  0.00    +0.000 C 
BRANCH  27  28
ATOM     28  C   UNL     1       6.345   5.767  18.253  0.00  0.00    +0.000 C 
ATOM     29  C   UNL     1       7.318   4.711  17.722  0.00  0.00    +0.000 C 
ATOM     30  C   UNL     1       6.035   6.764  17.127  0.00  0.00    +0.000 C 
ENDBRANCH  27  28
ENDBRANCH  25  27
ENDBRANCH  18  19
ENDBRANCH   2  18
TORSDOF 7
ENDMDL
MODEL 6
REMARK VINA RESULT:      -7.4      1.445      2.012
REMARK  Name = 
REMARK  10 active torsions:
REMARK  status: ('A' for Active; 'I' for Inactive)
REMARK    1  A    between atoms: C_1  and  O_2
REMARK    2  A    between atoms: O_2  and  C_3
REMARK    3  A    between atoms: C_12  and  C_13
REMARK    4  A    between atoms: C_13  and  N_14
REMARK    5  A    between atoms: C_15  and  C_17
REMARK    6  A    between atoms: C_17  and  C_18
REMARK    7  A    between atoms: N_24  and  C_25
REMARK    8  A    between atoms: C_25  and  C_26
REMARK    9  A    between atoms: C_26  and  C_27
REMARK   10  A    between atoms: C_26  and  C_28
REMARK                            x       y       z     vdW  Elec       q    Type
REMARK                         _______ _______ _______ _____ _____    ______ ____
ROOT
ATOM      1  N   UNL     1       1.945   7.449  19.942  0.00  0.00    +0.000 N 
ATOM      2  C   UNL     1       1.746   8.563  19.145  0.00  0.00    +0.000 C 
ATOM      3  O   UNL     1       2.550   8.937  18.297  0.00  0.00    +0.000 OA
ATOM      4  H   UNL     1       1.164   7.029  20.428  0.00  0.00    +0.000 HD
ENDROOT
BRANCH   1   5
ATOM      5  C   UNL     1       3.154   6.645  19.863  0.00  0.00    +0.000 C 
BRANCH   5  15
ATOM      6  C   UNL     1       2.177   4.398  19.071  0.00  0.00    +0.000 A 
ATOM      7  C   UNL     1       2.155   3.330  18.167  0.00  0.00    +0.000 A 
ATOM      8  C   UNL     1       3.038   3.282  17.093  0.00  0.00    +0.000 A 
ATOM      9  C   UNL     1       3.940   4.318  16.873  0.00  0.00    +0.000 A 
ATOM     10  C   UNL     1       4.791   4.241  15.753  0.00  0.00    +0.000 A 
ATOM     11  C   UNL     1       5.692   5.268  15.465  0.00  0.00    +0.000 A 
ATOM     12  C   UNL     1       5.741   6.375  16.296  0.00  0.00    +0.000 A 
ATOM     13  C   UNL     1       4.904   6.452  17.418  0.00  0.00    +0.000 A 
ATOM     14  C   UNL     1       3.982   5.428  17.760  0.00  0.00    +0.000 A 
ATOM     15  C   UNL     1       3.107   5.450  18.908  0.00  0.00    +0.000 A 
BRANCH   6  17
ATOM     16  C   UNL     1       1.086   3.341  20.902  0.00  0.00    +0.000 C 
ATOM     17  O   UNL     1       1.273   4.506  20.103  0.00  0.00    +0.000 OA
ENDBRANCH   6  17
ENDBRANCH   5  15
ENDBRANCH   1   5
BRANCH   2  18
ATOM     18  C   UNL     1       0.403   9.254  19.365  0.00  0.00    +0.000 C 
BRANCH  18  19
ATOM     19  C   UNL     1       0.336  10.016  20.709  0.00  0.00    +0.000 C 
ATOM     20  C   UNL     1      -0.417   9.164  21.772  0.00  0.00    +0.000 C 
ATOM     21  O   UNL     1      -0.642   7.961  21.660  0.00  0.00    +0.000 OA
ATOM     22  N   UNL     1      -0.779   9.795  22.940  0.00  0.00    +0.000 N 
ATOM     23  C   UNL     1      -1.036  11.217  22.992  0.00  0.00    +0.000 C 
ATOM     24  C   UNL     1      -0.209  12.010  21.971  0.00  0.00    +0.000 C 
ATOM     25  N   UNL     1      -0.229  11.425  20.609  0.00  0.00    +0.000 NA
ATOM     26  H   UNL     1      -1.276   9.186  23.580  0.00  0.00    +0.000 HD
BRANCH  25  27
ATOM     27  C   UNL     1      -1.562  11.462  19.976  0.00  0.00    +0.000 C 
BRANCH  27  28
ATOM     28  C   UNL     1      -1.728  12.302  18.676  0.00  0.00    +0.000 C 
ATOM     29  C   UNL     1      -0.471  13.080  18.278  0.00  0.00    +0.000 C 
ATOM     30  C   UNL     1      -2.110  11.360  17.525  0.00  0.00    +0.000 C 
ENDBRANCH  27  28
ENDBRANCH  25  27
ENDBRANCH  18  19
ENDBRANCH   2  18
TORSDOF 7
ENDMDL
MODEL 7
REMARK VINA RESULT:      -7.3      1.428      1.686
REMARK  Name = 
REMARK  10 active torsions:
REMARK  status: ('A' for Active; 'I' for Inactive)
REMARK    1  A    between atoms: C_1  and  O_2
REMARK    2  A    between atoms: O_2  and  C_3
REMARK    3  A    between atoms: C_12  and  C_13
REMARK    4  A    between atoms: C_13  and  N_14
REMARK    5  A    between atoms: C_15  and  C_17
REMARK    6  A    between atoms: C_17  and  C_18
REMARK    7  A    between atoms: N_24  and  C_25
REMARK    8  A    between atoms: C_25  and  C_26
REMARK    9  A    between atoms: C_26  and  C_27
REMARK   10  A    between atoms: C_26  and  C_28
REMARK                            x       y       z     vdW  Elec       q    Type
REMARK                         _______ _______ _______ _____ _____    ______ ____
ROOT
ATOM      1  N   UNL     1       2.105   7.311  20.030  0.00  0.00    +0.000 N 
ATOM      2  C   UNL     1       1.863   8.363  19.164  0.00  0.00    +0.000 C 
ATOM      3  O   UNL     1       2.593   8.638  18.216  0.00  0.00    +0.000 OA
ATOM      4  H   UNL     1       1.362   6.961  20.620  0.00  0.00    +0.000 HD
ENDROOT
BRANCH   1   5
ATOM      5  C   UNL     1       3.275   6.458  19.906  0.00  0.00    +0.000 C 
BRANCH   5  15
ATOM      6  C   UNL     1       2.162   4.345  18.943  0.00  0.00    +0.000 A 
ATOM      7  C   UNL     1       2.098   3.335  17.976  0.00  0.00    +0.000 A 
ATOM      8  C   UNL     1       3.023   3.276  16.938  0.00  0.00    +0.000 A 
ATOM      9  C   UNL     1       4.013   4.246  16.818  0.00  0.00    +0.000 A 
ATOM     10  C   UNL     1       4.905   4.163  15.731  0.00  0.00    +0.000 A 
ATOM     11  C   UNL     1       5.897   5.128  15.543  0.00  0.00    +0.000 A 
ATOM     12  C   UNL     1       5.994   6.179  16.439  0.00  0.00    +0.000 A 
ATOM     13  C   UNL     1       5.115   6.260  17.528  0.00  0.00    +0.000 A 
ATOM     14  C   UNL     1       4.101   5.297  17.770  0.00  0.00    +0.000 A 
ATOM     15  C   UNL     1       3.179   5.326  18.880  0.00  0.00    +0.000 A 
BRANCH   6  17
ATOM     16  C   UNL     1       1.242   3.463  20.952  0.00  0.00    +0.000 C 
ATOM     17  O   UNL     1       1.223   4.468  19.941  0.00  0.00    +0.000 OA
ENDBRANCH   6  17
ENDBRANCH   5  15
ENDBRANCH   1   5
BRANCH   2  18
ATOM     18  C   UNL     1       0.570   9.121  19.450  0.00  0.00    +0.000 C 
BRANCH  18  19
ATOM     19  C   UNL     1       0.742  10.655  19.357  0.00  0.00    +0.000 C 
ATOM     20  C   UNL     1       0.900  11.265  20.781  0.00  0.00    +0.000 C 
ATOM     21  O   UNL     1       1.163  10.610  21.787  0.00  0.00    +0.000 OA
ATOM     22  N   UNL     1       0.813  12.633  20.891  0.00  0.00    +0.000 N 
ATOM     23  C   UNL     1       0.040  13.426  19.960  0.00  0.00    +0.000 C 
ATOM     24  C   UNL     1      -0.016  12.811  18.555  0.00  0.00    +0.000 C 
ATOM     25  N   UNL     1      -0.339  11.364  18.555  0.00  0.00    +0.000 NA
ATOM     26  H   UNL     1       0.912  12.961  21.845  0.00  0.00    +0.000 HD
BRANCH  25  27
ATOM     27  C   UNL     1      -1.700  11.068  19.043  0.00  0.00    +0.000 C 
BRANCH  27  28
ATOM     28  C   UNL     1      -2.718  10.457  18.037  0.00  0.00    +0.000 C 
ATOM     29  C   UNL     1      -3.790  11.444  17.565  0.00  0.00    +0.000 C 
ATOM     30  C   UNL     1      -1.951   9.939  16.812  0.00  0.00    +0.000 C 
ENDBRANCH  27  28
ENDBRANCH  25  27
ENDBRANCH  18  19
ENDBRANCH   2  18
TORSDOF 7
ENDMDL
MODEL 8
REMARK VINA RESULT:      -7.3      1.901      4.137
REMARK  Name = 
REMARK  10 active torsions:
REMARK  status: ('A' for Active; 'I' for Inactive)
REMARK    1  A    between atoms: C_1  and  O_2
REMARK    2  A    between atoms: O_2  and  C_3
REMARK    3  A    between atoms: C_12  and  C_13
REMARK    4  A    between atoms: C_13  and  N_14
REMARK    5  A    between atoms: C_15  and  C_17
REMARK    6  A    between atoms: C_17  and  C_18
REMARK    7  A    between atoms: N_24  and  C_25
REMARK    8  A    between atoms: C_25  and  C_26
REMARK    9  A    between atoms: C_26  and  C_27
REMARK   10  A    between atoms: C_26  and  C_28
REMARK                            x       y       z     vdW  Elec       q    Type
REMARK                         _______ _______ _______ _____ _____    ______ ____
ROOT
ATOM      1  N   UNL     1       2.618   8.036  18.155  0.00  0.00    +0.000 N 
ATOM      2  C   UNL     1       1.651   8.712  18.879  0.00  0.00    +0.000 C 
ATOM      3  O   UNL     1       1.491   8.567  20.088  0.00  0.00    +0.000 OA
ATOM      4  H   UNL     1       2.889   8.369  17.240  0.00  0.00    +0.000 HD
ENDROOT
BRANCH   1   5
ATOM      5  C   UNL     1       3.507   7.062  18.768  0.00  0.00    +0.000 C 
BRANCH   5  15
ATOM      6  C   UNL     1       4.146   5.205  17.104  0.00  0.00    +0.000 A 
ATOM      7  C   UNL     1       4.044   3.882  16.655  0.00  0.00    +0.000 A 
ATOM      8  C   UNL     1       3.226   2.966  17.309  0.00  0.00    +0.000 A 
ATOM      9  C   UNL     1       2.520   3.335  18.449  0.00  0.00    +0.000 A 
ATOM     10  C   UNL     1       1.732   2.363  19.095  0.00  0.00    +0.000 A 
ATOM     11  C   UNL     1       1.028   2.670  20.262  0.00  0.00    +0.000 A 
ATOM     12  C   UNL     1       1.115   3.949  20.785  0.00  0.00    +0.000 A 
ATOM     13  C   UNL     1       1.889   4.923  20.140  0.00  0.00    +0.000 A 
ATOM     14  C   UNL     1       2.610   4.664  18.945  0.00  0.00    +0.000 A 
ATOM     15  C   UNL     1       3.411   5.632  18.234  0.00  0.00    +0.000 A 
BRANCH   6  17
ATOM     16  C   UNL     1       5.619   5.706  15.304  0.00  0.00    +0.000 C 
ATOM     17  O   UNL     1       4.996   6.115  16.519  0.00  0.00    +0.000 OA
ENDBRANCH   6  17
ENDBRANCH   5  15
ENDBRANCH   1   5
BRANCH   2  18
ATOM     18  C   UNL     1       0.838   9.706  18.056  0.00  0.00    +0.000 C 
BRANCH  18  19
ATOM     19  C   UNL     1      -0.381  10.265  18.827  0.00  0.00    +0.000 C 
ATOM     20  C   UNL     1      -1.631  10.303  17.900  0.00  0.00    +0.000 C 
ATOM     21  O   UNL     1      -1.719   9.697  16.835  0.00  0.00    +0.000 OA
ATOM     22  N   UNL     1      -2.727  11.001  18.352  0.00  0.00    +0.000 N 
ATOM     23  C   UNL     1      -2.599  12.116  19.264  0.00  0.00    +0.000 C 
ATOM     24  C   UNL     1      -1.391  11.984  20.202  0.00  0.00    +0.000 C 
ATOM     25  N   UNL     1      -0.138  11.605  19.504  0.00  0.00    +0.000 NA
ATOM     26  H   UNL     1      -3.498  10.994  17.695  0.00  0.00    +0.000 HD
BRANCH  25  27
ATOM     27  C   UNL     1       0.346  12.640  18.569  0.00  0.00    +0.000 C 
BRANCH  27  28
ATOM     28  C   UNL     1       1.355  13.695  19.110  0.00  0.00    +0.000 C 
ATOM     29  C   UNL     1       0.704  15.020  19.517  0.00  0.00    +0.000 C 
ATOM     30  C   UNL     1       2.080  13.106  20.328  0.00  0.00    +0.000 C 
ENDBRANCH  27  28
ENDBRANCH  25  27
ENDBRANCH  18  19
ENDBRANCH   2  18
TORSDOF 7
ENDMDL
MODEL 9
REMARK VINA RESULT:      -7.3      2.406      4.279
REMARK  Name = 
REMARK  10 active torsions:
REMARK  status: ('A' for Active; 'I' for Inactive)
REMARK    1  A    between atoms: C_1  and  O_2
REMARK    2  A    between atoms: O_2  and  C_3
REMARK    3  A    between atoms: C_12  and  C_13
REMARK    4  A    between atoms: C_13  and  N_14
REMARK    5  A    between atoms: C_15  and  C_17
REMARK    6  A    between atoms: C_17  and  C_18
REMARK    7  A    between atoms: N_24  and  C_25
REMARK    8  A    between atoms: C_25  and  C_26
REMARK    9  A    between atoms: C_26  and  C_27
REMARK   10  A    between atoms: C_26  and  C_28
REMARK                            x       y       z     vdW  Elec       q    Type
REMARK                         _______ _______ _______ _____ _____    ______ ____
ROOT
ATOM      1  N   UNL     1       2.481   8.205  18.253  0.00  0.00    +0.000 N 
ATOM      2  C   UNL     1       1.636   9.263  17.965  0.00  0.00    +0.000 C 
ATOM      3  O   UNL     1       0.562   9.128  17.386  0.00  0.00    +0.000 OA
ATOM      4  H   UNL     1       3.209   8.314  18.947  0.00  0.00    +0.000 HD
ENDROOT
BRANCH   1   5
ATOM      5  C   UNL     1       2.178   6.839  17.857  0.00  0.00    +0.000 C 
BRANCH   5  15
ATOM      6  C   UNL     1       4.526   5.787  17.934  0.00  0.00    +0.000 A 
ATOM      7  C   UNL     1       5.404   4.797  18.393  0.00  0.00    +0.000 A 
ATOM      8  C   UNL     1       4.962   3.784  19.237  0.00  0.00    +0.000 A 
ATOM      9  C   UNL     1       3.641   3.754  19.675  0.00  0.00    +0.000 A 
ATOM     10  C   UNL     1       3.249   2.727  20.556  0.00  0.00    +0.000 A 
ATOM     11  C   UNL     1       1.945   2.668  21.053  0.00  0.00    +0.000 A 
ATOM     12  C   UNL     1       1.034   3.638  20.672  0.00  0.00    +0.000 A 
ATOM     13  C   UNL     1       1.416   4.655  19.787  0.00  0.00    +0.000 A 
ATOM     14  C   UNL     1       2.724   4.750  19.244  0.00  0.00    +0.000 A 
ATOM     15  C   UNL     1       3.166   5.768  18.321  0.00  0.00    +0.000 A 
BRANCH   6  17
ATOM     16  C   UNL     1       6.347   7.110  17.164  0.00  0.00    +0.000 C 
ATOM     17  O   UNL     1       4.948   6.838  17.152  0.00  0.00    +0.000 OA
ENDBRANCH   6  17
ENDBRANCH   5  15
ENDBRANCH   1   5
BRANCH   2  18
ATOM     18  C   UNL     1       2.124  10.611  18.488  0.00  0.00    +0.000 C 
BRANCH  18  19
ATOM     19  C   UNL     1       0.969  11.602  18.757  0.00  0.00    +0.000 C 
ATOM     20  C   UNL     1       1.538  12.999  19.140  0.00  0.00    +0.000 C 
ATOM     21  O   UNL     1       2.702  13.345  18.952  0.00  0.00    +0.000 OA
ATOM     22  N   UNL     1       0.652  13.920  19.650  0.00  0.00    +0.000 N 
ATOM     23  C   UNL     1      -0.537  13.519  20.367  0.00  0.00    +0.000 C 
ATOM     24  C   UNL     1      -1.094  12.170  19.893  0.00  0.00    +0.000 C 
ATOM     25  N   UNL     1      -0.060  11.114  19.766  0.00  0.00    +0.000 NA
ATOM     26  H   UNL     1       1.092  14.801  19.888  0.00  0.00    +0.000 HD
BRANCH  25  27
ATOM     27  C   UNL     1       0.544  10.729  21.057  0.00  0.00    +0.000 C 
BRANCH  27  28
ATOM     28  C   UNL     1       0.122   9.366  21.680  0.00  0.00    +0.000 C 
ATOM     29  C   UNL     1       1.164   8.258  21.506  0.00  0.00    +0.000 C 
ATOM     30  C   UNL     1      -0.138   9.569  23.180  0.00  0.00    +0.000 C 
ENDBRANCH  27  28
ENDBRANCH  25  27
ENDBRANCH  18  19
ENDBRANCH   2  18
TORSDOF 7
ENDMDL
