MODEL 1
REMARK VINA RESULT:      -8.4      0.000      0.000
REMARK  Name = 
REMARK  6 active torsions:
REMARK  status: ('A' for Active; 'I' for Inactive)
REMARK    1  A    between atoms: C_1  and  C_2
REMARK    2  A    between atoms: C_2  and  O_3
REMARK    3  A    between atoms: O_3  and  C_4
REMARK    4  A    between atoms: C_10  and  C_11
REMARK    5  A    between atoms: C_14  and  N_15
REMARK    6  A    between atoms: C_16  and  C_17
REMARK                            x       y       z     vdW  Elec       q    Type
REMARK                         _______ _______ _______ _____ _____    ______ ____
ROOT
ATOM      1  C   UNL     1       5.720   3.383  12.109  0.00  0.00    +0.000 A 
ATOM      2  C   UNL     1       6.869   3.977  11.586  0.00  0.00    +0.000 A 
ATOM      3  C   UNL     1       7.704   4.768  12.384  0.00  0.00    +0.000 A 
ATOM      4  C   UNL     1       7.342   4.939  13.722  0.00  0.00    +0.000 A 
ATOM      5  N   UNL     1       7.938   5.635  14.734  0.00  0.00    +0.000 N 
ATOM      6  N   UNL     1       7.318   5.536  15.917  0.00  0.00    +0.000 NA
ATOM      7  C   UNL     1       6.252   4.751  15.675  0.00  0.00    +0.000 A 
ATOM      8  C   UNL     1       6.214   4.357  14.291  0.00  0.00    +0.000 A 
ATOM      9  C   UNL     1       5.395   3.557  13.464  0.00  0.00    +0.000 A 
ATOM     10  H   UNL     1       8.786   6.185  14.684  0.00  0.00    +0.000 HD
ENDROOT
BRANCH   7  11
ATOM     11  C   UNL     1       5.356   4.364  16.770  0.00  0.00    +0.000 A 
ATOM     12  C   UNL     1       4.074   3.865  16.531  0.00  0.00    +0.000 A 
ATOM     13  C   UNL     1       3.273   3.405  17.583  0.00  0.00    +0.000 A 
ATOM     14  C   UNL     1       3.726   3.446  18.902  0.00  0.00    +0.000 A 
ATOM     15  C   UNL     1       4.982   4.007  19.157  0.00  0.00    +0.000 A 
ATOM     16  C   UNL     1       5.787   4.458  18.103  0.00  0.00    +0.000 A 
BRANCH  14  17
ATOM     17  N   UNL     1       2.996   2.933  19.998  0.00  0.00    +0.000 N 
ATOM     18  C   UNL     1       1.924   3.537  20.635  0.00  0.00    +0.000 C 
ATOM     19  C   UNL     1       1.326   2.687  21.725  0.00  0.00    +0.000 C 
ATOM     20  O   UNL     1       1.464   4.649  20.403  0.00  0.00    +0.000 OA
ATOM     21  H   UNL     1       3.263   2.009  20.314  0.00  0.00    +0.000 HD
ENDBRANCH  14  17
ENDBRANCH   7  11
BRANCH   1  22
ATOM     22  O   UNL     1       4.836   2.605  11.406  0.00  0.00    +0.000 OA
BRANCH  22  24
ATOM     23  C   UNL     1       3.356   3.803   9.956  0.00  0.00    +0.000 C 
ATOM     24  C   UNL     1       3.500   3.095  11.290  0.00  0.00    +0.000 C 
ENDBRANCH  22  24
ENDBRANCH   1  22
TORSDOF 4
ENDMDL
MODEL 2
REMARK VINA RESULT:      -8.2      0.828      1.255
REMARK  Name = 
REMARK  6 active torsions:
REMARK  status: ('A' for Active; 'I' for Inactive)
REMARK    1  A    between atoms: C_1  and  C_2
REMARK    2  A    between atoms: C_2  and  O_3
REMARK    3  A    between atoms: O_3  and  C_4
REMARK    4  A    between atoms: C_10  and  C_11
REMARK    5  A    between atoms: C_14  and  N_15
REMARK    6  A    between atoms: C_16  and  C_17
REMARK                            x       y       z     vdW  Elec       q    Type
REMARK                         _______ _______ _______ _____ _____    ______ ____
ROOT
ATOM      1  C   UNL     1       5.676   3.386  12.135  0.00  0.00    +0.000 A 
ATOM      2  C   UNL     1       6.833   3.955  11.601  0.00  0.00    +0.000 A 
ATOM      3  C   UNL     1       7.685   4.740  12.386  0.00  0.00    +0.000 A 
ATOM      4  C   UNL     1       7.331   4.933  13.724  0.00  0.00    +0.000 A 
ATOM      5  N   UNL     1       7.943   5.630  14.725  0.00  0.00    +0.000 N 
ATOM      6  N   UNL     1       7.326   5.556  15.911  0.00  0.00    +0.000 NA
ATOM      7  C   UNL     1       6.246   4.786  15.683  0.00  0.00    +0.000 A 
ATOM      8  C   UNL     1       6.196   4.376  14.304  0.00  0.00    +0.000 A 
ATOM      9  C   UNL     1       5.360   3.581  13.490  0.00  0.00    +0.000 A 
ATOM     10  H   UNL     1       8.799   6.166  14.665  0.00  0.00    +0.000 HD
ENDROOT
BRANCH   7  11
ATOM     11  C   UNL     1       5.349   4.427  16.786  0.00  0.00    +0.000 A 
ATOM     12  C   UNL     1       5.386   5.092  18.013  0.00  0.00    +0.000 A 
ATOM     13  C   UNL     1       4.453   4.805  19.017  0.00  0.00    +0.000 A 
ATOM     14  C   UNL     1       3.469   3.835  18.826  0.00  0.00    +0.000 A 
ATOM     15  C   UNL     1       3.467   3.115  17.626  0.00  0.00    +0.000 A 
ATOM     16  C   UNL     1       4.394   3.411  16.618  0.00  0.00    +0.000 A 
BRANCH  14  17
ATOM     17  N   UNL     1       2.457   3.548  19.770  0.00  0.00    +0.000 N 
ATOM     18  C   UNL     1       2.604   2.845  20.955  0.00  0.00    +0.000 C 
ATOM     19  C   UNL     1       1.338   2.781  21.767  0.00  0.00    +0.000 C 
ATOM     20  O   UNL     1       3.621   2.293  21.359  0.00  0.00    +0.000 OA
ATOM     21  H   UNL     1       1.544   3.939  19.574  0.00  0.00    +0.000 HD
ENDBRANCH  14  17
ENDBRANCH   7  11
BRANCH   1  22
ATOM     22  O   UNL     1       4.776   2.614  11.445  0.00  0.00    +0.000 OA
BRANCH  22  24
ATOM     23  C   UNL     1       3.375   3.844   9.945  0.00  0.00    +0.000 C 
ATOM     24  C   UNL     1       3.461   3.146  11.289  0.00  0.00    +0.000 C 
ENDBRANCH  22  24
ENDBRANCH   1  22
TORSDOF 4
ENDMDL
MODEL 3
REMARK VINA RESULT:      -7.9      1.081      1.328
REMARK  Name = 
REMARK  6 active torsions:
REMARK  status: ('A' for Active; 'I' for Inactive)
REMARK    1  A    between atoms: C_1  and  C_2
REMARK    2  A    between atoms: C_2  and  O_3
REMARK    3  A    between atoms: O_3  and  C_4
REMARK    4  A    between atoms: C_10  and  C_11
REMARK    5  A    between atoms: C_14  and  N_15
REMARK    6  A    between atoms: C_16  and  C_17
REMARK                            x       y       z     vdW  Elec       q    Type
REMARK                         _______ _______ _______ _____ _____    ______ ____
ROOT
ATOM      1  C   UNL     1       6.192   3.187  12.371  0.00  0.00    +0.000 A 
ATOM      2  C   UNL     1       7.243   3.946  11.856  0.00  0.00    +0.000 A 
ATOM      3  C   UNL     1       7.857   4.948  12.616  0.00  0.00    +0.000 A 
ATOM      4  C   UNL     1       7.376   5.159  13.911  0.00  0.00    +0.000 A 
ATOM      5  N   UNL     1       7.757   6.039  14.881  0.00  0.00    +0.000 N 
ATOM      6  N   UNL     1       7.084   5.923  16.032  0.00  0.00    +0.000 NA
ATOM      7  C   UNL     1       6.204   4.929  15.811  0.00  0.00    +0.000 A 
ATOM      8  C   UNL     1       6.339   4.420  14.472  0.00  0.00    +0.000 A 
ATOM      9  C   UNL     1       5.745   3.410  13.684  0.00  0.00    +0.000 A 
ATOM     10  H   UNL     1       8.488   6.737  14.823  0.00  0.00    +0.000 HD
ENDROOT
BRANCH   7  11
ATOM     11  C   UNL     1       5.322   4.471  16.889  0.00  0.00    +0.000 A 
ATOM     12  C   UNL     1       4.020   4.032  16.639  0.00  0.00    +0.000 A 
ATOM     13  C   UNL     1       3.229   3.502  17.666  0.00  0.00    +0.000 A 
ATOM     14  C   UNL     1       3.713   3.411  18.971  0.00  0.00    +0.000 A 
ATOM     15  C   UNL     1       4.990   3.910  19.244  0.00  0.00    +0.000 A 
ATOM     16  C   UNL     1       5.785   4.431  18.214  0.00  0.00    +0.000 A 
BRANCH  14  17
ATOM     17  N   UNL     1       2.992   2.822  20.034  0.00  0.00    +0.000 N 
ATOM     18  C   UNL     1       2.134   3.466  20.911  0.00  0.00    +0.000 C 
ATOM     19  C   UNL     1       1.470   2.531  21.886  0.00  0.00    +0.000 C 
ATOM     20  O   UNL     1       1.902   4.668  20.960  0.00  0.00    +0.000 OA
ATOM     21  H   UNL     1       3.084   1.818  20.129  0.00  0.00    +0.000 HD
ENDBRANCH  14  17
ENDBRANCH   7  11
BRANCH   1  22
ATOM     22  O   UNL     1       5.521   2.196  11.701  0.00  0.00    +0.000 OA
BRANCH  22  24
ATOM     23  C   UNL     1       6.085  -0.102  11.338  0.00  0.00    +0.000 C 
ATOM     24  C   UNL     1       6.307   1.328  10.884  0.00  0.00    +0.000 C 
ENDBRANCH  22  24
ENDBRANCH   1  22
TORSDOF 4
ENDMDL
MODEL 4
REMARK VINA RESULT:      -7.9      4.341      5.960
REMARK  Name = 
REMARK  6 active torsions:
REMARK  status: ('A' for Active; 'I' for Inactive)
REMARK    1  A    between atoms: C_1  and  C_2
REMARK    2  A    between atoms: C_2  and  O_3
REMARK    3  A    between atoms: O_3  and  C_4
REMARK    4  A    between atoms: C_10  and  C_11
REMARK    5  A    between atoms: C_14  and  N_15
REMARK    6  A    between atoms: C_16  and  C_17
REMARK                            x       y       z     vdW  Elec       q    Type
REMARK                         _______ _______ _______ _____ _____    ______ ____
ROOT
ATOM      1  C   UNL     1       6.874   6.126  16.680  0.00  0.00    +0.000 A 
ATOM      2  C   UNL     1       6.975   4.942  15.949  0.00  0.00    +0.000 A 
ATOM      3  C   UNL     1       5.928   4.014  15.921  0.00  0.00    +0.000 A 
ATOM      4  C   UNL     1       4.779   4.319  16.655  0.00  0.00    +0.000 A 
ATOM      5  N   UNL     1       3.611   3.634  16.824  0.00  0.00    +0.000 N 
ATOM      6  N   UNL     1       2.701   4.265  17.576  0.00  0.00    +0.000 NA
ATOM      7  C   UNL     1       3.298   5.415  17.937  0.00  0.00    +0.000 A 
ATOM      8  C   UNL     1       4.627   5.491  17.389  0.00  0.00    +0.000 A 
ATOM      9  C   UNL     1       5.697   6.412  17.391  0.00  0.00    +0.000 A 
ATOM     10  H   UNL     1       3.365   2.733  16.433  0.00  0.00    +0.000 HD
ENDROOT
BRANCH   7  11
ATOM     11  C   UNL     1       2.569   6.410  18.730  0.00  0.00    +0.000 A 
ATOM     12  C   UNL     1       2.161   6.152  20.040  0.00  0.00    +0.000 A 
ATOM     13  C   UNL     1       1.558   7.150  20.816  0.00  0.00    +0.000 A 
ATOM     14  C   UNL     1       1.332   8.425  20.297  0.00  0.00    +0.000 A 
ATOM     15  C   UNL     1       1.674   8.671  18.963  0.00  0.00    +0.000 A 
ATOM     16  C   UNL     1       2.288   7.675  18.191  0.00  0.00    +0.000 A 
BRANCH  14  17
ATOM     17  N   UNL     1       0.793   9.493  21.049  0.00  0.00    +0.000 N 
ATOM     18  C   UNL     1      -0.218   9.415  21.993  0.00  0.00    +0.000 C 
ATOM     19  C   UNL     1      -0.506  10.731  22.664  0.00  0.00    +0.000 C 
ATOM     20  O   UNL     1      -0.866   8.419  22.293  0.00  0.00    +0.000 OA
ATOM     21  H   UNL     1       1.227  10.397  20.909  0.00  0.00    +0.000 HD
ENDBRANCH  14  17
ENDBRANCH   7  11
BRANCH   1  22
ATOM     22  O   UNL     1       7.848   7.088  16.778  0.00  0.00    +0.000 OA
BRANCH  22  24
ATOM     23  C   UNL     1       8.235   9.154  17.922  0.00  0.00    +0.000 C 
ATOM     24  C   UNL     1       8.063   7.654  18.071  0.00  0.00    +0.000 C 
ENDBRANCH  22  24
ENDBRANCH   1  22
TORSDOF 4
ENDMDL
MODEL 5
REMARK VINA RESULT:      -7.7      1.084      1.687
REMARK  Name = 
REMARK  6 active torsions:
REMARK  status: ('A' for Active; 'I' for Inactive)
REMARK    1  A    between atoms: C_1  and  C_2
REMARK    2  A    between atoms: C_2  and  O_3
REMARK    3  A    between atoms: O_3  and  C_4
REMARK    4  A    between atoms: C_10  and  C_11
REMARK    5  A    between atoms: C_14  and  N_15
REMARK    6  A    between atoms: C_16  and  C_17
REMARK                            x       y       z     vdW  Elec       q    Type
REMARK                         _______ _______ _______ _____ _____    ______ ____
ROOT
ATOM      1  C   UNL     1       6.227   3.201  12.315  0.00  0.00    +0.000 A 
ATOM      2  C   UNL     1       7.187   4.050  11.761  0.00  0.00    +0.000 A 
ATOM      3  C   UNL     1       7.787   5.060  12.521  0.00  0.00    +0.000 A 
ATOM      4  C   UNL     1       7.388   5.187  13.854  0.00  0.00    +0.000 A 
ATOM      5  N   UNL     1       7.779   6.053  14.833  0.00  0.00    +0.000 N 
ATOM      6  N   UNL     1       7.201   5.846  16.022  0.00  0.00    +0.000 NA
ATOM      7  C   UNL     1       6.374   4.804  15.819  0.00  0.00    +0.000 A 
ATOM      8  C   UNL     1       6.445   4.358  14.453  0.00  0.00    +0.000 A 
ATOM      9  C   UNL     1       5.862   3.341  13.664  0.00  0.00    +0.000 A 
ATOM     10  H   UNL     1       8.458   6.800  14.755  0.00  0.00    +0.000 HD
ENDROOT
BRANCH   7  11
ATOM     11  C   UNL     1       5.603   4.244  16.934  0.00  0.00    +0.000 A 
ATOM     12  C   UNL     1       6.012   4.394  18.261  0.00  0.00    +0.000 A 
ATOM     13  C   UNL     1       5.210   3.943  19.317  0.00  0.00    +0.000 A 
ATOM     14  C   UNL     1       3.987   3.317  19.073  0.00  0.00    +0.000 A 
ATOM     15  C   UNL     1       3.602   3.102  17.746  0.00  0.00    +0.000 A 
ATOM     16  C   UNL     1       4.400   3.563  16.690  0.00  0.00    +0.000 A 
BRANCH  14  17
ATOM     17  N   UNL     1       3.102   2.904  20.094  0.00  0.00    +0.000 N 
ATOM     18  C   UNL     1       1.991   3.592  20.557  0.00  0.00    +0.000 C 
ATOM     19  C   UNL     1       1.220   2.836  21.606  0.00  0.00    +0.000 C 
ATOM     20  O   UNL     1       1.621   4.707  20.209  0.00  0.00    +0.000 OA
ATOM     21  H   UNL     1       3.279   1.989  20.491  0.00  0.00    +0.000 HD
ENDBRANCH  14  17
ENDBRANCH   7  11
BRANCH   1  22
ATOM     22  O   UNL     1       5.576   2.194  11.649  0.00  0.00    +0.000 OA
BRANCH  22  24
ATOM     23  C   UNL     1       6.092  -0.122  11.332  0.00  0.00    +0.000 C 
ATOM     24  C   UNL     1       6.387   1.298  10.888  0.00  0.00    +0.000 C 
ENDBRANCH  22  24
ENDBRANCH   1  22
TORSDOF 4
ENDMDL
MODEL 6
REMARK VINA RESULT:      -7.7      5.075      6.562
REMARK  Name = 
REMARK  6 active torsions:
REMARK  status: ('A' for Active; 'I' for Inactive)
REMARK    1  A    between atoms: C_1  and  C_2
REMARK    2  A    between atoms: C_2  and  O_3
REMARK    3  A    between atoms: O_3  and  C_4
REMARK    4  A    between atoms: C_10  and  C_11
REMARK    5  A    between atoms: C_14  and  N_15
REMARK    6  A    between atoms: C_16  and  C_17
REMARK                            x       y       z     vdW  Elec       q    Type
REMARK                         _______ _______ _______ _____ _____    ______ ____
ROOT
ATOM      1  C   UNL     1       6.717   6.174  16.843  0.00  0.00    +0.000 A 
ATOM      2  C   UNL     1       6.707   4.897  16.282  0.00  0.00    +0.000 A 
ATOM      3  C   UNL     1       5.565   4.089  16.336  0.00  0.00    +0.000 A 
ATOM      4  C   UNL     1       4.438   4.610  16.975  0.00  0.00    +0.000 A 
ATOM      5  N   UNL     1       3.198   4.082  17.186  0.00  0.00    +0.000 N 
ATOM      6  N   UNL     1       2.343   4.903  17.809  0.00  0.00    +0.000 NA
ATOM      7  C   UNL     1       3.053   6.023  18.036  0.00  0.00    +0.000 A 
ATOM      8  C   UNL     1       4.396   5.882  17.538  0.00  0.00    +0.000 A 
ATOM      9  C   UNL     1       5.560   6.678  17.460  0.00  0.00    +0.000 A 
ATOM     10  H   UNL     1       2.865   3.167  16.910  0.00  0.00    +0.000 HD
ENDROOT
BRANCH   7  11
ATOM     11  C   UNL     1       2.416   7.189  18.658  0.00  0.00    +0.000 A 
ATOM     12  C   UNL     1       2.063   8.317  17.916  0.00  0.00    +0.000 A 
ATOM     13  C   UNL     1       1.363   9.377  18.507  0.00  0.00    +0.000 A 
ATOM     14  C   UNL     1       1.013   9.342  19.856  0.00  0.00    +0.000 A 
ATOM     15  C   UNL     1       1.423   8.246  20.623  0.00  0.00    +0.000 A 
ATOM     16  C   UNL     1       2.114   7.181  20.028  0.00  0.00    +0.000 A 
BRANCH  14  17
ATOM     17  N   UNL     1       0.248  10.345  20.493  0.00  0.00    +0.000 N 
ATOM     18  C   UNL     1       0.615  11.666  20.694  0.00  0.00    +0.000 C 
ATOM     19  C   UNL     1      -0.465  12.489  21.344  0.00  0.00    +0.000 C 
ATOM     20  O   UNL     1       1.692  12.179  20.415  0.00  0.00    +0.000 OA
ATOM     21  H   UNL     1      -0.681  10.072  20.790  0.00  0.00    +0.000 HD
ENDBRANCH  14  17
ENDBRANCH   7  11
BRANCH   1  22
ATOM     22  O   UNL     1       7.787   7.032  16.851  0.00  0.00    +0.000 OA
BRANCH  22  24
ATOM     23  C   UNL     1       8.176   9.150  17.897  0.00  0.00    +0.000 C 
ATOM     24  C   UNL     1       8.108   7.648  18.098  0.00  0.00    +0.000 C 
ENDBRANCH  22  24
ENDBRANCH   1  22
TORSDOF 4
ENDMDL
MODEL 7
REMARK VINA RESULT:      -7.7      4.942      7.098
REMARK  Name = 
REMARK  6 active torsions:
REMARK  status: ('A' for Active; 'I' for Inactive)
REMARK    1  A    between atoms: C_1  and  C_2
REMARK    2  A    between atoms: C_2  and  O_3
REMARK    3  A    between atoms: O_3  and  C_4
REMARK    4  A    between atoms: C_10  and  C_11
REMARK    5  A    between atoms: C_14  and  N_15
REMARK    6  A    between atoms: C_16  and  C_17
REMARK                            x       y       z     vdW  Elec       q    Type
REMARK                         _______ _______ _______ _____ _____    ______ ____
ROOT
ATOM      1  C   UNL     1       2.451   3.135  18.588  0.00  0.00    +0.000 A 
ATOM      2  C   UNL     1       3.547   2.696  17.846  0.00  0.00    +0.000 A 
ATOM      3  C   UNL     1       4.392   3.602  17.194  0.00  0.00    +0.000 A 
ATOM      4  C   UNL     1       4.094   4.962  17.315  0.00  0.00    +0.000 A 
ATOM      5  N   UNL     1       4.713   6.068  16.811  0.00  0.00    +0.000 N 
ATOM      6  N   UNL     1       4.159   7.231  17.177  0.00  0.00    +0.000 NA
ATOM      7  C   UNL     1       3.113   6.879  17.947  0.00  0.00    +0.000 A 
ATOM      8  C   UNL     1       3.019   5.447  18.054  0.00  0.00    +0.000 A 
ATOM      9  C   UNL     1       2.189   4.509  18.708  0.00  0.00    +0.000 A 
ATOM     10  H   UNL     1       5.536   6.096  16.222  0.00  0.00    +0.000 HD
ENDROOT
BRANCH   7  11
ATOM     11  C   UNL     1       2.290   7.909  18.591  0.00  0.00    +0.000 A 
ATOM     12  C   UNL     1       1.761   8.983  17.873  0.00  0.00    +0.000 A 
ATOM     13  C   UNL     1       0.893   9.898  18.482  0.00  0.00    +0.000 A 
ATOM     14  C   UNL     1       0.546   9.772  19.827  0.00  0.00    +0.000 A 
ATOM     15  C   UNL     1       1.126   8.739  20.571  0.00  0.00    +0.000 A 
ATOM     16  C   UNL     1       1.985   7.817  19.958  0.00  0.00    +0.000 A 
BRANCH  14  17
ATOM     17  N   UNL     1      -0.377  10.619  20.481  0.00  0.00    +0.000 N 
ATOM     18  C   UNL     1      -0.082  11.754  21.220  0.00  0.00    +0.000 C 
ATOM     19  C   UNL     1      -1.307  12.470  21.723  0.00  0.00    +0.000 C 
ATOM     20  O   UNL     1       1.034  12.184  21.491  0.00  0.00    +0.000 OA
ATOM     21  H   UNL     1      -1.355  10.391  20.353  0.00  0.00    +0.000 HD
ENDBRANCH  14  17
ENDBRANCH   7  11
BRANCH   1  22
ATOM     22  O   UNL     1       1.562   2.326  19.250  0.00  0.00    +0.000 OA
BRANCH  22  24
ATOM     23  C   UNL     1       1.893   2.585  21.606  0.00  0.00    +0.000 C 
ATOM     24  C   UNL     1       0.969   2.858  20.434  0.00  0.00    +0.000 C 
ENDBRANCH  22  24
ENDBRANCH   1  22
TORSDOF 4
ENDMDL
MODEL 8
REMARK VINA RESULT:      -7.7      1.473      1.695
REMARK  Name = 
REMARK  6 active torsions:
REMARK  status: ('A' for Active; 'I' for Inactive)
REMARK    1  A    between atoms: C_1  and  C_2
REMARK    2  A    between atoms: C_2  and  O_3
REMARK    3  A    between atoms: O_3  and  C_4
REMARK    4  A    between atoms: C_10  and  C_11
REMARK    5  A    between atoms: C_14  and  N_15
REMARK    6  A    between atoms: C_16  and  C_17
REMARK                            x       y       z     vdW  Elec       q    Type
REMARK                         _______ _______ _______ _____ _____    ______ ____
ROOT
ATOM      1  C   UNL     1       6.203   3.263  12.328  0.00  0.00    +0.000 A 
ATOM      2  C   UNL     1       7.330   3.999  11.961  0.00  0.00    +0.000 A 
ATOM      3  C   UNL     1       7.868   4.975  12.809  0.00  0.00    +0.000 A 
ATOM      4  C   UNL     1       7.232   5.183  14.036  0.00  0.00    +0.000 A 
ATOM      5  N   UNL     1       7.510   6.041  15.059  0.00  0.00    +0.000 N 
ATOM      6  N   UNL     1       6.694   5.929  16.115  0.00  0.00    +0.000 NA
ATOM      7  C   UNL     1       5.825   4.962  15.769  0.00  0.00    +0.000 A 
ATOM      8  C   UNL     1       6.115   4.465  14.450  0.00  0.00    +0.000 A 
ATOM      9  C   UNL     1       5.600   3.481  13.577  0.00  0.00    +0.000 A 
ATOM     10  H   UNL     1       8.260   6.719  15.106  0.00  0.00    +0.000 HD
ENDROOT
BRANCH   7  11
ATOM     11  C   UNL     1       4.801   4.514  16.720  0.00  0.00    +0.000 A 
ATOM     12  C   UNL     1       4.553   3.159  16.950  0.00  0.00    +0.000 A 
ATOM     13  C   UNL     1       3.645   2.752  17.936  0.00  0.00    +0.000 A 
ATOM     14  C   UNL     1       2.952   3.687  18.705  0.00  0.00    +0.000 A 
ATOM     15  C   UNL     1       3.144   5.046  18.434  0.00  0.00    +0.000 A 
ATOM     16  C   UNL     1       4.060   5.453  17.455  0.00  0.00    +0.000 A 
BRANCH  14  17
ATOM     17  N   UNL     1       2.078   3.341  19.760  0.00  0.00    +0.000 N 
ATOM     18  C   UNL     1       2.429   2.781  20.978  0.00  0.00    +0.000 C 
ATOM     19  C   UNL     1       1.259   2.602  21.909  0.00  0.00    +0.000 C 
ATOM     20  O   UNL     1       3.550   2.428  21.328  0.00  0.00    +0.000 OA
ATOM     21  H   UNL     1       1.101   3.569  19.620  0.00  0.00    +0.000 HD
ENDBRANCH  14  17
ENDBRANCH   7  11
BRANCH   1  22
ATOM     22  O   UNL     1       5.598   2.299  11.563  0.00  0.00    +0.000 OA
BRANCH  22  24
ATOM     23  C   UNL     1       6.075  -0.034  11.315  0.00  0.00    +0.000 C 
ATOM     24  C   UNL     1       6.458   1.374  10.898  0.00  0.00    +0.000 C 
ENDBRANCH  22  24
ENDBRANCH   1  22
TORSDOF 4
ENDMDL
MODEL 9
REMARK VINA RESULT:      -7.7      5.216      6.693
REMARK  Name = 
REMARK  6 active torsions:
REMARK  status: ('A' for Active; 'I' for Inactive)
REMARK    1  A    between atoms: C_1  and  C_2
REMARK    2  A    between atoms: C_2  and  O_3
REMARK    3  A    between atoms: O_3  and  C_4
REMARK    4  A    between atoms: C_10  and  C_11
REMARK    5  A    between atoms: C_14  and  N_15
REMARK    6  A    between atoms: C_16  and  C_17
REMARK                            x       y       z     vdW  Elec       q    Type
REMARK                         _______ _______ _______ _____ _____    ______ ____
ROOT
ATOM      1  C   UNL     1       6.695   6.285  16.923  0.00  0.00    +0.000 A 
ATOM      2  C   UNL     1       6.682   4.963  16.479  0.00  0.00    +0.000 A 
ATOM      3  C   UNL     1       5.531   4.173  16.587  0.00  0.00    +0.000 A 
ATOM      4  C   UNL     1       4.398   4.759  17.156  0.00  0.00    +0.000 A 
ATOM      5  N   UNL     1       3.149   4.263  17.392  0.00  0.00    +0.000 N 
ATOM      6  N   UNL     1       2.292   5.144  17.923  0.00  0.00    +0.000 NA
ATOM      7  C   UNL     1       3.011   6.273  18.060  0.00  0.00    +0.000 A 
ATOM      8  C   UNL     1       4.360   6.077  17.600  0.00  0.00    +0.000 A 
ATOM      9  C   UNL     1       5.533   6.853  17.471  0.00  0.00    +0.000 A 
ATOM     10  H   UNL     1       2.812   3.329  17.194  0.00  0.00    +0.000 HD
ENDROOT
BRANCH   7  11
ATOM     11  C   UNL     1       2.375   7.496  18.563  0.00  0.00    +0.000 A 
ATOM     12  C   UNL     1       2.156   8.604  17.741  0.00  0.00    +0.000 A 
ATOM     13  C   UNL     1       1.456   9.722  18.211  0.00  0.00    +0.000 A 
ATOM     14  C   UNL     1       0.971   9.768  19.518  0.00  0.00    +0.000 A 
ATOM     15  C   UNL     1       1.246   8.692  20.369  0.00  0.00    +0.000 A 
ATOM     16  C   UNL     1       1.937   7.569  19.895  0.00  0.00    +0.000 A 
BRANCH  14  17
ATOM     17  N   UNL     1       0.198  10.834  20.030  0.00  0.00    +0.000 N 
ATOM     18  C   UNL     1      -1.112  11.142  19.699  0.00  0.00    +0.000 C 
ATOM     19  C   UNL     1      -1.664  12.304  20.482  0.00  0.00    +0.000 C 
ATOM     20  O   UNL     1      -1.807  10.584  18.858  0.00  0.00    +0.000 OA
ATOM     21  H   UNL     1       0.640  11.400  20.744  0.00  0.00    +0.000 HD
ENDBRANCH  14  17
ENDBRANCH   7  11
BRANCH   1  22
ATOM     22  O   UNL     1       7.773   7.131  16.872  0.00  0.00    +0.000 OA
BRANCH  22  24
ATOM     23  C   UNL     1       8.235   9.246  17.894  0.00  0.00    +0.000 C 
ATOM     24  C   UNL     1       8.167   7.745  18.099  0.00  0.00    +0.000 C 
ENDBRANCH  22  24
ENDBRANCH   1  22
TORSDOF 4
ENDMDL
