MODEL 1
REMARK VINA RESULT:      -6.4      0.000      0.000
REMARK  Name = 
REMARK  3 active torsions:
REMARK  status: ('A' for Active; 'I' for Inactive)
REMARK    1  A    between atoms: S_2  and  N_4
REMARK    2  A    between atoms: S_2  and  C_10
REMARK    3  A    between atoms: N_4  and  C_5
REMARK                            x       y       z     vdW  Elec       q    Type
REMARK                         _______ _______ _______ _____ _____    ______ ____
ROOT
ATOM      1  O   UNL     1       7.624   4.462  16.731  0.00  0.00    +0.000 OA
ATOM      2  S   UNL     1       6.853   5.671  16.574  0.00  0.00    +0.000 S 
ATOM      3  O   UNL     1       7.391   6.968  16.929  0.00  0.00    +0.000 OA
ENDROOT
BRANCH   2   4
ATOM      4  C   UNL     1       5.280   5.500  17.418  0.00  0.00    +0.000 C 
ATOM      5  C   UNL     1       5.498   5.392  18.929  0.00  0.00    +0.000 C 
ATOM      6  C   UNL     1       4.163   5.227  19.637  0.00  0.00    +0.000 C 
ATOM      7  O   UNL     1       3.458   4.101  19.119  0.00  0.00    +0.000 OA
ATOM      8  C   UNL     1       3.168   4.224  17.728  0.00  0.00    +0.000 C 
ATOM      9  C   UNL     1       4.452   4.322  16.917  0.00  0.00    +0.000 C 
ENDBRANCH   2   4
BRANCH   2  10
ATOM     10  N   UNL     1       6.385   5.786  14.948  0.00  0.00    +0.000 NA
ATOM     11  H   UNL     1       6.749   6.645  14.535  0.00  0.00    +0.000 HD
BRANCH  10  12
ATOM     12  C   UNL     1       6.737   4.606  14.111  0.00  0.00    +0.000 C 
ATOM     13  C   UNL     1       5.472   3.967  13.542  0.00  0.00    +0.000 C 
ATOM     14  C   UNL     1       5.957   3.195  12.320  0.00  0.00    +0.000 C 
ATOM     15  C   UNL     1       7.206   3.922  11.829  0.00  0.00    +0.000 C 
ATOM     16  C   UNL     1       7.495   5.013  12.850  0.00  0.00    +0.000 C 
ENDBRANCH  10  12
ENDBRANCH   2  10
TORSDOF 3
ENDMDL
MODEL 2
REMARK VINA RESULT:      -6.3      1.090      1.460
REMARK  Name = 
REMARK  3 active torsions:
REMARK  status: ('A' for Active; 'I' for Inactive)
REMARK    1  A    between atoms: S_2  and  N_4
REMARK    2  A    between atoms: S_2  and  C_10
REMARK    3  A    between atoms: N_4  and  C_5
REMARK                            x       y       z     vdW  Elec       q    Type
REMARK                         _______ _______ _______ _____ _____    ______ ____
ROOT
ATOM      1  O   UNL     1       7.942   4.369  17.343  0.00  0.00    +0.000 OA
ATOM      2  S   UNL     1       7.234   5.618  17.209  0.00  0.00    +0.000 S 
ATOM      3  O   UNL     1       7.728   6.842  17.807  0.00  0.00    +0.000 OA
ENDROOT
BRANCH   2   4
ATOM      4  C   UNL     1       5.536   5.413  17.748  0.00  0.00    +0.000 C 
ATOM      5  C   UNL     1       4.706   6.641  17.366  0.00  0.00    +0.000 C 
ATOM      6  C   UNL     1       3.273   6.470  17.843  0.00  0.00    +0.000 C 
ATOM      7  O   UNL     1       3.240   6.221  19.247  0.00  0.00    +0.000 OA
ATOM      8  C   UNL     1       3.935   5.032  19.613  0.00  0.00    +0.000 C 
ATOM      9  C   UNL     1       5.408   5.132  19.242  0.00  0.00    +0.000 C 
ENDBRANCH   2   4
BRANCH   2  10
ATOM     10  N   UNL     1       7.055   5.945  15.554  0.00  0.00    +0.000 NA
ATOM     11  H   UNL     1       7.760   6.615  15.247  0.00  0.00    +0.000 HD
BRANCH  10  12
ATOM     12  C   UNL     1       7.051   4.742  14.676  0.00  0.00    +0.000 C 
ATOM     13  C   UNL     1       5.617   4.327  14.356  0.00  0.00    +0.000 C 
ATOM     14  C   UNL     1       5.737   3.514  13.072  0.00  0.00    +0.000 C 
ATOM     15  C   UNL     1       6.976   4.041  12.353  0.00  0.00    +0.000 C 
ATOM     16  C   UNL     1       7.621   5.049  13.295  0.00  0.00    +0.000 C 
ENDBRANCH  10  12
ENDBRANCH   2  10
TORSDOF 3
ENDMDL
MODEL 3
REMARK VINA RESULT:      -6.2      2.822      6.063
REMARK  Name = 
REMARK  3 active torsions:
REMARK  status: ('A' for Active; 'I' for Inactive)
REMARK    1  A    between atoms: S_2  and  N_4
REMARK    2  A    between atoms: S_2  and  C_10
REMARK    3  A    between atoms: N_4  and  C_5
REMARK                            x       y       z     vdW  Elec       q    Type
REMARK                         _______ _______ _______ _____ _____    ______ ____
ROOT
ATOM      1  O   UNL     1       4.405   6.092  19.413  0.00  0.00    +0.000 OA
ATOM      2  S   UNL     1       5.284   4.979  19.152  0.00  0.00    +0.000 S 
ATOM      3  O   UNL     1       6.583   4.870  19.783  0.00  0.00    +0.000 OA
ENDROOT
BRANCH   2   4
ATOM      4  C   UNL     1       5.537   4.808  17.384  0.00  0.00    +0.000 C 
ATOM      5  C   UNL     1       7.023   4.607  17.079  0.00  0.00    +0.000 C 
ATOM      6  C   UNL     1       7.233   4.483  15.578  0.00  0.00    +0.000 C 
ATOM      7  O   UNL     1       6.699   5.619  14.903  0.00  0.00    +0.000 OA
ATOM      8  C   UNL     1       5.297   5.773  15.105  0.00  0.00    +0.000 C 
ATOM      9  C   UNL     1       4.984   5.980  16.581  0.00  0.00    +0.000 C 
ENDBRANCH   2   4
BRANCH   2  10
ATOM     10  N   UNL     1       4.453   3.552  19.542  0.00  0.00    +0.000 NA
ATOM     11  H   UNL     1       4.998   2.993  20.198  0.00  0.00    +0.000 HD
BRANCH  10  12
ATOM     12  C   UNL     1       3.066   3.754  20.045  0.00  0.00    +0.000 C 
ATOM     13  C   UNL     1       2.054   3.256  19.015  0.00  0.00    +0.000 C 
ATOM     14  C   UNL     1       0.792   2.988  19.827  0.00  0.00    +0.000 C 
ATOM     15  C   UNL     1       1.261   2.656  21.241  0.00  0.00    +0.000 C 
ATOM     16  C   UNL     1       2.768   2.871  21.253  0.00  0.00    +0.000 C 
ENDBRANCH  10  12
ENDBRANCH   2  10
TORSDOF 3
ENDMDL
MODEL 4
REMARK VINA RESULT:      -6.2      0.552      1.310
REMARK  Name = 
REMARK  3 active torsions:
REMARK  status: ('A' for Active; 'I' for Inactive)
REMARK    1  A    between atoms: S_2  and  N_4
REMARK    2  A    between atoms: S_2  and  C_10
REMARK    3  A    between atoms: N_4  and  C_5
REMARK                            x       y       z     vdW  Elec       q    Type
REMARK                         _______ _______ _______ _____ _____    ______ ____
ROOT
ATOM      1  O   UNL     1       7.878   4.446  16.570  0.00  0.00    +0.000 OA
ATOM      2  S   UNL     1       6.844   5.451  16.593  0.00  0.00    +0.000 S 
ATOM      3  O   UNL     1       7.130   6.832  16.922  0.00  0.00    +0.000 OA
ENDROOT
BRANCH   2   4
ATOM      4  C   UNL     1       5.505   4.918  17.660  0.00  0.00    +0.000 C 
ATOM      5  C   UNL     1       4.466   4.133  16.855  0.00  0.00    +0.000 C 
ATOM      6  C   UNL     1       3.324   3.702  17.761  0.00  0.00    +0.000 C 
ATOM      7  O   UNL     1       2.749   4.831  18.414  0.00  0.00    +0.000 OA
ATOM      8  C   UNL     1       3.682   5.525  19.239  0.00  0.00    +0.000 C 
ATOM      9  C   UNL     1       4.837   6.066  18.408  0.00  0.00    +0.000 C 
ENDBRANCH   2   4
BRANCH   2  10
ATOM     10  N   UNL     1       6.105   5.477  15.065  0.00  0.00    +0.000 NA
ATOM     11  H   UNL     1       6.213   6.396  14.636  0.00  0.00    +0.000 HD
BRANCH  10  12
ATOM     12  C   UNL     1       6.553   4.403  14.136  0.00  0.00    +0.000 C 
ATOM     13  C   UNL     1       5.354   3.809  13.400  0.00  0.00    +0.000 C 
ATOM     14  C   UNL     1       5.953   3.187  12.144  0.00  0.00    +0.000 C 
ATOM     15  C   UNL     1       7.218   3.985  11.839  0.00  0.00    +0.000 C 
ATOM     16  C   UNL     1       7.397   4.961  12.994  0.00  0.00    +0.000 C 
ENDBRANCH  10  12
ENDBRANCH   2  10
TORSDOF 3
ENDMDL
MODEL 5
REMARK VINA RESULT:      -6.1      2.673      5.386
REMARK  Name = 
REMARK  3 active torsions:
REMARK  status: ('A' for Active; 'I' for Inactive)
REMARK    1  A    between atoms: S_2  and  N_4
REMARK    2  A    between atoms: S_2  and  C_10
REMARK    3  A    between atoms: N_4  and  C_5
REMARK                            x       y       z     vdW  Elec       q    Type
REMARK                         _______ _______ _______ _____ _____    ______ ____
ROOT
ATOM      1  O   UNL     1       4.667   5.957  19.602  0.00  0.00    +0.000 OA
ATOM      2  S   UNL     1       5.769   5.135  19.164  0.00  0.00    +0.000 S 
ATOM      3  O   UNL     1       7.018   5.082  19.897  0.00  0.00    +0.000 OA
ENDROOT
BRANCH   2   4
ATOM      4  C   UNL     1       6.171   5.519  17.459  0.00  0.00    +0.000 C 
ATOM      5  C   UNL     1       4.921   5.995  16.714  0.00  0.00    +0.000 C 
ATOM      6  C   UNL     1       5.265   6.299  15.265  0.00  0.00    +0.000 C 
ATOM      7  O   UNL     1       5.855   5.161  14.641  0.00  0.00    +0.000 OA
ATOM      8  C   UNL     1       7.069   4.755  15.269  0.00  0.00    +0.000 C 
ATOM      9  C   UNL     1       6.819   4.355  16.716  0.00  0.00    +0.000 C 
ENDBRANCH   2   4
BRANCH   2  10
ATOM     10  N   UNL     1       5.219   3.534  19.059  0.00  0.00    +0.000 NA
ATOM     11  H   UNL     1       5.578   2.984  19.840  0.00  0.00    +0.000 HD
BRANCH  10  12
ATOM     12  C   UNL     1       3.742   3.386  18.942  0.00  0.00    +0.000 C 
ATOM     13  C   UNL     1       3.400   2.243  17.988  0.00  0.00    +0.000 C 
ATOM     14  C   UNL     1       1.985   1.835  18.382  0.00  0.00    +0.000 C 
ATOM     15  C   UNL     1       1.838   2.192  19.859  0.00  0.00    +0.000 C 
ATOM     16  C   UNL     1       3.116   2.920  20.253  0.00  0.00    +0.000 C 
ENDBRANCH  10  12
ENDBRANCH   2  10
TORSDOF 3
ENDMDL
MODEL 6
REMARK VINA RESULT:      -6.0      2.506      5.879
REMARK  Name = 
REMARK  3 active torsions:
REMARK  status: ('A' for Active; 'I' for Inactive)
REMARK    1  A    between atoms: S_2  and  N_4
REMARK    2  A    between atoms: S_2  and  C_10
REMARK    3  A    between atoms: N_4  and  C_5
REMARK                            x       y       z     vdW  Elec       q    Type
REMARK                         _______ _______ _______ _____ _____    ______ ____
ROOT
ATOM      1  O   UNL     1       6.578   5.618  19.745  0.00  0.00    +0.000 OA
ATOM      2  S   UNL     1       5.658   4.766  19.033  0.00  0.00    +0.000 S 
ATOM      3  O   UNL     1       5.587   3.341  19.287  0.00  0.00    +0.000 OA
ENDROOT
BRANCH   2   4
ATOM      4  C   UNL     1       5.879   4.978  17.266  0.00  0.00    +0.000 C 
ATOM      5  C   UNL     1       4.968   4.016  16.499  0.00  0.00    +0.000 C 
ATOM      6  C   UNL     1       5.175   4.186  15.002  0.00  0.00    +0.000 C 
ATOM      7  O   UNL     1       6.548   4.004  14.663  0.00  0.00    +0.000 OA
ATOM      8  C   UNL     1       7.403   4.949  15.301  0.00  0.00    +0.000 C 
ATOM      9  C   UNL     1       7.326   4.809  16.815  0.00  0.00    +0.000 C 
ENDBRANCH   2   4
BRANCH   2  10
ATOM     10  N   UNL     1       4.090   5.364  19.280  0.00  0.00    +0.000 NA
ATOM     11  H   UNL     1       3.768   5.864  18.451  0.00  0.00    +0.000 HD
BRANCH  10  12
ATOM     12  C   UNL     1       3.092   4.346  19.706  0.00  0.00    +0.000 C 
ATOM     13  C   UNL     1       2.073   4.971  20.658  0.00  0.00    +0.000 C 
ATOM     14  C   UNL     1       0.857   4.057  20.560  0.00  0.00    +0.000 C 
ATOM     15  C   UNL     1       0.908   3.432  19.169  0.00  0.00    +0.000 C 
ATOM     16  C   UNL     1       2.218   3.889  18.542  0.00  0.00    +0.000 C 
ENDBRANCH  10  12
ENDBRANCH   2  10
TORSDOF 3
ENDMDL
MODEL 7
REMARK VINA RESULT:      -6.0      2.675      5.952
REMARK  Name = 
REMARK  3 active torsions:
REMARK  status: ('A' for Active; 'I' for Inactive)
REMARK    1  A    between atoms: S_2  and  N_4
REMARK    2  A    between atoms: S_2  and  C_10
REMARK    3  A    between atoms: N_4  and  C_5
REMARK                            x       y       z     vdW  Elec       q    Type
REMARK                         _______ _______ _______ _____ _____    ______ ____
ROOT
ATOM      1  O   UNL     1       4.310   6.123  19.329  0.00  0.00    +0.000 OA
ATOM      2  S   UNL     1       5.221   5.049  19.017  0.00  0.00    +0.000 S 
ATOM      3  O   UNL     1       6.435   4.834  19.779  0.00  0.00    +0.000 OA
ENDROOT
BRANCH   2   4
ATOM      4  C   UNL     1       5.688   5.133  17.288  0.00  0.00    +0.000 C 
ATOM      5  C   UNL     1       4.747   4.273  16.442  0.00  0.00    +0.000 C 
ATOM      6  C   UNL     1       5.160   4.332  14.980  0.00  0.00    +0.000 C 
ATOM      7  O   UNL     1       6.522   3.937  14.830  0.00  0.00    +0.000 OA
ATOM      8  C   UNL     1       7.423   4.782  15.541  0.00  0.00    +0.000 C 
ATOM      9  C   UNL     1       7.139   4.736  17.036  0.00  0.00    +0.000 C 
ENDBRANCH   2   4
BRANCH   2  10
ATOM     10  N   UNL     1       4.357   3.591  19.092  0.00  0.00    +0.000 NA
ATOM     11  H   UNL     1       4.842   2.923  19.692  0.00  0.00    +0.000 HD
BRANCH  10  12
ATOM     12  C   UNL     1       2.931   3.729  19.497  0.00  0.00    +0.000 C 
ATOM     13  C   UNL     1       2.045   2.847  18.620  0.00  0.00    +0.000 C 
ATOM     14  C   UNL     1       0.786   2.633  19.451  0.00  0.00    +0.000 C 
ATOM     15  C   UNL     1       1.217   2.750  20.910  0.00  0.00    +0.000 C 
ATOM     16  C   UNL     1       2.683   3.161  20.892  0.00  0.00    +0.000 C 
ENDBRANCH  10  12
ENDBRANCH   2  10
TORSDOF 3
ENDMDL
MODEL 8
REMARK VINA RESULT:      -6.0      1.000      1.989
REMARK  Name = 
REMARK  3 active torsions:
REMARK  status: ('A' for Active; 'I' for Inactive)
REMARK    1  A    between atoms: S_2  and  N_4
REMARK    2  A    between atoms: S_2  and  C_10
REMARK    3  A    between atoms: N_4  and  C_5
REMARK                            x       y       z     vdW  Elec       q    Type
REMARK                         _______ _______ _______ _____ _____    ______ ____
ROOT
ATOM      1  O   UNL     1       7.182   6.802  17.508  0.00  0.00    +0.000 OA
ATOM      2  S   UNL     1       6.347   6.060  16.595  0.00  0.00    +0.000 S 
ATOM      3  O   UNL     1       5.317   6.706  15.808  0.00  0.00    +0.000 OA
ENDROOT
BRANCH   2   4
ATOM      4  C   UNL     1       5.575   4.690  17.457  0.00  0.00    +0.000 C 
ATOM      5  C   UNL     1       4.189   4.408  16.870  0.00  0.00    +0.000 C 
ATOM      6  C   UNL     1       3.531   3.260  17.618  0.00  0.00    +0.000 C 
ATOM      7  O   UNL     1       3.470   3.542  19.014  0.00  0.00    +0.000 OA
ATOM      8  C   UNL     1       4.758   3.722  19.597  0.00  0.00    +0.000 C 
ATOM      9  C   UNL     1       5.477   4.904  18.964  0.00  0.00    +0.000 C 
ENDBRANCH   2   4
BRANCH   2  10
ATOM     10  N   UNL     1       7.359   5.270  15.486  0.00  0.00    +0.000 NA
ATOM     11  H   UNL     1       7.647   4.362  15.853  0.00  0.00    +0.000 HD
BRANCH  10  12
ATOM     12  C   UNL     1       6.795   5.131  14.115  0.00  0.00    +0.000 C 
ATOM     13  C   UNL     1       7.917   5.143  13.079  0.00  0.00    +0.000 C 
ATOM     14  C   UNL     1       7.314   4.450  11.862  0.00  0.00    +0.000 C 
ATOM     15  C   UNL     1       6.250   3.499  12.402  0.00  0.00    +0.000 C 
ATOM     16  C   UNL     1       6.164   3.758  13.900  0.00  0.00    +0.000 C 
ENDBRANCH  10  12
ENDBRANCH   2  10
TORSDOF 3
ENDMDL
MODEL 9
REMARK VINA RESULT:      -6.0      2.667      5.763
REMARK  Name = 
REMARK  3 active torsions:
REMARK  status: ('A' for Active; 'I' for Inactive)
REMARK    1  A    between atoms: S_2  and  N_4
REMARK    2  A    between atoms: S_2  and  C_10
REMARK    3  A    between atoms: N_4  and  C_5
REMARK                            x       y       z     vdW  Elec       q    Type
REMARK                         _______ _______ _______ _____ _____    ______ ____
ROOT
ATOM      1  O   UNL     1       3.593   7.494  17.462  0.00  0.00    +0.000 OA
ATOM      2  S   UNL     1       3.841   6.216  18.085  0.00  0.00    +0.000 S 
ATOM      3  O   UNL     1       4.238   6.110  19.474  0.00  0.00    +0.000 OA
ENDROOT
BRANCH   2   4
ATOM      4  C   UNL     1       5.038   5.293  17.119  0.00  0.00    +0.000 C 
ATOM      5  C   UNL     1       6.380   5.235  17.854  0.00  0.00    +0.000 C 
ATOM      6  C   UNL     1       7.395   4.470  17.021  0.00  0.00    +0.000 C 
ATOM      7  O   UNL     1       7.522   5.053  15.726  0.00  0.00    +0.000 OA
ATOM      8  C   UNL     1       6.300   5.037  14.992  0.00  0.00    +0.000 C 
ATOM      9  C   UNL     1       5.229   5.845  15.710  0.00  0.00    +0.000 C 
ENDBRANCH   2   4
BRANCH   2  10
ATOM     10  N   UNL     1       2.439   5.275  17.925  0.00  0.00    +0.000 NA
ATOM     11  H   UNL     1       2.306   4.999  16.952  0.00  0.00    +0.000 HD
BRANCH  10  12
ATOM     12  C   UNL     1       2.376   4.090  18.824  0.00  0.00    +0.000 C 
ATOM     13  C   UNL     1       1.335   4.313  19.919  0.00  0.00    +0.000 C 
ATOM     14  C   UNL     1       0.967   2.907  20.381  0.00  0.00    +0.000 C 
ATOM     15  C   UNL     1       1.206   1.992  19.184  0.00  0.00    +0.000 C 
ATOM     16  C   UNL     1       1.834   2.860  18.101  0.00  0.00    +0.000 C 
ENDBRANCH  10  12
ENDBRANCH   2  10
TORSDOF 3
ENDMDL
