MODEL 1
REMARK VINA RESULT:      -9.0      0.000      0.000
REMARK  Name = 
REMARK  8 active torsions:
REMARK  status: ('A' for Active; 'I' for Inactive)
REMARK    1  A    between atoms: C_1  and  O_2
REMARK    2  A    between atoms: O_2  and  C_3
REMARK    3  A    between atoms: C_8  and  N_9
REMARK    4  A    between atoms: C_10  and  C_12
REMARK    5  A    between atoms: C_12  and  O_13
REMARK    6  A    between atoms: O_13  and  C_14
REMARK    7  A    between atoms: C_17  and  C_18
REMARK    8  A    between atoms: N_20  and  C_21
REMARK                            x       y       z     vdW  Elec       q    Type
REMARK                         _______ _______ _______ _____ _____    ______ ____
ROOT
ATOM      1  C   UNL     1       2.309   7.083  19.154  0.00  0.00    +0.000 A 
ATOM      2  C   UNL     1       3.220   7.695  18.252  0.00  0.00    +0.000 A 
ATOM      3  C   UNL     1       3.952   6.873  17.394  0.00  0.00    +0.000 A 
ATOM      4  C   UNL     1       3.761   5.472  17.384  0.00  0.00    +0.000 A 
ATOM      5  C   UNL     1       2.742   4.885  18.190  0.00  0.00    +0.000 A 
ATOM      6  C   UNL     1       2.205   3.610  17.937  0.00  0.00    +0.000 A 
ATOM      7  C   UNL     1       1.230   3.012  18.733  0.00  0.00    +0.000 A 
ATOM      8  C   UNL     1       1.238   3.216  20.079  0.00  0.00    +0.000 A 
ATOM      9  C   UNL     1       1.341   4.593  20.102  0.00  0.00    +0.000 A 
ATOM     10  C   UNL     1       2.113   5.585  19.214  0.00  0.00    +0.000 A 
ENDROOT
BRANCH   4  11
ATOM     11  C   UNL     1       4.730   4.676  16.490  0.00  0.00    +0.000 C 
ATOM     12  O   UNL     1       5.121   3.561  16.858  0.00  0.00    +0.000 OA
ATOM     13  N   UNL     1       5.045   5.257  15.211  0.00  0.00    +0.000 N 
ATOM     14  H   UNL     1       4.470   5.995  14.798  0.00  0.00    +0.000 HD
BRANCH  13  15
ATOM     15  C   UNL     1       5.830   4.665  14.213  0.00  0.00    +0.000 A 
ATOM     16  C   UNL     1       7.095   5.192  13.905  0.00  0.00    +0.000 A 
ATOM     17  C   UNL     1       7.782   4.729  12.784  0.00  0.00    +0.000 A 
ATOM     18  C   UNL     1       7.223   3.708  12.022  0.00  0.00    +0.000 A 
ATOM     19  C   UNL     1       5.939   3.255  12.301  0.00  0.00    +0.000 A 
ATOM     20  F   UNL     1       5.407   2.304  11.528  0.00  0.00    +0.000 F 
ATOM     21  C   UNL     1       5.233   3.723  13.393  0.00  0.00    +0.000 A 
ENDBRANCH  13  15
ENDBRANCH   4  11
BRANCH   1  22
ATOM     22  O   UNL     1       1.552   8.025  19.836  0.00  0.00    +0.000 OA
BRANCH  22  23
ATOM     23  C   UNL     1       1.551   7.968  21.260  0.00  0.00    +0.000 C 
BRANCH  23  25
ATOM     24  N   UNL     1       0.322  10.148  21.221  0.00  0.00    +0.000 N 
ATOM     25  C   UNL     1       1.098   9.270  21.971  0.00  0.00    +0.000 C 
ATOM     26  O   UNL     1       1.487   9.507  23.117  0.00  0.00    +0.000 OA
ATOM     27  H   UNL     1      -0.210   9.748  20.463  0.00  0.00    +0.000 HD
BRANCH  24  33
ATOM     28  C   UNL     1       0.425  12.643  21.241  0.00  0.00    +0.000 A 
ATOM     29  C   UNL     1      -0.057  13.843  21.798  0.00  0.00    +0.000 A 
ATOM     30  C   UNL     1      -1.015  13.848  22.819  0.00  0.00    +0.000 A 
ATOM     31  C   UNL     1      -1.598  12.654  23.226  0.00  0.00    +0.000 A 
ATOM     32  C   UNL     1      -1.153  11.449  22.660  0.00  0.00    +0.000 A 
ATOM     33  C   UNL     1      -0.110  11.421  21.694  0.00  0.00    +0.000 A 
BRANCH  28  35
ATOM     34  C   UNL     1       2.609  13.640  20.750  0.00  0.00    +0.000 C 
ATOM     35  O   UNL     1       1.492  12.829  20.403  0.00  0.00    +0.000 OA
ENDBRANCH  28  35
ENDBRANCH  24  33
ENDBRANCH  23  25
ENDBRANCH  22  23
ENDBRANCH   1  22
TORSDOF 7
ENDMDL
MODEL 2
REMARK VINA RESULT:      -8.9      1.299      1.867
REMARK  Name = 
REMARK  8 active torsions:
REMARK  status: ('A' for Active; 'I' for Inactive)
REMARK    1  A    between atoms: C_1  and  O_2
REMARK    2  A    between atoms: O_2  and  C_3
REMARK    3  A    between atoms: C_8  and  N_9
REMARK    4  A    between atoms: C_10  and  C_12
REMARK    5  A    between atoms: C_12  and  O_13
REMARK    6  A    between atoms: O_13  and  C_14
REMARK    7  A    between atoms: C_17  and  C_18
REMARK    8  A    between atoms: N_20  and  C_21
REMARK                            x       y       z     vdW  Elec       q    Type
REMARK                         _______ _______ _______ _____ _____    ______ ____
ROOT
ATOM      1  C   UNL     1       2.458   7.256  19.043  0.00  0.00    +0.000 A 
ATOM      2  C   UNL     1       3.382   7.855  18.147  0.00  0.00    +0.000 A 
ATOM      3  C   UNL     1       4.123   7.021  17.308  0.00  0.00    +0.000 A 
ATOM      4  C   UNL     1       3.929   5.621  17.310  0.00  0.00    +0.000 A 
ATOM      5  C   UNL     1       2.897   5.045  18.109  0.00  0.00    +0.000 A 
ATOM      6  C   UNL     1       2.360   3.769  17.863  0.00  0.00    +0.000 A 
ATOM      7  C   UNL     1       1.374   3.182  18.652  0.00  0.00    +0.000 A 
ATOM      8  C   UNL     1       1.364   3.401  19.996  0.00  0.00    +0.000 A 
ATOM      9  C   UNL     1       1.471   4.778  20.006  0.00  0.00    +0.000 A 
ATOM     10  C   UNL     1       2.257   5.759  19.116  0.00  0.00    +0.000 A 
ENDROOT
BRANCH   4  11
ATOM     11  C   UNL     1       4.907   4.812  16.437  0.00  0.00    +0.000 C 
ATOM     12  O   UNL     1       5.476   3.824  16.917  0.00  0.00    +0.000 OA
ATOM     13  N   UNL     1       5.020   5.216  15.060  0.00  0.00    +0.000 N 
ATOM     14  H   UNL     1       4.315   5.806  14.612  0.00  0.00    +0.000 HD
BRANCH  13  15
ATOM     15  C   UNL     1       5.779   4.570  14.076  0.00  0.00    +0.000 A 
ATOM     16  C   UNL     1       7.052   5.055  13.735  0.00  0.00    +0.000 A 
ATOM     17  C   UNL     1       7.715   4.536  12.625  0.00  0.00    +0.000 A 
ATOM     18  C   UNL     1       7.125   3.501  11.907  0.00  0.00    +0.000 A 
ATOM     19  C   UNL     1       5.834   3.088  12.217  0.00  0.00    +0.000 A 
ATOM     20  F   UNL     1       5.271   2.123  11.486  0.00  0.00    +0.000 F 
ATOM     21  C   UNL     1       5.152   3.613  13.298  0.00  0.00    +0.000 A 
ENDBRANCH  13  15
ENDBRANCH   4  11
BRANCH   1  22
ATOM     22  O   UNL     1       1.696   8.207  19.705  0.00  0.00    +0.000 OA
BRANCH  22  23
ATOM     23  C   UNL     1       1.360   9.396  18.995  0.00  0.00    +0.000 C 
BRANCH  23  25
ATOM     24  N   UNL     1       0.474  11.257  20.417  0.00  0.00    +0.000 N 
ATOM     25  C   UNL     1       0.161  10.193  19.576  0.00  0.00    +0.000 C 
ATOM     26  O   UNL     1      -0.990   9.827  19.335  0.00  0.00    +0.000 OA
ATOM     27  H   UNL     1       1.381  11.683  20.292  0.00  0.00    +0.000 HD
BRANCH  24  33
ATOM     28  C   UNL     1      -0.825  11.878  22.456  0.00  0.00    +0.000 A 
ATOM     29  C   UNL     1      -1.829  12.689  23.019  0.00  0.00    +0.000 A 
ATOM     30  C   UNL     1      -2.544  13.615  22.250  0.00  0.00    +0.000 A 
ATOM     31  C   UNL     1      -2.190  13.832  20.924  0.00  0.00    +0.000 A 
ATOM     32  C   UNL     1      -1.170  13.054  20.354  0.00  0.00    +0.000 A 
ATOM     33  C   UNL     1      -0.503  12.041  21.095  0.00  0.00    +0.000 A 
BRANCH  28  35
ATOM     34  C   UNL     1      -0.611   9.517  23.081  0.00  0.00    +0.000 C 
ATOM     35  O   UNL     1      -0.380  10.903  23.310  0.00  0.00    +0.000 OA
ENDBRANCH  28  35
ENDBRANCH  24  33
ENDBRANCH  23  25
ENDBRANCH  22  23
ENDBRANCH   1  22
TORSDOF 7
ENDMDL
MODEL 3
REMARK VINA RESULT:      -8.9      2.274      2.510
REMARK  Name = 
REMARK  8 active torsions:
REMARK  status: ('A' for Active; 'I' for Inactive)
REMARK    1  A    between atoms: C_1  and  O_2
REMARK    2  A    between atoms: O_2  and  C_3
REMARK    3  A    between atoms: C_8  and  N_9
REMARK    4  A    between atoms: C_10  and  C_12
REMARK    5  A    between atoms: C_12  and  O_13
REMARK    6  A    between atoms: O_13  and  C_14
REMARK    7  A    between atoms: C_17  and  C_18
REMARK    8  A    between atoms: N_20  and  C_21
REMARK                            x       y       z     vdW  Elec       q    Type
REMARK                         _______ _______ _______ _____ _____    ______ ____
ROOT
ATOM      1  C   UNL     1       2.425   6.806  19.351  0.00  0.00    +0.000 A 
ATOM      2  C   UNL     1       3.358   7.421  18.476  0.00  0.00    +0.000 A 
ATOM      3  C   UNL     1       4.024   6.617  17.550  0.00  0.00    +0.000 A 
ATOM      4  C   UNL     1       3.748   5.234  17.449  0.00  0.00    +0.000 A 
ATOM      5  C   UNL     1       2.707   4.656  18.234  0.00  0.00    +0.000 A 
ATOM      6  C   UNL     1       2.089   3.435  17.907  0.00  0.00    +0.000 A 
ATOM      7  C   UNL     1       1.092   2.845  18.679  0.00  0.00    +0.000 A 
ATOM      8  C   UNL     1       1.133   2.956  20.036  0.00  0.00    +0.000 A 
ATOM      9  C   UNL     1       1.321   4.319  20.149  0.00  0.00    +0.000 A 
ATOM     10  C   UNL     1       2.138   5.322  19.314  0.00  0.00    +0.000 A 
ENDROOT
BRANCH   4  11
ATOM     11  C   UNL     1       4.652   4.444  16.485  0.00  0.00    +0.000 C 
ATOM     12  O   UNL     1       4.915   3.260  16.730  0.00  0.00    +0.000 OA
ATOM     13  N   UNL     1       5.060   5.127  15.285  0.00  0.00    +0.000 N 
ATOM     14  H   UNL     1       4.576   5.963  14.950  0.00  0.00    +0.000 HD
BRANCH  13  15
ATOM     15  C   UNL     1       5.805   4.569  14.238  0.00  0.00    +0.000 A 
ATOM     16  C   UNL     1       7.075   5.081  13.925  0.00  0.00    +0.000 A 
ATOM     17  C   UNL     1       7.722   4.662  12.764  0.00  0.00    +0.000 A 
ATOM     18  C   UNL     1       7.120   3.696  11.965  0.00  0.00    +0.000 A 
ATOM     19  C   UNL     1       5.832   3.259  12.253  0.00  0.00    +0.000 A 
ATOM     20  F   UNL     1       5.257   2.364  11.446  0.00  0.00    +0.000 F 
ATOM     21  C   UNL     1       5.165   3.687  13.385  0.00  0.00    +0.000 A 
ENDBRANCH  13  15
ENDBRANCH   4  11
BRANCH   1  22
ATOM     22  O   UNL     1       1.739   7.743  20.110  0.00  0.00    +0.000 OA
BRANCH  22  23
ATOM     23  C   UNL     1       1.433   8.993  19.499  0.00  0.00    +0.000 C 
BRANCH  23  25
ATOM     24  N   UNL     1      -0.438  10.591  19.040  0.00  0.00    +0.000 N 
ATOM     25  C   UNL     1       0.049   9.588  19.872  0.00  0.00    +0.000 C 
ATOM     26  O   UNL     1      -0.520   9.213  20.898  0.00  0.00    +0.000 OA
ATOM     27  H   UNL     1      -0.101  10.596  18.089  0.00  0.00    +0.000 HD
BRANCH  24  33
ATOM     28  C   UNL     1      -2.844  11.068  18.570  0.00  0.00    +0.000 A 
ATOM     29  C   UNL     1      -3.978  11.845  18.873  0.00  0.00    +0.000 A 
ATOM     30  C   UNL     1      -3.935  12.868  19.827  0.00  0.00    +0.000 A 
ATOM     31  C   UNL     1      -2.785  13.060  20.584  0.00  0.00    +0.000 A 
ATOM     32  C   UNL     1      -1.654  12.273  20.318  0.00  0.00    +0.000 A 
ATOM     33  C   UNL     1      -1.652  11.298  19.283  0.00  0.00    +0.000 A 
BRANCH  28  35
ATOM     34  C   UNL     1      -2.560  10.606  16.179  0.00  0.00    +0.000 C 
ATOM     35  O   UNL     1      -3.022  10.257  17.480  0.00  0.00    +0.000 OA
ENDBRANCH  28  35
ENDBRANCH  24  33
ENDBRANCH  23  25
ENDBRANCH  22  23
ENDBRANCH   1  22
TORSDOF 7
ENDMDL
MODEL 4
REMARK VINA RESULT:      -8.8      1.739      1.971
REMARK  Name = 
REMARK  8 active torsions:
REMARK  status: ('A' for Active; 'I' for Inactive)
REMARK    1  A    between atoms: C_1  and  O_2
REMARK    2  A    between atoms: O_2  and  C_3
REMARK    3  A    between atoms: C_8  and  N_9
REMARK    4  A    between atoms: C_10  and  C_12
REMARK    5  A    between atoms: C_12  and  O_13
REMARK    6  A    between atoms: O_13  and  C_14
REMARK    7  A    between atoms: C_17  and  C_18
REMARK    8  A    between atoms: N_20  and  C_21
REMARK                            x       y       z     vdW  Elec       q    Type
REMARK                         _______ _______ _______ _____ _____    ______ ____
ROOT
ATOM      1  C   UNL     1       2.425   6.889  19.372  0.00  0.00    +0.000 A 
ATOM      2  C   UNL     1       3.348   7.497  18.481  0.00  0.00    +0.000 A 
ATOM      3  C   UNL     1       4.010   6.684  17.560  0.00  0.00    +0.000 A 
ATOM      4  C   UNL     1       3.739   5.300  17.478  0.00  0.00    +0.000 A 
ATOM      5  C   UNL     1       2.708   4.727  18.278  0.00  0.00    +0.000 A 
ATOM      6  C   UNL     1       2.092   3.500  17.971  0.00  0.00    +0.000 A 
ATOM      7  C   UNL     1       1.104   2.914  18.759  0.00  0.00    +0.000 A 
ATOM      8  C   UNL     1       1.156   3.042  20.114  0.00  0.00    +0.000 A 
ATOM      9  C   UNL     1       1.339   4.407  20.209  0.00  0.00    +0.000 A 
ATOM     10  C   UNL     1       2.145   5.403  19.355  0.00  0.00    +0.000 A 
ENDROOT
BRANCH   4  11
ATOM     11  C   UNL     1       4.639   4.501  16.515  0.00  0.00    +0.000 C 
ATOM     12  O   UNL     1       4.892   3.316  16.762  0.00  0.00    +0.000 OA
ATOM     13  N   UNL     1       5.053   5.180  15.315  0.00  0.00    +0.000 N 
ATOM     14  H   UNL     1       4.576   6.020  14.979  0.00  0.00    +0.000 HD
BRANCH  13  15
ATOM     15  C   UNL     1       5.795   4.616  14.270  0.00  0.00    +0.000 A 
ATOM     16  C   UNL     1       7.066   5.124  13.953  0.00  0.00    +0.000 A 
ATOM     17  C   UNL     1       7.710   4.698  12.793  0.00  0.00    +0.000 A 
ATOM     18  C   UNL     1       7.105   3.729  11.999  0.00  0.00    +0.000 A 
ATOM     19  C   UNL     1       5.817   3.296  12.292  0.00  0.00    +0.000 A 
ATOM     20  F   UNL     1       5.239   2.397  11.490  0.00  0.00    +0.000 F 
ATOM     21  C   UNL     1       5.152   3.730  13.423  0.00  0.00    +0.000 A 
ENDBRANCH  13  15
ENDBRANCH   4  11
BRANCH   1  22
ATOM     22  O   UNL     1       1.741   7.832  20.125  0.00  0.00    +0.000 OA
BRANCH  22  23
ATOM     23  C   UNL     1       1.398   9.062  19.492  0.00  0.00    +0.000 C 
BRANCH  23  25
ATOM     24  N   UNL     1      -0.394  10.790  19.232  0.00  0.00    +0.000 N 
ATOM     25  C   UNL     1       0.052   9.685  19.949  0.00  0.00    +0.000 C 
ATOM     26  O   UNL     1      -0.521   9.237  20.944  0.00  0.00    +0.000 OA
ATOM     27  H   UNL     1      -0.071  10.873  18.279  0.00  0.00    +0.000 HD
BRANCH  24  33
ATOM     28  C   UNL     1      -1.656  12.381  20.685  0.00  0.00    +0.000 A 
ATOM     29  C   UNL     1      -2.873  13.042  20.938  0.00  0.00    +0.000 A 
ATOM     30  C   UNL     1      -4.004  12.834  20.139  0.00  0.00    +0.000 A 
ATOM     31  C   UNL     1      -3.908  12.050  18.996  0.00  0.00    +0.000 A 
ATOM     32  C   UNL     1      -2.693  11.407  18.709  0.00  0.00    +0.000 A 
ATOM     33  C   UNL     1      -1.565  11.529  19.567  0.00  0.00    +0.000 A 
BRANCH  28  35
ATOM     34  C   UNL     1      -1.015  13.278  22.874  0.00  0.00    +0.000 C 
ATOM     35  O   UNL     1      -0.731  12.555  21.680  0.00  0.00    +0.000 OA
ENDBRANCH  28  35
ENDBRANCH  24  33
ENDBRANCH  23  25
ENDBRANCH  22  23
ENDBRANCH   1  22
TORSDOF 7
ENDMDL
MODEL 5
REMARK VINA RESULT:      -8.8      2.431      2.848
REMARK  Name = 
REMARK  8 active torsions:
REMARK  status: ('A' for Active; 'I' for Inactive)
REMARK    1  A    between atoms: C_1  and  O_2
REMARK    2  A    between atoms: O_2  and  C_3
REMARK    3  A    between atoms: C_8  and  N_9
REMARK    4  A    between atoms: C_10  and  C_12
REMARK    5  A    between atoms: C_12  and  O_13
REMARK    6  A    between atoms: O_13  and  C_14
REMARK    7  A    between atoms: C_17  and  C_18
REMARK    8  A    between atoms: N_20  and  C_21
REMARK                            x       y       z     vdW  Elec       q    Type
REMARK                         _______ _______ _______ _____ _____    ______ ____
ROOT
ATOM      1  C   UNL     1       2.221   6.739  19.379  0.00  0.00    +0.000 A 
ATOM      2  C   UNL     1       3.173   7.424  18.579  0.00  0.00    +0.000 A 
ATOM      3  C   UNL     1       3.938   6.678  17.680  0.00  0.00    +0.000 A 
ATOM      4  C   UNL     1       3.741   5.287  17.530  0.00  0.00    +0.000 A 
ATOM      5  C   UNL     1       2.685   4.636  18.234  0.00  0.00    +0.000 A 
ATOM      6  C   UNL     1       2.154   3.395  17.840  0.00  0.00    +0.000 A 
ATOM      7  C   UNL     1       1.143   2.734  18.534  0.00  0.00    +0.000 A 
ATOM      8  C   UNL     1       1.093   2.812  19.893  0.00  0.00    +0.000 A 
ATOM      9  C   UNL     1       1.202   4.179  20.049  0.00  0.00    +0.000 A 
ATOM     10  C   UNL     1       2.016   5.244  19.291  0.00  0.00    +0.000 A 
ENDROOT
BRANCH   4  11
ATOM     11  C   UNL     1       4.745   4.569  16.608  0.00  0.00    +0.000 C 
ATOM     12  O   UNL     1       5.277   3.519  16.989  0.00  0.00    +0.000 OA
ATOM     13  N   UNL     1       4.923   5.132  15.295  0.00  0.00    +0.000 N 
ATOM     14  H   UNL     1       4.247   5.785  14.893  0.00  0.00    +0.000 HD
BRANCH  13  15
ATOM     15  C   UNL     1       5.714   4.592  14.273  0.00  0.00    +0.000 A 
ATOM     16  C   UNL     1       6.978   5.139  13.996  0.00  0.00    +0.000 A 
ATOM     17  C   UNL     1       7.672   4.735  12.857  0.00  0.00    +0.000 A 
ATOM     18  C   UNL     1       7.121   3.749  12.044  0.00  0.00    +0.000 A 
ATOM     19  C   UNL     1       5.838   3.277  12.296  0.00  0.00    +0.000 A 
ATOM     20  F   UNL     1       5.313   2.363  11.476  0.00  0.00    +0.000 F 
ATOM     21  C   UNL     1       5.126   3.689  13.406  0.00  0.00    +0.000 A 
ENDBRANCH  13  15
ENDBRANCH   4  11
BRANCH   1  22
ATOM     22  O   UNL     1       1.441   7.620  20.114  0.00  0.00    +0.000 OA
BRANCH  22  23
ATOM     23  C   UNL     1       1.740   9.010  20.015  0.00  0.00    +0.000 C 
BRANCH  23  25
ATOM     24  N   UNL     1      -0.569   9.664  19.307  0.00  0.00    +0.000 N 
ATOM     25  C   UNL     1       0.796   9.823  19.091  0.00  0.00    +0.000 C 
ATOM     26  O   UNL     1       1.270  10.507  18.183  0.00  0.00    +0.000 OA
ATOM     27  H   UNL     1      -0.853   9.381  20.234  0.00  0.00    +0.000 HD
BRANCH  24  33
ATOM     28  C   UNL     1      -2.307  11.409  18.894  0.00  0.00    +0.000 A 
ATOM     29  C   UNL     1      -3.297  11.913  18.028  0.00  0.00    +0.000 A 
ATOM     30  C   UNL     1      -3.600  11.286  16.813  0.00  0.00    +0.000 A 
ATOM     31  C   UNL     1      -2.837  10.207  16.383  0.00  0.00    +0.000 A 
ATOM     32  C   UNL     1      -1.825   9.710  17.219  0.00  0.00    +0.000 A 
ATOM     33  C   UNL     1      -1.573  10.274  18.500  0.00  0.00    +0.000 A 
BRANCH  28  35
ATOM     34  C   UNL     1      -1.344  13.043  20.447  0.00  0.00    +0.000 C 
ATOM     35  O   UNL     1      -2.291  12.033  20.113  0.00  0.00    +0.000 OA
ENDBRANCH  28  35
ENDBRANCH  24  33
ENDBRANCH  23  25
ENDBRANCH  22  23
ENDBRANCH   1  22
TORSDOF 7
ENDMDL
MODEL 6
REMARK VINA RESULT:      -8.7      1.064      1.245
REMARK  Name = 
REMARK  8 active torsions:
REMARK  status: ('A' for Active; 'I' for Inactive)
REMARK    1  A    between atoms: C_1  and  O_2
REMARK    2  A    between atoms: O_2  and  C_3
REMARK    3  A    between atoms: C_8  and  N_9
REMARK    4  A    between atoms: C_10  and  C_12
REMARK    5  A    between atoms: C_12  and  O_13
REMARK    6  A    between atoms: O_13  and  C_14
REMARK    7  A    between atoms: C_17  and  C_18
REMARK    8  A    between atoms: N_20  and  C_21
REMARK                            x       y       z     vdW  Elec       q    Type
REMARK                         _______ _______ _______ _____ _____    ______ ____
ROOT
ATOM      1  C   UNL     1       2.418   7.294  19.016  0.00  0.00    +0.000 A 
ATOM      2  C   UNL     1       3.259   7.834  18.008  0.00  0.00    +0.000 A 
ATOM      3  C   UNL     1       3.942   6.948  17.174  0.00  0.00    +0.000 A 
ATOM      4  C   UNL     1       3.768   5.550  17.292  0.00  0.00    +0.000 A 
ATOM      5  C   UNL     1       2.812   5.026  18.211  0.00  0.00    +0.000 A 
ATOM      6  C   UNL     1       2.275   3.730  18.102  0.00  0.00    +0.000 A 
ATOM      7  C   UNL     1       1.363   3.195  19.009  0.00  0.00    +0.000 A 
ATOM      8  C   UNL     1       1.458   3.511  20.330  0.00  0.00    +0.000 A 
ATOM      9  C   UNL     1       1.547   4.886  20.232  0.00  0.00    +0.000 A 
ATOM     10  C   UNL     1       2.245   5.805  19.214  0.00  0.00    +0.000 A 
ENDROOT
BRANCH   4  11
ATOM     11  C   UNL     1       4.685   4.688  16.404  0.00  0.00    +0.000 C 
ATOM     12  O   UNL     1       4.978   3.541  16.764  0.00  0.00    +0.000 OA
ATOM     13  N   UNL     1       5.068   5.256  15.138  0.00  0.00    +0.000 N 
ATOM     14  H   UNL     1       4.562   6.043  14.726  0.00  0.00    +0.000 HD
BRANCH  13  15
ATOM     15  C   UNL     1       5.819   4.614  14.145  0.00  0.00    +0.000 A 
ATOM     16  C   UNL     1       7.118   5.058  13.845  0.00  0.00    +0.000 A 
ATOM     17  C   UNL     1       7.780   4.551  12.728  0.00  0.00    +0.000 A 
ATOM     18  C   UNL     1       7.162   3.567  11.964  0.00  0.00    +0.000 A 
ATOM     19  C   UNL     1       5.850   3.197  12.236  0.00  0.00    +0.000 A 
ATOM     20  F   UNL     1       5.262   2.282  11.461  0.00  0.00    +0.000 F 
ATOM     21  C   UNL     1       5.169   3.711  13.323  0.00  0.00    +0.000 A 
ENDBRANCH  13  15
ENDBRANCH   4  11
BRANCH   1  22
ATOM     22  O   UNL     1       1.698   8.285  19.668  0.00  0.00    +0.000 OA
BRANCH  22  23
ATOM     23  C   UNL     1       1.364   9.456  18.927  0.00  0.00    +0.000 C 
BRANCH  23  25
ATOM     24  N   UNL     1       0.704  10.845  20.902  0.00  0.00    +0.000 N 
ATOM     25  C   UNL     1       0.362  10.413  19.624  0.00  0.00    +0.000 C 
ATOM     26  O   UNL     1      -0.701  10.695  19.068  0.00  0.00    +0.000 OA
ATOM     27  H   UNL     1       1.687  10.853  21.130  0.00  0.00    +0.000 HD
BRANCH  24  33
ATOM     28  C   UNL     1      -0.040  13.064  21.772  0.00  0.00    +0.000 A 
ATOM     29  C   UNL     1      -0.906  13.769  22.630  0.00  0.00    +0.000 A 
ATOM     30  C   UNL     1      -1.823  13.108  23.456  0.00  0.00    +0.000 A 
ATOM     31  C   UNL     1      -1.976  11.731  23.355  0.00  0.00    +0.000 A 
ATOM     32  C   UNL     1      -1.143  11.013  22.483  0.00  0.00    +0.000 A 
ATOM     33  C   UNL     1      -0.138  11.660  21.712  0.00  0.00    +0.000 A 
BRANCH  28  35
ATOM     34  C   UNL     1       1.397  15.049  21.814  0.00  0.00    +0.000 C 
ATOM     35  O   UNL     1       0.914  13.861  21.196  0.00  0.00    +0.000 OA
ENDBRANCH  28  35
ENDBRANCH  24  33
ENDBRANCH  23  25
ENDBRANCH  22  23
ENDBRANCH   1  22
TORSDOF 7
ENDMDL
MODEL 7
REMARK VINA RESULT:      -8.7      1.323      1.601
REMARK  Name = 
REMARK  8 active torsions:
REMARK  status: ('A' for Active; 'I' for Inactive)
REMARK    1  A    between atoms: C_1  and  O_2
REMARK    2  A    between atoms: O_2  and  C_3
REMARK    3  A    between atoms: C_8  and  N_9
REMARK    4  A    between atoms: C_10  and  C_12
REMARK    5  A    between atoms: C_12  and  O_13
REMARK    6  A    between atoms: O_13  and  C_14
REMARK    7  A    between atoms: C_17  and  C_18
REMARK    8  A    between atoms: N_20  and  C_21
REMARK                            x       y       z     vdW  Elec       q    Type
REMARK                         _______ _______ _______ _____ _____    ______ ____
ROOT
ATOM      1  C   UNL     1       2.539   7.159  19.143  0.00  0.00    +0.000 A 
ATOM      2  C   UNL     1       3.432   7.704  18.184  0.00  0.00    +0.000 A 
ATOM      3  C   UNL     1       4.072   6.828  17.305  0.00  0.00    +0.000 A 
ATOM      4  C   UNL     1       3.806   5.440  17.333  0.00  0.00    +0.000 A 
ATOM      5  C   UNL     1       2.801   4.924  18.202  0.00  0.00    +0.000 A 
ATOM      6  C   UNL     1       2.183   3.676  18.004  0.00  0.00    +0.000 A 
ATOM      7  C   UNL     1       1.221   3.146  18.861  0.00  0.00    +0.000 A 
ATOM      8  C   UNL     1       1.311   3.373  20.201  0.00  0.00    +0.000 A 
ATOM      9  C   UNL     1       1.490   4.742  20.191  0.00  0.00    +0.000 A 
ATOM     10  C   UNL     1       2.266   5.675  19.243  0.00  0.00    +0.000 A 
ENDROOT
BRANCH   4  11
ATOM     11  C   UNL     1       4.681   4.576  16.405  0.00  0.00    +0.000 C 
ATOM     12  O   UNL     1       4.940   3.410  16.726  0.00  0.00    +0.000 OA
ATOM     13  N   UNL     1       5.066   5.171  15.151  0.00  0.00    +0.000 N 
ATOM     14  H   UNL     1       4.580   5.987  14.771  0.00  0.00    +0.000 HD
BRANCH  13  15
ATOM     15  C   UNL     1       5.782   4.536  14.129  0.00  0.00    +0.000 A 
ATOM     16  C   UNL     1       7.085   4.956  13.814  0.00  0.00    +0.000 A 
ATOM     17  C   UNL     1       7.713   4.461  12.672  0.00  0.00    +0.000 A 
ATOM     18  C   UNL     1       7.056   3.511  11.896  0.00  0.00    +0.000 A 
ATOM     19  C   UNL     1       5.741   3.167  12.185  0.00  0.00    +0.000 A 
ATOM     20  F   UNL     1       5.116   2.285  11.400  0.00  0.00    +0.000 F 
ATOM     21  C   UNL     1       5.094   3.670  13.297  0.00  0.00    +0.000 A 
ENDBRANCH  13  15
ENDBRANCH   4  11
BRANCH   1  22
ATOM     22  O   UNL     1       1.872   8.152  19.845  0.00  0.00    +0.000 OA
BRANCH  22  23
ATOM     23  C   UNL     1       1.174   7.772  21.028  0.00  0.00    +0.000 C 
BRANCH  23  25
ATOM     24  N   UNL     1       0.114  10.040  20.985  0.00  0.00    +0.000 N 
ATOM     25  C   UNL     1       0.034   8.733  21.458  0.00  0.00    +0.000 C 
ATOM     26  O   UNL     1      -0.838   8.338  22.233  0.00  0.00    +0.000 OA
ATOM     27  H   UNL     1       0.631  10.182  20.130  0.00  0.00    +0.000 HD
BRANCH  24  33
ATOM     28  C   UNL     1      -1.705  11.662  20.443  0.00  0.00    +0.000 A 
ATOM     29  C   UNL     1      -2.549  12.692  20.902  0.00  0.00    +0.000 A 
ATOM     30  C   UNL     1      -2.478  13.170  22.216  0.00  0.00    +0.000 A 
ATOM     31  C   UNL     1      -1.642  12.547  23.134  0.00  0.00    +0.000 A 
ATOM     32  C   UNL     1      -0.815  11.497  22.703  0.00  0.00    +0.000 A 
ATOM     33  C   UNL     1      -0.803  11.068  21.347  0.00  0.00    +0.000 A 
BRANCH  28  35
ATOM     34  C   UNL     1      -3.001  11.573  18.365  0.00  0.00    +0.000 C 
ATOM     35  O   UNL     1      -1.780  11.467  19.089  0.00  0.00    +0.000 OA
ENDBRANCH  28  35
ENDBRANCH  24  33
ENDBRANCH  23  25
ENDBRANCH  22  23
ENDBRANCH   1  22
TORSDOF 7
ENDMDL
MODEL 8
REMARK VINA RESULT:      -8.6      1.117      1.117
REMARK  Name = 
REMARK  8 active torsions:
REMARK  status: ('A' for Active; 'I' for Inactive)
REMARK    1  A    between atoms: C_1  and  O_2
REMARK    2  A    between atoms: O_2  and  C_3
REMARK    3  A    between atoms: C_8  and  N_9
REMARK    4  A    between atoms: C_10  and  C_12
REMARK    5  A    between atoms: C_12  and  O_13
REMARK    6  A    between atoms: O_13  and  C_14
REMARK    7  A    between atoms: C_17  and  C_18
REMARK    8  A    between atoms: N_20  and  C_21
REMARK                            x       y       z     vdW  Elec       q    Type
REMARK                         _______ _______ _______ _____ _____    ______ ____
ROOT
ATOM      1  C   UNL     1       2.307   6.841  19.593  0.00  0.00    +0.000 A 
ATOM      2  C   UNL     1       3.202   7.461  18.683  0.00  0.00    +0.000 A 
ATOM      3  C   UNL     1       3.858   6.657  17.750  0.00  0.00    +0.000 A 
ATOM      4  C   UNL     1       3.607   5.268  17.677  0.00  0.00    +0.000 A 
ATOM      5  C   UNL     1       2.601   4.681  18.499  0.00  0.00    +0.000 A 
ATOM      6  C   UNL     1       1.998   3.444  18.207  0.00  0.00    +0.000 A 
ATOM      7  C   UNL     1       1.035   2.845  19.016  0.00  0.00    +0.000 A 
ATOM      8  C   UNL     1       1.113   2.977  20.369  0.00  0.00    +0.000 A 
ATOM      9  C   UNL     1       1.277   4.345  20.458  0.00  0.00    +0.000 A 
ATOM     10  C   UNL     1       2.050   5.351  19.586  0.00  0.00    +0.000 A 
ENDROOT
BRANCH   4  11
ATOM     11  C   UNL     1       4.500   4.481  16.698  0.00  0.00    +0.000 C 
ATOM     12  O   UNL     1       4.688   3.273  16.885  0.00  0.00    +0.000 OA
ATOM     13  N   UNL     1       4.985   5.204  15.552  0.00  0.00    +0.000 N 
ATOM     14  H   UNL     1       4.559   6.083  15.250  0.00  0.00    +0.000 HD
BRANCH  13  15
ATOM     15  C   UNL     1       5.734   4.663  14.499  0.00  0.00    +0.000 A 
ATOM     16  C   UNL     1       7.024   5.149  14.229  0.00  0.00    +0.000 A 
ATOM     17  C   UNL     1       7.681   4.753  13.065  0.00  0.00    +0.000 A 
ATOM     18  C   UNL     1       7.067   3.834  12.220  0.00  0.00    +0.000 A 
ATOM     19  C   UNL     1       5.762   3.425  12.470  0.00  0.00    +0.000 A 
ATOM     20  F   UNL     1       5.178   2.575  11.620  0.00  0.00    +0.000 F 
ATOM     21  C   UNL     1       5.086   3.830  13.604  0.00  0.00    +0.000 A 
ENDBRANCH  13  15
ENDBRANCH   4  11
BRANCH   1  22
ATOM     22  O   UNL     1       1.624   7.775  20.358  0.00  0.00    +0.000 OA
BRANCH  22  23
ATOM     23  C   UNL     1       1.151   8.949  19.702  0.00  0.00    +0.000 C 
BRANCH  23  25
ATOM     24  N   UNL     1      -0.561  10.614  20.449  0.00  0.00    +0.000 N 
ATOM     25  C   UNL     1       0.717  10.101  20.646  0.00  0.00    +0.000 C 
ATOM     26  O   UNL     1       1.518  10.555  21.465  0.00  0.00    +0.000 OA
ATOM     27  H   UNL     1      -1.238   9.997  20.023  0.00  0.00    +0.000 HD
BRANCH  24  33
ATOM     28  C   UNL     1      -1.196  13.021  20.640  0.00  0.00    +0.000 A 
ATOM     29  C   UNL     1      -1.705  14.051  21.455  0.00  0.00    +0.000 A 
ATOM     30  C   UNL     1      -2.059  13.825  22.791  0.00  0.00    +0.000 A 
ATOM     31  C   UNL     1      -2.020  12.535  23.307  0.00  0.00    +0.000 A 
ATOM     32  C   UNL     1      -1.545  11.490  22.500  0.00  0.00    +0.000 A 
ATOM     33  C   UNL     1      -1.088  11.723  21.173  0.00  0.00    +0.000 A 
BRANCH  28  35
ATOM     34  C   UNL     1      -0.169  14.773  19.266  0.00  0.00    +0.000 C 
ATOM     35  O   UNL     1      -0.724  13.473  19.435  0.00  0.00    +0.000 OA
ENDBRANCH  28  35
ENDBRANCH  24  33
ENDBRANCH  23  25
ENDBRANCH  22  23
ENDBRANCH   1  22
TORSDOF 7
ENDMDL
MODEL 9
REMARK VINA RESULT:      -8.6      1.774      2.299
REMARK  Name = 
REMARK  8 active torsions:
REMARK  status: ('A' for Active; 'I' for Inactive)
REMARK    1  A    between atoms: C_1  and  O_2
REMARK    2  A    between atoms: O_2  and  C_3
REMARK    3  A    between atoms: C_8  and  N_9
REMARK    4  A    between atoms: C_10  and  C_12
REMARK    5  A    between atoms: C_12  and  O_13
REMARK    6  A    between atoms: O_13  and  C_14
REMARK    7  A    between atoms: C_17  and  C_18
REMARK    8  A    between atoms: N_20  and  C_21
REMARK                            x       y       z     vdW  Elec       q    Type
REMARK                         _______ _______ _______ _____ _____    ______ ____
ROOT
ATOM      1  C   UNL     1       2.230   6.580  19.759  0.00  0.00    +0.000 A 
ATOM      2  C   UNL     1       2.776   7.374  18.716  0.00  0.00    +0.000 A 
ATOM      3  C   UNL     1       3.686   6.779  17.841  0.00  0.00    +0.000 A 
ATOM      4  C   UNL     1       4.021   5.411  17.953  0.00  0.00    +0.000 A 
ATOM      5  C   UNL     1       3.358   4.590  18.912  0.00  0.00    +0.000 A 
ATOM      6  C   UNL     1       3.306   3.188  18.815  0.00  0.00    +0.000 A 
ATOM      7  C   UNL     1       2.687   2.372  19.759  0.00  0.00    +0.000 A 
ATOM      8  C   UNL     1       2.729   2.711  21.078  0.00  0.00    +0.000 A 
ATOM      9  C   UNL     1       2.323   4.028  20.990  0.00  0.00    +0.000 A 
ATOM     10  C   UNL     1       2.602   5.127  19.948  0.00  0.00    +0.000 A 
ENDROOT
BRANCH   4  11
ATOM     11  C   UNL     1       5.138   4.920  17.012  0.00  0.00    +0.000 C 
ATOM     12  O   UNL     1       6.121   4.338  17.487  0.00  0.00    +0.000 OA
ATOM     13  N   UNL     1       4.908   5.093  15.602  0.00  0.00    +0.000 N 
ATOM     14  H   UNL     1       3.974   5.268  15.226  0.00  0.00    +0.000 HD
BRANCH  13  15
ATOM     15  C   UNL     1       5.747   4.643  14.574  0.00  0.00    +0.000 A 
ATOM     16  C   UNL     1       6.982   5.272  14.345  0.00  0.00    +0.000 A 
ATOM     17  C   UNL     1       7.717   4.956  13.203  0.00  0.00    +0.000 A 
ATOM     18  C   UNL     1       7.238   3.975  12.340  0.00  0.00    +0.000 A 
ATOM     19  C   UNL     1       5.980   3.421  12.547  0.00  0.00    +0.000 A 
ATOM     20  F   UNL     1       5.523   2.514  11.680  0.00  0.00    +0.000 F 
ATOM     21  C   UNL     1       5.226   3.745  13.659  0.00  0.00    +0.000 A 
ENDBRANCH  13  15
ENDBRANCH   4  11
BRANCH   1  22
ATOM     22  O   UNL     1       1.240   7.258  20.454  0.00  0.00    +0.000 OA
BRANCH  22  23
ATOM     23  C   UNL     1       1.651   8.247  21.395  0.00  0.00    +0.000 C 
BRANCH  23  25
ATOM     24  N   UNL     1       1.002  10.091  19.832  0.00  0.00    +0.000 N 
ATOM     25  C   UNL     1       1.071   9.666  21.155  0.00  0.00    +0.000 C 
ATOM     26  O   UNL     1       0.766  10.372  22.118  0.00  0.00    +0.000 OA
ATOM     27  H   UNL     1       0.946   9.372  19.127  0.00  0.00    +0.000 HD
BRANCH  24  33
ATOM     28  C   UNL     1      -0.752  11.696  19.067  0.00  0.00    +0.000 A 
ATOM     29  C   UNL     1      -1.061  13.012  18.672  0.00  0.00    +0.000 A 
ATOM     30  C   UNL     1      -0.080  14.007  18.596  0.00  0.00    +0.000 A 
ATOM     31  C   UNL     1       1.213  13.738  19.028  0.00  0.00    +0.000 A 
ATOM     32  C   UNL     1       1.534  12.440  19.455  0.00  0.00    +0.000 A 
ATOM     33  C   UNL     1       0.571  11.393  19.442  0.00  0.00    +0.000 A 
BRANCH  28  35
ATOM     34  C   UNL     1      -2.951  11.151  18.133  0.00  0.00    +0.000 C 
ATOM     35  O   UNL     1      -1.792  10.822  18.891  0.00  0.00    +0.000 OA
ENDBRANCH  28  35
ENDBRANCH  24  33
ENDBRANCH  23  25
ENDBRANCH  22  23
ENDBRANCH   1  22
TORSDOF 7
ENDMDL
