MODEL 1
REMARK VINA RESULT:      -8.0      0.000      0.000
REMARK  Name = 
REMARK  5 active torsions:
REMARK  status: ('A' for Active; 'I' for Inactive)
REMARK    1  A    between atoms: C_1  and  N_2
REMARK    2  A    between atoms: N_11  and  C_12
REMARK    3  A    between atoms: C_12  and  C_13
REMARK    4  A    between atoms: C_13  and  N_14
REMARK    5  A    between atoms: N_17  and  C_18
REMARK                            x       y       z     vdW  Elec       q    Type
REMARK                         _______ _______ _______ _____ _____    ______ ____
ROOT
ATOM      1  C   UNL     1      10.473  16.811  21.846  0.00  0.00    +0.000 C 
ATOM      2  N   UNL     1      10.020  15.434  21.847  0.00  0.00    +0.000 N 
ATOM      3  N   UNL     1       9.513  14.925  23.058  0.00  0.00    +0.000 NA
ATOM      4  C   UNL     1       9.075  13.698  23.127  0.00  0.00    +0.000 A 
ATOM      5 CL   UNL     1       8.469  13.164  24.641  0.00  0.00    +0.000 Cl
ATOM      6  C   UNL     1       9.107  12.862  21.952  0.00  0.00    +0.000 A 
ATOM      7  C   UNL     1       8.712  11.561  21.715  0.00  0.00    +0.000 A 
ATOM      8  N   UNL     1       8.959  11.273  20.381  0.00  0.00    +0.000 N 
ATOM      9  N   UNL     1       8.650  10.097  19.773  0.00  0.00    +0.000 NA
ATOM     10  C   UNL     1       8.972  10.037  18.508  0.00  0.00    +0.000 A 
ATOM     11  N   UNL     1       8.689   8.917  17.761  0.00  0.00    +0.000 N 
ATOM     12  C   UNL     1       9.645  11.163  17.784  0.00  0.00    +0.000 A 
ATOM     13  C   UNL     1       9.896  12.294  18.442  0.00  0.00    +0.000 A 
ATOM     14  C   UNL     1       9.540  12.380  19.800  0.00  0.00    +0.000 A 
ATOM     15  C   UNL     1       9.626  13.369  20.746  0.00  0.00    +0.000 A 
ATOM     16  C   UNL     1      10.120  14.721  20.639  0.00  0.00    +0.000 A 
ATOM     17  O   UNL     1      10.573  15.185  19.598  0.00  0.00    +0.000 OA
ATOM     18  H   UNL     1       9.177   8.778  16.880  0.00  0.00    +0.000 HD
ENDROOT
BRANCH  11  19
ATOM     19  C   UNL     1       8.081   7.716  18.294  0.00  0.00    +0.000 C 
BRANCH  19  20
ATOM     20  C   UNL     1       7.040   7.152  17.292  0.00  0.00    +0.000 C 
BRANCH  20  21
ATOM     21  N   UNL     1       6.905   5.674  17.311  0.00  0.00    +0.000 NA
ATOM     22  C   UNL     1       6.720   5.163  18.690  0.00  0.00    +0.000 C 
ATOM     23  C   UNL     1       5.388   5.556  19.363  0.00  0.00    +0.000 C 
ATOM     24  N   UNL     1       4.247   5.157  18.527  0.00  0.00    +0.000 N 
ATOM     25  C   UNL     1       4.333   5.568  17.112  0.00  0.00    +0.000 C 
ATOM     26  C   UNL     1       5.726   5.225  16.519  0.00  0.00    +0.000 C 
BRANCH  24  27
ATOM     27  C   UNL     1       3.177   4.437  19.041  0.00  0.00    +0.000 A 
ATOM     28  C   UNL     1       2.339   5.040  20.002  0.00  0.00    +0.000 A 
ATOM     29  C   UNL     1       1.208   4.411  20.534  0.00  0.00    +0.000 A 
ATOM     30  C   UNL     1       0.863   3.137  20.107  0.00  0.00    +0.000 A 
ATOM     31  C   UNL     1       1.661   2.496  19.174  0.00  0.00    +0.000 A 
ATOM     32  C   UNL     1       2.809   3.121  18.656  0.00  0.00    +0.000 A 
ATOM     33 CL   UNL     1       3.755   2.109  17.603  0.00  0.00    +0.000 Cl
ENDBRANCH  24  27
ENDBRANCH  20  21
ENDBRANCH  19  20
ENDBRANCH  11  19
TORSDOF 4
ENDMDL
MODEL 2
REMARK VINA RESULT:      -8.0      2.369      2.560
REMARK  Name = 
REMARK  5 active torsions:
REMARK  status: ('A' for Active; 'I' for Inactive)
REMARK    1  A    between atoms: C_1  and  N_2
REMARK    2  A    between atoms: N_11  and  C_12
REMARK    3  A    between atoms: C_12  and  C_13
REMARK    4  A    between atoms: C_13  and  N_14
REMARK    5  A    between atoms: N_17  and  C_18
REMARK                            x       y       z     vdW  Elec       q    Type
REMARK                         _______ _______ _______ _____ _____    ______ ____
ROOT
ATOM      1  C   UNL     1      11.943  17.558  19.423  0.00  0.00    +0.000 C 
ATOM      2  N   UNL     1      10.884  16.614  19.125  0.00  0.00    +0.000 N 
ATOM      3  N   UNL     1       9.610  17.143  18.844  0.00  0.00    +0.000 NA
ATOM      4  C   UNL     1       8.614  16.352  18.555  0.00  0.00    +0.000 A 
ATOM      5 CL   UNL     1       7.098  17.085  18.221  0.00  0.00    +0.000 Cl
ATOM      6  C   UNL     1       8.824  14.925  18.518  0.00  0.00    +0.000 A 
ATOM      7  C   UNL     1       7.993  13.861  18.238  0.00  0.00    +0.000 A 
ATOM      8  N   UNL     1       8.738  12.696  18.332  0.00  0.00    +0.000 N 
ATOM      9  N   UNL     1       8.262  11.448  18.073  0.00  0.00    +0.000 NA
ATOM     10  C   UNL     1       9.136  10.490  18.226  0.00  0.00    +0.000 A 
ATOM     11  N   UNL     1       8.799   9.181  17.967  0.00  0.00    +0.000 N 
ATOM     12  C   UNL     1      10.546  10.735  18.669  0.00  0.00    +0.000 A 
ATOM     13  C   UNL     1      10.946  11.987  18.883  0.00  0.00    +0.000 A 
ATOM     14  C   UNL     1      10.021  13.033  18.706  0.00  0.00    +0.000 A 
ATOM     15  C   UNL     1      10.096  14.398  18.811  0.00  0.00    +0.000 A 
ATOM     16  C   UNL     1      11.216  15.248  19.138  0.00  0.00    +0.000 A 
ATOM     17  O   UNL     1      12.333  14.810  19.393  0.00  0.00    +0.000 OA
ATOM     18  H   UNL     1       9.384   8.440  18.344  0.00  0.00    +0.000 HD
ENDROOT
BRANCH  11  19
ATOM     19  C   UNL     1       7.476   8.745  17.570  0.00  0.00    +0.000 C 
BRANCH  19  20
ATOM     20  C   UNL     1       7.332   7.215  17.778  0.00  0.00    +0.000 C 
BRANCH  20  21
ATOM     21  N   UNL     1       6.347   6.561  16.881  0.00  0.00    +0.000 NA
ATOM     22  C   UNL     1       6.256   5.105  17.143  0.00  0.00    +0.000 C 
ATOM     23  C   UNL     1       5.657   4.720  18.512  0.00  0.00    +0.000 C 
ATOM     24  N   UNL     1       4.338   5.343  18.694  0.00  0.00    +0.000 N 
ATOM     25  C   UNL     1       4.285   6.791  18.415  0.00  0.00    +0.000 C 
ATOM     26  C   UNL     1       4.981   7.123  17.069  0.00  0.00    +0.000 C 
BRANCH  24  27
ATOM     27  C   UNL     1       3.228   4.608  19.089  0.00  0.00    +0.000 A 
ATOM     28  C   UNL     1       2.700   4.799  20.383  0.00  0.00    +0.000 A 
ATOM     29  C   UNL     1       1.554   4.143  20.846  0.00  0.00    +0.000 A 
ATOM     30  C   UNL     1       0.878   3.265  20.012  0.00  0.00    +0.000 A 
ATOM     31  C   UNL     1       1.364   3.032  18.736  0.00  0.00    +0.000 A 
ATOM     32  C   UNL     1       2.527   3.676  18.279  0.00  0.00    +0.000 A 
ATOM     33 CL   UNL     1       3.057   3.154  16.705  0.00  0.00    +0.000 Cl
ENDBRANCH  24  27
ENDBRANCH  20  21
ENDBRANCH  19  20
ENDBRANCH  11  19
TORSDOF 4
ENDMDL
MODEL 3
REMARK VINA RESULT:      -7.9      8.264     11.567
REMARK  Name = 
REMARK  5 active torsions:
REMARK  status: ('A' for Active; 'I' for Inactive)
REMARK    1  A    between atoms: C_1  and  N_2
REMARK    2  A    between atoms: N_11  and  C_12
REMARK    3  A    between atoms: C_12  and  C_13
REMARK    4  A    between atoms: C_13  and  N_14
REMARK    5  A    between atoms: N_17  and  C_18
REMARK                            x       y       z     vdW  Elec       q    Type
REMARK                         _______ _______ _______ _____ _____    ______ ____
ROOT
ATOM      1  C   UNL     1       6.028   3.977  15.947  0.00  0.00    +0.000 C 
ATOM      2  N   UNL     1       5.114   4.423  16.979  0.00  0.00    +0.000 N 
ATOM      3  N   UNL     1       4.836   3.522  18.026  0.00  0.00    +0.000 NA
ATOM      4  C   UNL     1       4.033   3.862  18.995  0.00  0.00    +0.000 A 
ATOM      5 CL   UNL     1       3.757   2.703  20.231  0.00  0.00    +0.000 Cl
ATOM      6  C   UNL     1       3.431   5.173  18.997  0.00  0.00    +0.000 A 
ATOM      7  C   UNL     1       2.574   5.811  19.869  0.00  0.00    +0.000 A 
ATOM      8  N   UNL     1       2.333   7.086  19.380  0.00  0.00    +0.000 N 
ATOM      9  N   UNL     1       1.571   8.024  20.004  0.00  0.00    +0.000 NA
ATOM     10  C   UNL     1       1.475   9.160  19.366  0.00  0.00    +0.000 A 
ATOM     11  N   UNL     1       0.761  10.208  19.898  0.00  0.00    +0.000 N 
ATOM     12  C   UNL     1       2.133   9.410  18.043  0.00  0.00    +0.000 A 
ATOM     13  C   UNL     1       2.883   8.450  17.504  0.00  0.00    +0.000 A 
ATOM     14  C   UNL     1       3.010   7.227  18.187  0.00  0.00    +0.000 A 
ATOM     15  C   UNL     1       3.701   6.067  17.944  0.00  0.00    +0.000 A 
ATOM     16  C   UNL     1       4.582   5.718  16.855  0.00  0.00    +0.000 A 
ATOM     17  O   UNL     1       4.833   6.484  15.930  0.00  0.00    +0.000 OA
ATOM     18  H   UNL     1       0.471  10.966  19.284  0.00  0.00    +0.000 HD
ENDROOT
BRANCH  11  19
ATOM     19  C   UNL     1       0.023  10.142  21.142  0.00  0.00    +0.000 C 
BRANCH  19  20
ATOM     20  C   UNL     1      -1.276  10.983  21.041  0.00  0.00    +0.000 C 
BRANCH  20  21
ATOM     21  N   UNL     1      -1.155  12.369  21.558  0.00  0.00    +0.000 NA
ATOM     22  C   UNL     1      -2.016  13.308  20.801  0.00  0.00    +0.000 C 
ATOM     23  C   UNL     1      -3.535  13.095  20.978  0.00  0.00    +0.000 C 
ATOM     24  N   UNL     1      -3.899  13.121  22.401  0.00  0.00    +0.000 N 
ATOM     25  C   UNL     1      -3.080  12.258  23.274  0.00  0.00    +0.000 C 
ATOM     26  C   UNL     1      -1.568  12.455  22.986  0.00  0.00    +0.000 C 
BRANCH  24  27
ATOM     27  C   UNL     1      -4.936  13.912  22.878  0.00  0.00    +0.000 A 
ATOM     28  C   UNL     1      -4.632  15.070  23.624  0.00  0.00    +0.000 A 
ATOM     29  C   UNL     1      -5.609  15.954  24.097  0.00  0.00    +0.000 A 
ATOM     30  C   UNL     1      -6.947  15.712  23.825  0.00  0.00    +0.000 A 
ATOM     31  C   UNL     1      -7.299  14.581  23.107  0.00  0.00    +0.000 A 
ATOM     32  C   UNL     1      -6.319  13.682  22.650  0.00  0.00    +0.000 A 
ATOM     33 CL   UNL     1      -6.962  12.256  21.889  0.00  0.00    +0.000 Cl
ENDBRANCH  24  27
ENDBRANCH  20  21
ENDBRANCH  19  20
ENDBRANCH  11  19
TORSDOF 4
ENDMDL
MODEL 4
REMARK VINA RESULT:      -7.8      8.218     11.647
REMARK  Name = 
REMARK  5 active torsions:
REMARK  status: ('A' for Active; 'I' for Inactive)
REMARK    1  A    between atoms: C_1  and  N_2
REMARK    2  A    between atoms: N_11  and  C_12
REMARK    3  A    between atoms: C_12  and  C_13
REMARK    4  A    between atoms: C_13  and  N_14
REMARK    5  A    between atoms: N_17  and  C_18
REMARK                            x       y       z     vdW  Elec       q    Type
REMARK                         _______ _______ _______ _____ _____    ______ ____
ROOT
ATOM      1  C   UNL     1       4.191   2.454  19.582  0.00  0.00    +0.000 C 
ATOM      2  N   UNL     1       3.895   3.808  19.158  0.00  0.00    +0.000 N 
ATOM      3  N   UNL     1       4.436   4.229  17.927  0.00  0.00    +0.000 NA
ATOM      4  C   UNL     1       4.199   5.430  17.477  0.00  0.00    +0.000 A 
ATOM      5 CL   UNL     1       4.894   5.855  15.966  0.00  0.00    +0.000 Cl
ATOM      6  C   UNL     1       3.374   6.329  18.245  0.00  0.00    +0.000 A 
ATOM      7  C   UNL     1       2.944   7.623  18.031  0.00  0.00    +0.000 A 
ATOM      8  N   UNL     1       2.144   7.994  19.101  0.00  0.00    +0.000 N 
ATOM      9  N   UNL     1       1.501   9.187  19.210  0.00  0.00    +0.000 NA
ATOM     10  C   UNL     1       0.801   9.329  20.304  0.00  0.00    +0.000 A 
ATOM     11  N   UNL     1       0.074  10.475  20.531  0.00  0.00    +0.000 N 
ATOM     12  C   UNL     1       0.722   8.274  21.365  0.00  0.00    +0.000 A 
ATOM     13  C   UNL     1       1.362   7.121  21.176  0.00  0.00    +0.000 A 
ATOM     14  C   UNL     1       2.107   6.945  19.996  0.00  0.00    +0.000 A 
ATOM     15  C   UNL     1       2.845   5.911  19.480  0.00  0.00    +0.000 A 
ATOM     16  C   UNL     1       3.091   4.589  20.006  0.00  0.00    +0.000 A 
ATOM     17  O   UNL     1       2.638   4.203  21.078  0.00  0.00    +0.000 OA
ATOM     18  H   UNL     1      -0.232  10.682  21.478  0.00  0.00    +0.000 HD
ENDROOT
BRANCH  11  19
ATOM     19  C   UNL     1       0.059  11.618  19.643  0.00  0.00    +0.000 C 
BRANCH  19  20
ATOM     20  C   UNL     1      -0.242  12.913  20.441  0.00  0.00    +0.000 C 
BRANCH  20  21
ATOM     21  N   UNL     1      -1.345  13.736  19.886  0.00  0.00    +0.000 NA
ATOM     22  C   UNL     1      -2.543  12.913  19.592  0.00  0.00    +0.000 C 
ATOM     23  C   UNL     1      -3.254  12.323  20.828  0.00  0.00    +0.000 C 
ATOM     24  N   UNL     1      -3.601  13.385  21.783  0.00  0.00    +0.000 N 
ATOM     25  C   UNL     1      -2.500  14.306  22.123  0.00  0.00    +0.000 C 
ATOM     26  C   UNL     1      -1.770  14.795  20.844  0.00  0.00    +0.000 C 
BRANCH  24  27
ATOM     27  C   UNL     1      -4.880  13.506  22.310  0.00  0.00    +0.000 A 
ATOM     28  C   UNL     1      -5.884  14.138  21.547  0.00  0.00    +0.000 A 
ATOM     29  C   UNL     1      -7.210  14.257  21.975  0.00  0.00    +0.000 A 
ATOM     30  C   UNL     1      -7.589  13.728  23.199  0.00  0.00    +0.000 A 
ATOM     31  C   UNL     1      -6.639  13.108  23.994  0.00  0.00    +0.000 A 
ATOM     32  C   UNL     1      -5.301  13.008  23.572  0.00  0.00    +0.000 A 
ATOM     33 CL   UNL     1      -4.230  12.322  24.760  0.00  0.00    +0.000 Cl
ENDBRANCH  24  27
ENDBRANCH  20  21
ENDBRANCH  19  20
ENDBRANCH  11  19
TORSDOF 4
ENDMDL
MODEL 5
REMARK VINA RESULT:      -7.8      8.237     11.976
REMARK  Name = 
REMARK  5 active torsions:
REMARK  status: ('A' for Active; 'I' for Inactive)
REMARK    1  A    between atoms: C_1  and  N_2
REMARK    2  A    between atoms: N_11  and  C_12
REMARK    3  A    between atoms: C_12  and  C_13
REMARK    4  A    between atoms: C_13  and  N_14
REMARK    5  A    between atoms: N_17  and  C_18
REMARK                            x       y       z     vdW  Elec       q    Type
REMARK                         _______ _______ _______ _____ _____    ______ ____
ROOT
ATOM      1  C   UNL     1       3.724   1.426  18.390  0.00  0.00    +0.000 C 
ATOM      2  N   UNL     1       3.663   2.866  18.232  0.00  0.00    +0.000 N 
ATOM      3  N   UNL     1       4.346   3.422  17.132  0.00  0.00    +0.000 NA
ATOM      4  C   UNL     1       4.322   4.708  16.921  0.00  0.00    +0.000 A 
ATOM      5 CL   UNL     1       5.178   5.297  15.554  0.00  0.00    +0.000 Cl
ATOM      6  C   UNL     1       3.586   5.565  17.818  0.00  0.00    +0.000 A 
ATOM      7  C   UNL     1       3.368   6.927  17.848  0.00  0.00    +0.000 A 
ATOM      8  N   UNL     1       2.558   7.210  18.937  0.00  0.00    +0.000 N 
ATOM      9  N   UNL     1       2.092   8.447  19.256  0.00  0.00    +0.000 NA
ATOM     10  C   UNL     1       1.345   8.488  20.327  0.00  0.00    +0.000 A 
ATOM     11  N   UNL     1       0.781   9.670  20.747  0.00  0.00    +0.000 N 
ATOM     12  C   UNL     1       1.036   7.276  21.152  0.00  0.00    +0.000 A 
ATOM     13  C   UNL     1       1.510   6.093  20.764  0.00  0.00    +0.000 A 
ATOM     14  C   UNL     1       2.303   6.030  19.604  0.00  0.00    +0.000 A 
ATOM     15  C   UNL     1       2.914   5.008  18.923  0.00  0.00    +0.000 A 
ATOM     16  C   UNL     1       2.925   3.589  19.185  0.00  0.00    +0.000 A 
ATOM     17  O   UNL     1       2.344   3.083  20.139  0.00  0.00    +0.000 OA
ATOM     18  H   UNL     1       0.442   9.739  21.703  0.00  0.00    +0.000 HD
ENDROOT
BRANCH  11  19
ATOM     19  C   UNL     1       0.998  10.949  20.104  0.00  0.00    +0.000 C 
BRANCH  19  20
ATOM     20  C   UNL     1       0.208  12.061  20.843  0.00  0.00    +0.000 C 
BRANCH  20  21
ATOM     21  N   UNL     1      -1.199  11.711  21.159  0.00  0.00    +0.000 NA
ATOM     22  C   UNL     1      -1.470  11.811  22.614  0.00  0.00    +0.000 C 
ATOM     23  C   UNL     1      -1.419  13.240  23.194  0.00  0.00    +0.000 C 
ATOM     24  N   UNL     1      -2.324  14.132  22.456  0.00  0.00    +0.000 N 
ATOM     25  C   UNL     1      -2.186  14.089  20.988  0.00  0.00    +0.000 C 
ATOM     26  C   UNL     1      -2.155  12.625  20.475  0.00  0.00    +0.000 C 
BRANCH  24  27
ATOM     27  C   UNL     1      -3.246  14.942  23.106  0.00  0.00    +0.000 A 
ATOM     28  C   UNL     1      -2.878  16.257  23.460  0.00  0.00    +0.000 A 
ATOM     29  C   UNL     1      -3.757  17.161  24.067  0.00  0.00    +0.000 A 
ATOM     30  C   UNL     1      -5.062  16.776  24.336  0.00  0.00    +0.000 A 
ATOM     31  C   UNL     1      -5.470  15.491  24.020  0.00  0.00    +0.000 A 
ATOM     32  C   UNL     1      -4.579  14.577  23.429  0.00  0.00    +0.000 A 
ATOM     33 CL   UNL     1      -5.231  12.976  23.233  0.00  0.00    +0.000 Cl
ENDBRANCH  24  27
ENDBRANCH  20  21
ENDBRANCH  19  20
ENDBRANCH  11  19
TORSDOF 4
ENDMDL
MODEL 6
REMARK VINA RESULT:      -7.8      7.621     11.405
REMARK  Name = 
REMARK  5 active torsions:
REMARK  status: ('A' for Active; 'I' for Inactive)
REMARK    1  A    between atoms: C_1  and  N_2
REMARK    2  A    between atoms: N_11  and  C_12
REMARK    3  A    between atoms: C_12  and  C_13
REMARK    4  A    between atoms: C_13  and  N_14
REMARK    5  A    between atoms: N_17  and  C_18
REMARK                            x       y       z     vdW  Elec       q    Type
REMARK                         _______ _______ _______ _____ _____    ______ ____
ROOT
ATOM      1  C   UNL     1       6.070   4.027  15.864  0.00  0.00    +0.000 C 
ATOM      2  N   UNL     1       5.164   4.435  16.919  0.00  0.00    +0.000 N 
ATOM      3  N   UNL     1       4.933   3.514  17.960  0.00  0.00    +0.000 NA
ATOM      4  C   UNL     1       4.140   3.820  18.949  0.00  0.00    +0.000 A 
ATOM      5 CL   UNL     1       3.922   2.640  20.176  0.00  0.00    +0.000 Cl
ATOM      6  C   UNL     1       3.499   5.112  18.976  0.00  0.00    +0.000 A 
ATOM      7  C   UNL     1       2.640   5.715  19.871  0.00  0.00    +0.000 A 
ATOM      8  N   UNL     1       2.351   6.987  19.402  0.00  0.00    +0.000 N 
ATOM      9  N   UNL     1       1.574   7.895  20.050  0.00  0.00    +0.000 NA
ATOM     10  C   UNL     1       1.431   9.034  19.427  0.00  0.00    +0.000 A 
ATOM     11  N   UNL     1       0.696  10.055  19.984  0.00  0.00    +0.000 N 
ATOM     12  C   UNL     1       2.056   9.318  18.095  0.00  0.00    +0.000 A 
ATOM     13  C   UNL     1       2.824   8.387  17.531  0.00  0.00    +0.000 A 
ATOM     14  C   UNL     1       3.001   7.161  18.198  0.00  0.00    +0.000 A 
ATOM     15  C   UNL     1       3.721   6.025  17.928  0.00  0.00    +0.000 A 
ATOM     16  C   UNL     1       4.591   5.715  16.819  0.00  0.00    +0.000 A 
ATOM     17  O   UNL     1       4.801   6.497  15.897  0.00  0.00    +0.000 OA
ATOM     18  H   UNL     1       0.373  10.810  19.384  0.00  0.00    +0.000 HD
ENDROOT
BRANCH  11  19
ATOM     19  C   UNL     1      -0.014   9.954  21.241  0.00  0.00    +0.000 C 
BRANCH  19  20
ATOM     20  C   UNL     1      -0.100  11.345  21.922  0.00  0.00    +0.000 C 
BRANCH  20  21
ATOM     21  N   UNL     1      -1.432  11.993  21.832  0.00  0.00    +0.000 NA
ATOM     22  C   UNL     1      -1.439  13.316  22.502  0.00  0.00    +0.000 C 
ATOM     23  C   UNL     1      -0.575  14.400  21.824  0.00  0.00    +0.000 C 
ATOM     24  N   UNL     1      -0.951  14.554  20.412  0.00  0.00    +0.000 N 
ATOM     25  C   UNL     1      -1.026  13.298  19.642  0.00  0.00    +0.000 C 
ATOM     26  C   UNL     1      -1.833  12.221  20.416  0.00  0.00    +0.000 C 
BRANCH  24  27
ATOM     27  C   UNL     1      -1.222  15.798  19.857  0.00  0.00    +0.000 A 
ATOM     28  C   UNL     1      -0.433  16.263  18.785  0.00  0.00    +0.000 A 
ATOM     29  C   UNL     1      -0.668  17.477  18.131  0.00  0.00    +0.000 A 
ATOM     30  C   UNL     1      -1.728  18.278  18.527  0.00  0.00    +0.000 A 
ATOM     31  C   UNL     1      -2.526  17.874  19.584  0.00  0.00    +0.000 A 
ATOM     32  C   UNL     1      -2.276  16.664  20.254  0.00  0.00    +0.000 A 
ATOM     33 CL   UNL     1      -3.296  16.393  21.638  0.00  0.00    +0.000 Cl
ENDBRANCH  24  27
ENDBRANCH  20  21
ENDBRANCH  19  20
ENDBRANCH  11  19
TORSDOF 4
ENDMDL
MODEL 7
REMARK VINA RESULT:      -7.8      7.915     11.785
REMARK  Name = 
REMARK  5 active torsions:
REMARK  status: ('A' for Active; 'I' for Inactive)
REMARK    1  A    between atoms: C_1  and  N_2
REMARK    2  A    between atoms: N_11  and  C_12
REMARK    3  A    between atoms: C_12  and  C_13
REMARK    4  A    between atoms: C_13  and  N_14
REMARK    5  A    between atoms: N_17  and  C_18
REMARK                            x       y       z     vdW  Elec       q    Type
REMARK                         _______ _______ _______ _____ _____    ______ ____
ROOT
ATOM      1  C   UNL     1       3.757   1.601  18.246  0.00  0.00    +0.000 C 
ATOM      2  N   UNL     1       3.685   3.044  18.132  0.00  0.00    +0.000 N 
ATOM      3  N   UNL     1       4.364   3.639  17.050  0.00  0.00    +0.000 NA
ATOM      4  C   UNL     1       4.330   4.931  16.879  0.00  0.00    +0.000 A 
ATOM      5 CL   UNL     1       5.180   5.568  15.531  0.00  0.00    +0.000 Cl
ATOM      6  C   UNL     1       3.587   5.754  17.802  0.00  0.00    +0.000 A 
ATOM      7  C   UNL     1       3.359   7.113  17.873  0.00  0.00    +0.000 A 
ATOM      8  N   UNL     1       2.546   7.356  18.970  0.00  0.00    +0.000 N 
ATOM      9  N   UNL     1       2.071   8.579  19.326  0.00  0.00    +0.000 NA
ATOM     10  C   UNL     1       1.324   8.582  20.398  0.00  0.00    +0.000 A 
ATOM     11  N   UNL     1       0.750   9.746  20.854  0.00  0.00    +0.000 N 
ATOM     12  C   UNL     1       1.024   7.343  21.186  0.00  0.00    +0.000 A 
ATOM     13  C   UNL     1       1.507   6.176  20.762  0.00  0.00    +0.000 A 
ATOM     14  C   UNL     1       2.300   6.154  19.600  0.00  0.00    +0.000 A 
ATOM     15  C   UNL     1       2.920   5.159  18.889  0.00  0.00    +0.000 A 
ATOM     16  C   UNL     1       2.942   3.732  19.107  0.00  0.00    +0.000 A 
ATOM     17  O   UNL     1       2.365   3.193  20.046  0.00  0.00    +0.000 OA
ATOM     18  H   UNL     1       0.411   9.783  21.812  0.00  0.00    +0.000 HD
ENDROOT
BRANCH  11  19
ATOM     19  C   UNL     1       0.958  11.046  20.250  0.00  0.00    +0.000 C 
BRANCH  19  20
ATOM     20  C   UNL     1      -0.402  11.762  20.040  0.00  0.00    +0.000 C 
BRANCH  20  21
ATOM     21  N   UNL     1      -0.568  13.012  20.823  0.00  0.00    +0.000 NA
ATOM     22  C   UNL     1      -1.637  13.870  20.257  0.00  0.00    +0.000 C 
ATOM     23  C   UNL     1      -3.066  13.299  20.370  0.00  0.00    +0.000 C 
ATOM     24  N   UNL     1      -3.381  12.965  21.766  0.00  0.00    +0.000 N 
ATOM     25  C   UNL     1      -2.367  12.149  22.461  0.00  0.00    +0.000 C 
ATOM     26  C   UNL     1      -0.943  12.725  22.235  0.00  0.00    +0.000 C 
BRANCH  24  27
ATOM     27  C   UNL     1      -4.549  13.402  22.378  0.00  0.00    +0.000 A 
ATOM     28  C   UNL     1      -5.768  12.759  22.076  0.00  0.00    +0.000 A 
ATOM     29  C   UNL     1      -6.982  13.096  22.684  0.00  0.00    +0.000 A 
ATOM     30  C   UNL     1      -7.018  14.098  23.642  0.00  0.00    +0.000 A 
ATOM     31  C   UNL     1      -5.851  14.769  23.967  0.00  0.00    +0.000 A 
ATOM     32  C   UNL     1      -4.634  14.444  23.339  0.00  0.00    +0.000 A 
ATOM     33 CL   UNL     1      -3.310  15.484  23.776  0.00  0.00    +0.000 Cl
ENDBRANCH  24  27
ENDBRANCH  20  21
ENDBRANCH  19  20
ENDBRANCH  11  19
TORSDOF 4
ENDMDL
MODEL 8
REMARK VINA RESULT:      -7.8      2.846      3.038
REMARK  Name = 
REMARK  5 active torsions:
REMARK  status: ('A' for Active; 'I' for Inactive)
REMARK    1  A    between atoms: C_1  and  N_2
REMARK    2  A    between atoms: N_11  and  C_12
REMARK    3  A    between atoms: C_12  and  C_13
REMARK    4  A    between atoms: C_13  and  N_14
REMARK    5  A    between atoms: N_17  and  C_18
REMARK                            x       y       z     vdW  Elec       q    Type
REMARK                         _______ _______ _______ _____ _____    ______ ____
ROOT
ATOM      1  C   UNL     1      11.053  18.329  17.470  0.00  0.00    +0.000 C 
ATOM      2  N   UNL     1      10.147  17.227  17.723  0.00  0.00    +0.000 N 
ATOM      3  N   UNL     1       8.821  17.551  18.070  0.00  0.00    +0.000 NA
ATOM      4  C   UNL     1       7.948  16.609  18.298  0.00  0.00    +0.000 A 
ATOM      5 CL   UNL     1       6.354  17.095  18.709  0.00  0.00    +0.000 Cl
ATOM      6  C   UNL     1       8.345  15.226  18.188  0.00  0.00    +0.000 A 
ATOM      7  C   UNL     1       7.664  14.038  18.351  0.00  0.00    +0.000 A 
ATOM      8  N   UNL     1       8.545  12.998  18.100  0.00  0.00    +0.000 N 
ATOM      9  N   UNL     1       8.213  11.679  18.115  0.00  0.00    +0.000 NA
ATOM     10  C   UNL     1       9.201  10.866  17.852  0.00  0.00    +0.000 A 
ATOM     11  N   UNL     1       8.999   9.506  17.804  0.00  0.00    +0.000 N 
ATOM     12  C   UNL     1      10.594  11.339  17.572  0.00  0.00    +0.000 A 
ATOM     13  C   UNL     1      10.839  12.648  17.552  0.00  0.00    +0.000 A 
ATOM     14  C   UNL     1       9.782  13.538  17.817  0.00  0.00    +0.000 A 
ATOM     15  C   UNL     1       9.675  14.905  17.853  0.00  0.00    +0.000 A 
ATOM     16  C   UNL     1      10.663  15.925  17.598  0.00  0.00    +0.000 A 
ATOM     17  O   UNL     1      11.825  15.667  17.302  0.00  0.00    +0.000 OA
ATOM     18  H   UNL     1       9.804   8.888  17.871  0.00  0.00    +0.000 HD
ENDROOT
BRANCH  11  19
ATOM     19  C   UNL     1       7.734   8.860  18.086  0.00  0.00    +0.000 C 
BRANCH  19  20
ATOM     20  C   UNL     1       7.913   7.319  18.109  0.00  0.00    +0.000 C 
BRANCH  20  21
ATOM     21  N   UNL     1       7.235   6.604  17.000  0.00  0.00    +0.000 NA
ATOM     22  C   UNL     1       7.150   5.148  17.264  0.00  0.00    +0.000 C 
ATOM     23  C   UNL     1       6.228   4.746  18.435  0.00  0.00    +0.000 C 
ATOM     24  N   UNL     1       4.879   5.298  18.246  0.00  0.00    +0.000 N 
ATOM     25  C   UNL     1       4.831   6.738  17.928  0.00  0.00    +0.000 C 
ATOM     26  C   UNL     1       5.842   7.093  16.806  0.00  0.00    +0.000 C 
BRANCH  24  27
ATOM     27  C   UNL     1       3.742   4.508  18.352  0.00  0.00    +0.000 A 
ATOM     28  C   UNL     1       2.560   4.910  17.695  0.00  0.00    +0.000 A 
ATOM     29  C   UNL     1       1.385   4.150  17.702  0.00  0.00    +0.000 A 
ATOM     30  C   UNL     1       1.355   2.935  18.368  0.00  0.00    +0.000 A 
ATOM     31  C   UNL     1       2.485   2.500  19.040  0.00  0.00    +0.000 A 
ATOM     32  C   UNL     1       3.659   3.275  19.050  0.00  0.00    +0.000 A 
ATOM     33 CL   UNL     1       4.925   2.633  20.057  0.00  0.00    +0.000 Cl
ENDBRANCH  24  27
ENDBRANCH  20  21
ENDBRANCH  19  20
ENDBRANCH  11  19
TORSDOF 4
ENDMDL
MODEL 9
REMARK VINA RESULT:      -7.7      8.036     11.988
REMARK  Name = 
REMARK  5 active torsions:
REMARK  status: ('A' for Active; 'I' for Inactive)
REMARK    1  A    between atoms: C_1  and  N_2
REMARK    2  A    between atoms: N_11  and  C_12
REMARK    3  A    between atoms: C_12  and  C_13
REMARK    4  A    between atoms: C_13  and  N_14
REMARK    5  A    between atoms: N_17  and  C_18
REMARK                            x       y       z     vdW  Elec       q    Type
REMARK                         _______ _______ _______ _____ _____    ______ ____
ROOT
ATOM      1  C   UNL     1       3.709   1.386  18.432  0.00  0.00    +0.000 C 
ATOM      2  N   UNL     1       3.667   2.823  18.250  0.00  0.00    +0.000 N 
ATOM      3  N   UNL     1       4.363   3.352  17.146  0.00  0.00    +0.000 NA
ATOM      4  C   UNL     1       4.356   4.636  16.914  0.00  0.00    +0.000 A 
ATOM      5 CL   UNL     1       5.227   5.191  15.543  0.00  0.00    +0.000 Cl
ATOM      6  C   UNL     1       3.626   5.516  17.792  0.00  0.00    +0.000 A 
ATOM      7  C   UNL     1       3.425   6.881  17.799  0.00  0.00    +0.000 A 
ATOM      8  N   UNL     1       2.613   7.192  18.878  0.00  0.00    +0.000 N 
ATOM      9  N   UNL     1       2.161   8.439  19.174  0.00  0.00    +0.000 NA
ATOM     10  C   UNL     1       1.408   8.507  20.240  0.00  0.00    +0.000 A 
ATOM     11  N   UNL     1       0.856   9.703  20.638  0.00  0.00    +0.000 N 
ATOM     12  C   UNL     1       1.079   7.313  21.083  0.00  0.00    +0.000 A 
ATOM     13  C   UNL     1       1.540   6.118  20.717  0.00  0.00    +0.000 A 
ATOM     14  C   UNL     1       2.339   6.026  19.562  0.00  0.00    +0.000 A 
ATOM     15  C   UNL     1       2.941   4.986  18.902  0.00  0.00    +0.000 A 
ATOM     16  C   UNL     1       2.933   3.571  19.187  0.00  0.00    +0.000 A 
ATOM     17  O   UNL     1       2.340   3.088  20.146  0.00  0.00    +0.000 OA
ATOM     18  H   UNL     1       0.513   9.792  21.591  0.00  0.00    +0.000 HD
ENDROOT
BRANCH  11  19
ATOM     19  C   UNL     1       1.093  10.969  19.975  0.00  0.00    +0.000 C 
BRANCH  19  20
ATOM     20  C   UNL     1       0.247  12.087  20.638  0.00  0.00    +0.000 C 
BRANCH  20  21
ATOM     21  N   UNL     1      -1.056  11.632  21.184  0.00  0.00    +0.000 NA
ATOM     22  C   UNL     1      -1.167  11.918  22.635  0.00  0.00    +0.000 C 
ATOM     23  C   UNL     1      -1.236  13.415  23.005  0.00  0.00    +0.000 C 
ATOM     24  N   UNL     1      -2.331  14.077  22.281  0.00  0.00    +0.000 N 
ATOM     25  C   UNL     1      -2.359  13.830  20.826  0.00  0.00    +0.000 C 
ATOM     26  C   UNL     1      -2.196  12.318  20.517  0.00  0.00    +0.000 C 
BRANCH  24  27
ATOM     27  C   UNL     1      -3.269  14.867  22.932  0.00  0.00    +0.000 A 
ATOM     28  C   UNL     1      -4.586  14.387  23.088  0.00  0.00    +0.000 A 
ATOM     29  C   UNL     1      -5.580  15.090  23.777  0.00  0.00    +0.000 A 
ATOM     30  C   UNL     1      -5.283  16.315  24.355  0.00  0.00    +0.000 A 
ATOM     31  C   UNL     1      -4.007  16.838  24.220  0.00  0.00    +0.000 A 
ATOM     32  C   UNL     1      -3.014  16.140  23.509  0.00  0.00    +0.000 A 
ATOM     33 CL   UNL     1      -1.521  17.015  23.330  0.00  0.00    +0.000 Cl
ENDBRANCH  24  27
ENDBRANCH  20  21
ENDBRANCH  19  20
ENDBRANCH  11  19
TORSDOF 4
ENDMDL
