MODEL 1
REMARK VINA RESULT:      -7.0      0.000      0.000
REMARK  Name = 
REMARK  11 active torsions:
REMARK  status: ('A' for Active; 'I' for Inactive)
REMARK    1  A    between atoms: C_1  and  C_2
REMARK    2  A    between atoms: C_2  and  C_3
REMARK    3  A    between atoms: C_2  and  N_4
REMARK    4  A    between atoms: N_4  and  C_5
REMARK    5  A    between atoms: C_5  and  C_6
REMARK    6  A    between atoms: C_6  and  O_7
REMARK    7  A    between atoms: C_6  and  C_8
REMARK    8  A    between atoms: C_8  and  O_9
REMARK    9  A    between atoms: O_9  and  C_10
REMARK   10  A    between atoms: C_13  and  O_14
REMARK   11  A    between atoms: O_14  and  C_15
REMARK                            x       y       z     vdW  Elec       q    Type
REMARK                         _______ _______ _______ _____ _____    ______ ____
ROOT
ATOM      1  C   UNL     1       2.393   6.885  19.576  0.00  0.00    +0.000 A 
ATOM      2  C   UNL     1       1.713   7.692  20.489  0.00  0.00    +0.000 A 
ATOM      3  C   UNL     1       1.176   8.913  20.099  0.00  0.00    +0.000 A 
ATOM      4  C   UNL     1       1.323   9.350  18.789  0.00  0.00    +0.000 A 
ATOM      5  C   UNL     1       1.963   8.538  17.852  0.00  0.00    +0.000 A 
ATOM      6  C   UNL     1       2.524   7.315  18.251  0.00  0.00    +0.000 A 
ENDROOT
BRANCH   1   7
ATOM      7  O   UNL     1       2.958   5.669  19.876  0.00  0.00    +0.000 OA
BRANCH   7   8
ATOM      8  C   UNL     1       4.264   5.469  19.308  0.00  0.00    +0.000 C 
BRANCH   8   9
ATOM      9  C   UNL     1       4.437   4.025  18.837  0.00  0.00    +0.000 C 
BRANCH   9  10
ATOM     10  O   UNL     1       5.774   3.576  19.088  0.00  0.00    +0.000 OA
ATOM     11  H   UNL     1       6.095   3.189  18.251  0.00  0.00    +0.000 HD
ENDBRANCH   9  10
BRANCH   9  12
ATOM     12  C   UNL     1       4.100   3.900  17.343  0.00  0.00    +0.000 C 
BRANCH  12  13
ATOM     13  N   UNL     1       5.308   3.550  16.588  0.00  0.00    +0.000 NA
ATOM     14  H   UNL     1       6.060   3.376  17.261  0.00  0.00    +0.000 HD
BRANCH  13  16
ATOM     15  C   UNL     1       6.879   5.357  16.222  0.00  0.00    +0.000 C 
ATOM     16  C   UNL     1       5.706   4.579  15.624  0.00  0.00    +0.000 C 
ATOM     17  C   UNL     1       6.121   3.973  14.281  0.00  0.00    +0.000 C 
ENDBRANCH  13  16
ENDBRANCH  12  13
ENDBRANCH   9  12
ENDBRANCH   8   9
ENDBRANCH   7   8
ENDBRANCH   1   7
BRANCH   4  18
ATOM     18  O   UNL     1       0.734  10.558  18.514  0.00  0.00    +0.000 OA
BRANCH  18  19
ATOM     19  C   UNL     1      -0.620  10.638  18.307  0.00  0.00    +0.000 A 
ATOM     20  C   UNL     1      -1.269  11.632  19.041  0.00  0.00    +0.000 A 
ATOM     21  C   UNL     1      -2.652  11.797  18.928  0.00  0.00    +0.000 A 
ATOM     22  C   UNL     1      -3.376  10.970  18.075  0.00  0.00    +0.000 A 
ATOM     23 CL   UNL     1      -5.085  11.144  17.962  0.00  0.00    +0.000 Cl
ATOM     24  C   UNL     1      -2.728  10.005  17.307  0.00  0.00    +0.000 A 
ATOM     25  C   UNL     1      -1.341   9.858  17.399  0.00  0.00    +0.000 A 
ENDBRANCH  18  19
ENDBRANCH   4  18
TORSDOF 9
ENDMDL
MODEL 2
REMARK VINA RESULT:      -6.9      1.818      2.894
REMARK  Name = 
REMARK  11 active torsions:
REMARK  status: ('A' for Active; 'I' for Inactive)
REMARK    1  A    between atoms: C_1  and  C_2
REMARK    2  A    between atoms: C_2  and  C_3
REMARK    3  A    between atoms: C_2  and  N_4
REMARK    4  A    between atoms: N_4  and  C_5
REMARK    5  A    between atoms: C_5  and  C_6
REMARK    6  A    between atoms: C_6  and  O_7
REMARK    7  A    between atoms: C_6  and  C_8
REMARK    8  A    between atoms: C_8  and  O_9
REMARK    9  A    between atoms: O_9  and  C_10
REMARK   10  A    between atoms: C_13  and  O_14
REMARK   11  A    between atoms: O_14  and  C_15
REMARK                            x       y       z     vdW  Elec       q    Type
REMARK                         _______ _______ _______ _____ _____    ______ ____
ROOT
ATOM      1  C   UNL     1       2.508   7.252  19.469  0.00  0.00    +0.000 A 
ATOM      2  C   UNL     1       2.576   7.793  18.184  0.00  0.00    +0.000 A 
ATOM      3  C   UNL     1       1.862   8.939  17.855  0.00  0.00    +0.000 A 
ATOM      4  C   UNL     1       1.060   9.555  18.808  0.00  0.00    +0.000 A 
ATOM      5  C   UNL     1       1.013   9.054  20.107  0.00  0.00    +0.000 A 
ATOM      6  C   UNL     1       1.715   7.884  20.435  0.00  0.00    +0.000 A 
ENDROOT
BRANCH   1   7
ATOM      7  O   UNL     1       3.174   6.123  19.878  0.00  0.00    +0.000 OA
BRANCH   7   8
ATOM      8  C   UNL     1       4.176   5.661  18.955  0.00  0.00    +0.000 C 
BRANCH   8   9
ATOM      9  C   UNL     1       4.674   4.270  19.344  0.00  0.00    +0.000 C 
BRANCH   9  10
ATOM     10  O   UNL     1       5.786   3.891  18.524  0.00  0.00    +0.000 OA
ATOM     11  H   UNL     1       5.451   3.221  17.899  0.00  0.00    +0.000 HD
ENDBRANCH   9  10
BRANCH   9  12
ATOM     12  C   UNL     1       3.542   3.237  19.222  0.00  0.00    +0.000 C 
BRANCH  12  13
ATOM     13  N   UNL     1       2.456   3.783  18.400  0.00  0.00    +0.000 NA
ATOM     14  H   UNL     1       2.600   4.793  18.321  0.00  0.00    +0.000 HD
BRANCH  13  16
ATOM     15  C   UNL     1       0.837   2.008  18.704  0.00  0.00    +0.000 C 
ATOM     16  C   UNL     1       1.124   3.491  18.934  0.00  0.00    +0.000 C 
ATOM     17  C   UNL     1       1.027   3.809  20.429  0.00  0.00    +0.000 C 
ENDBRANCH  13  16
ENDBRANCH  12  13
ENDBRANCH   9  12
ENDBRANCH   8   9
ENDBRANCH   7   8
ENDBRANCH   1   7
BRANCH   4  18
ATOM     18  O   UNL     1       0.421  10.691  18.376  0.00  0.00    +0.000 OA
BRANCH  18  19
ATOM     19  C   UNL     1      -0.938  10.693  18.187  0.00  0.00    +0.000 A 
ATOM     20  C   UNL     1      -1.628  11.675  18.899  0.00  0.00    +0.000 A 
ATOM     21  C   UNL     1      -3.019  11.764  18.801  0.00  0.00    +0.000 A 
ATOM     22  C   UNL     1      -3.709  10.873  17.984  0.00  0.00    +0.000 A 
ATOM     23 CL   UNL     1      -5.426  10.954  17.891  0.00  0.00    +0.000 Cl
ATOM     24  C   UNL     1      -3.021   9.920  17.237  0.00  0.00    +0.000 A 
ATOM     25  C   UNL     1      -1.627   9.849  17.314  0.00  0.00    +0.000 A 
ENDBRANCH  18  19
ENDBRANCH   4  18
TORSDOF 9
ENDMDL
MODEL 3
REMARK VINA RESULT:      -6.8      1.098      1.585
REMARK  Name = 
REMARK  11 active torsions:
REMARK  status: ('A' for Active; 'I' for Inactive)
REMARK    1  A    between atoms: C_1  and  C_2
REMARK    2  A    between atoms: C_2  and  C_3
REMARK    3  A    between atoms: C_2  and  N_4
REMARK    4  A    between atoms: N_4  and  C_5
REMARK    5  A    between atoms: C_5  and  C_6
REMARK    6  A    between atoms: C_6  and  O_7
REMARK    7  A    between atoms: C_6  and  C_8
REMARK    8  A    between atoms: C_8  and  O_9
REMARK    9  A    between atoms: O_9  and  C_10
REMARK   10  A    between atoms: C_13  and  O_14
REMARK   11  A    between atoms: O_14  and  C_15
REMARK                            x       y       z     vdW  Elec       q    Type
REMARK                         _______ _______ _______ _____ _____    ______ ____
ROOT
ATOM      1  C   UNL     1       2.629   7.196  19.013  0.00  0.00    +0.000 A 
ATOM      2  C   UNL     1       2.631   7.977  17.856  0.00  0.00    +0.000 A 
ATOM      3  C   UNL     1       1.900   9.157  17.792  0.00  0.00    +0.000 A 
ATOM      4  C   UNL     1       1.146   9.567  18.885  0.00  0.00    +0.000 A 
ATOM      5  C   UNL     1       1.166   8.823  20.063  0.00  0.00    +0.000 A 
ATOM      6  C   UNL     1       1.886   7.619  20.121  0.00  0.00    +0.000 A 
ENDROOT
BRANCH   1   7
ATOM      7  O   UNL     1       3.317   6.016  19.162  0.00  0.00    +0.000 OA
BRANCH   7   8
ATOM      8  C   UNL     1       2.504   4.837  19.021  0.00  0.00    +0.000 C 
BRANCH   8   9
ATOM      9  C   UNL     1       2.836   4.101  17.723  0.00  0.00    +0.000 C 
BRANCH   9  10
ATOM     10  O   UNL     1       1.732   3.282  17.319  0.00  0.00    +0.000 OA
ATOM     11  H   UNL     1       1.761   3.243  16.345  0.00  0.00    +0.000 HD
ENDBRANCH   9  10
BRANCH   9  12
ATOM     12  C   UNL     1       4.102   3.247  17.895  0.00  0.00    +0.000 C 
BRANCH  12  13
ATOM     13  N   UNL     1       5.279   4.010  17.466  0.00  0.00    +0.000 NA
ATOM     14  H   UNL     1       5.478   4.712  18.184  0.00  0.00    +0.000 HD
BRANCH  13  16
ATOM     15  C   UNL     1       5.510   6.114  16.289  0.00  0.00    +0.000 C 
ATOM     16  C   UNL     1       5.111   4.644  16.156  0.00  0.00    +0.000 C 
ATOM     17  C   UNL     1       5.971   3.972  15.083  0.00  0.00    +0.000 C 
ENDBRANCH  13  16
ENDBRANCH  12  13
ENDBRANCH   9  12
ENDBRANCH   8   9
ENDBRANCH   7   8
ENDBRANCH   1   7
BRANCH   4  18
ATOM     18  O   UNL     1       0.485  10.758  18.715  0.00  0.00    +0.000 OA
BRANCH  18  19
ATOM     19  C   UNL     1      -0.852  10.771  18.409  0.00  0.00    +0.000 A 
ATOM     20  C   UNL     1      -1.599  11.740  19.080  0.00  0.00    +0.000 A 
ATOM     21  C   UNL     1      -2.976  11.838  18.865  0.00  0.00    +0.000 A 
ATOM     22  C   UNL     1      -3.596  10.969  17.972  0.00  0.00    +0.000 A 
ATOM     23 CL   UNL     1      -5.298  11.060  17.733  0.00  0.00    +0.000 Cl
ATOM     24  C   UNL     1      -2.849  10.028  17.266  0.00  0.00    +0.000 A 
ATOM     25  C   UNL     1      -1.467   9.949  17.462  0.00  0.00    +0.000 A 
ENDBRANCH  18  19
ENDBRANCH   4  18
TORSDOF 9
ENDMDL
MODEL 4
REMARK VINA RESULT:      -6.7      1.312      1.859
REMARK  Name = 
REMARK  11 active torsions:
REMARK  status: ('A' for Active; 'I' for Inactive)
REMARK    1  A    between atoms: C_1  and  C_2
REMARK    2  A    between atoms: C_2  and  C_3
REMARK    3  A    between atoms: C_2  and  N_4
REMARK    4  A    between atoms: N_4  and  C_5
REMARK    5  A    between atoms: C_5  and  C_6
REMARK    6  A    between atoms: C_6  and  O_7
REMARK    7  A    between atoms: C_6  and  C_8
REMARK    8  A    between atoms: C_8  and  O_9
REMARK    9  A    between atoms: O_9  and  C_10
REMARK   10  A    between atoms: C_13  and  O_14
REMARK   11  A    between atoms: O_14  and  C_15
REMARK                            x       y       z     vdW  Elec       q    Type
REMARK                         _______ _______ _______ _____ _____    ______ ____
ROOT
ATOM      1  C   UNL     1       2.598   6.907  19.323  0.00  0.00    +0.000 A 
ATOM      2  C   UNL     1       2.673   7.549  18.086  0.00  0.00    +0.000 A 
ATOM      3  C   UNL     1       2.027   8.761  17.873  0.00  0.00    +0.000 A 
ATOM      4  C   UNL     1       1.286   9.342  18.894  0.00  0.00    +0.000 A 
ATOM      5  C   UNL     1       1.235   8.737  20.148  0.00  0.00    +0.000 A 
ATOM      6  C   UNL     1       1.869   7.503  20.359  0.00  0.00    +0.000 A 
ENDROOT
BRANCH   1   7
ATOM      7  O   UNL     1       3.200   5.708  19.620  0.00  0.00    +0.000 OA
BRANCH   7   8
ATOM      8  C   UNL     1       2.582   4.568  18.998  0.00  0.00    +0.000 C 
BRANCH   8   9
ATOM      9  C   UNL     1       3.607   3.462  18.749  0.00  0.00    +0.000 C 
BRANCH   9  10
ATOM     10  O   UNL     1       4.111   2.961  19.993  0.00  0.00    +0.000 OA
ATOM     11  H   UNL     1       3.420   3.137  20.660  0.00  0.00    +0.000 HD
ENDBRANCH   9  10
BRANCH   9  12
ATOM     12  C   UNL     1       4.759   3.981  17.874  0.00  0.00    +0.000 C 
BRANCH  12  13
ATOM     13  N   UNL     1       5.951   4.204  18.701  0.00  0.00    +0.000 NA
ATOM     14  H   UNL     1       5.638   4.506  19.628  0.00  0.00    +0.000 HD
BRANCH  13  16
ATOM     15  C   UNL     1       6.051   6.312  17.513  0.00  0.00    +0.000 C 
ATOM     16  C   UNL     1       6.877   5.182  18.126  0.00  0.00    +0.000 C 
ATOM     17  C   UNL     1       7.829   5.754  19.180  0.00  0.00    +0.000 C 
ENDBRANCH  13  16
ENDBRANCH  12  13
ENDBRANCH   9  12
ENDBRANCH   8   9
ENDBRANCH   7   8
ENDBRANCH   1   7
BRANCH   4  18
ATOM     18  O   UNL     1       0.712  10.548  18.575  0.00  0.00    +0.000 OA
BRANCH  18  19
ATOM     19  C   UNL     1      -0.638  10.634  18.344  0.00  0.00    +0.000 A 
ATOM     20  C   UNL     1      -1.293  11.637  19.058  0.00  0.00    +0.000 A 
ATOM     21  C   UNL     1      -2.673  11.809  18.920  0.00  0.00    +0.000 A 
ATOM     22  C   UNL     1      -3.387  10.979  18.061  0.00  0.00    +0.000 A 
ATOM     23 CL   UNL     1      -5.092  11.162  17.917  0.00  0.00    +0.000 Cl
ATOM     24  C   UNL     1      -2.731  10.005  17.312  0.00  0.00    +0.000 A 
ATOM     25  C   UNL     1      -1.347   9.851  17.430  0.00  0.00    +0.000 A 
ENDBRANCH  18  19
ENDBRANCH   4  18
TORSDOF 9
ENDMDL
MODEL 5
REMARK VINA RESULT:      -6.7      1.855      3.034
REMARK  Name = 
REMARK  11 active torsions:
REMARK  status: ('A' for Active; 'I' for Inactive)
REMARK    1  A    between atoms: C_1  and  C_2
REMARK    2  A    between atoms: C_2  and  C_3
REMARK    3  A    between atoms: C_2  and  N_4
REMARK    4  A    between atoms: N_4  and  C_5
REMARK    5  A    between atoms: C_5  and  C_6
REMARK    6  A    between atoms: C_6  and  O_7
REMARK    7  A    between atoms: C_6  and  C_8
REMARK    8  A    between atoms: C_8  and  O_9
REMARK    9  A    between atoms: O_9  and  C_10
REMARK   10  A    between atoms: C_13  and  O_14
REMARK   11  A    between atoms: O_14  and  C_15
REMARK                            x       y       z     vdW  Elec       q    Type
REMARK                         _______ _______ _______ _____ _____    ______ ____
ROOT
ATOM      1  C   UNL     1       2.919   6.850  18.535  0.00  0.00    +0.000 A 
ATOM      2  C   UNL     1       2.817   7.938  17.665  0.00  0.00    +0.000 A 
ATOM      3  C   UNL     1       2.087   9.066  18.018  0.00  0.00    +0.000 A 
ATOM      4  C   UNL     1       1.438   9.117  19.245  0.00  0.00    +0.000 A 
ATOM      5  C   UNL     1       1.563   8.059  20.144  0.00  0.00    +0.000 A 
ATOM      6  C   UNL     1       2.282   6.910  19.779  0.00  0.00    +0.000 A 
ENDROOT
BRANCH   1   7
ATOM      7  O   UNL     1       3.614   5.697  18.266  0.00  0.00    +0.000 OA
BRANCH   7   8
ATOM      8  C   UNL     1       4.717   5.451  19.156  0.00  0.00    +0.000 C 
BRANCH   8   9
ATOM      9  C   UNL     1       5.257   4.033  18.973  0.00  0.00    +0.000 C 
BRANCH   9  10
ATOM     10  O   UNL     1       5.906   3.907  17.702  0.00  0.00    +0.000 OA
ATOM     11  H   UNL     1       5.902   2.955  17.484  0.00  0.00    +0.000 HD
ENDBRANCH   9  10
BRANCH   9  12
ATOM     12  C   UNL     1       4.124   3.002  19.101  0.00  0.00    +0.000 C 
BRANCH  12  13
ATOM     13  N   UNL     1       3.192   3.416  20.156  0.00  0.00    +0.000 NA
ATOM     14  H   UNL     1       3.690   3.375  21.049  0.00  0.00    +0.000 HD
BRANCH  13  16
ATOM     15  C   UNL     1       1.401   2.696  21.619  0.00  0.00    +0.000 C 
ATOM     16  C   UNL     1       1.977   2.599  20.206  0.00  0.00    +0.000 C 
ATOM     17  C   UNL     1       0.932   3.069  19.190  0.00  0.00    +0.000 C 
ENDBRANCH  13  16
ENDBRANCH  12  13
ENDBRANCH   9  12
ENDBRANCH   8   9
ENDBRANCH   7   8
ENDBRANCH   1   7
BRANCH   4  18
ATOM     18  O   UNL     1       0.767  10.289  19.494  0.00  0.00    +0.000 OA
BRANCH  18  19
ATOM     19  C   UNL     1      -0.451  10.529  18.909  0.00  0.00    +0.000 A 
ATOM     20  C   UNL     1      -1.193  11.553  19.498  0.00  0.00    +0.000 A 
ATOM     21  C   UNL     1      -2.458  11.876  19.000  0.00  0.00    +0.000 A 
ATOM     22  C   UNL     1      -2.969  11.176  17.912  0.00  0.00    +0.000 A 
ATOM     23 CL   UNL     1      -4.543  11.544  17.320  0.00  0.00    +0.000 Cl
ATOM     24  C   UNL     1      -2.214  10.182  17.293  0.00  0.00    +0.000 A 
ATOM     25  C   UNL     1      -0.937   9.878  17.773  0.00  0.00    +0.000 A 
ENDBRANCH  18  19
ENDBRANCH   4  18
TORSDOF 9
ENDMDL
MODEL 6
REMARK VINA RESULT:      -6.7      1.723      3.133
REMARK  Name = 
REMARK  11 active torsions:
REMARK  status: ('A' for Active; 'I' for Inactive)
REMARK    1  A    between atoms: C_1  and  C_2
REMARK    2  A    between atoms: C_2  and  C_3
REMARK    3  A    between atoms: C_2  and  N_4
REMARK    4  A    between atoms: N_4  and  C_5
REMARK    5  A    between atoms: C_5  and  C_6
REMARK    6  A    between atoms: C_6  and  O_7
REMARK    7  A    between atoms: C_6  and  C_8
REMARK    8  A    between atoms: C_8  and  O_9
REMARK    9  A    between atoms: O_9  and  C_10
REMARK   10  A    between atoms: C_13  and  O_14
REMARK   11  A    between atoms: O_14  and  C_15
REMARK                            x       y       z     vdW  Elec       q    Type
REMARK                         _______ _______ _______ _____ _____    ______ ____
ROOT
ATOM      1  C   UNL     1       2.600   7.352  19.057  0.00  0.00    +0.000 A 
ATOM      2  C   UNL     1       2.598   8.113  17.886  0.00  0.00    +0.000 A 
ATOM      3  C   UNL     1       1.840   9.274  17.793  0.00  0.00    +0.000 A 
ATOM      4  C   UNL     1       1.063   9.685  18.868  0.00  0.00    +0.000 A 
ATOM      5  C   UNL     1       1.085   8.962  20.060  0.00  0.00    +0.000 A 
ATOM      6  C   UNL     1       1.833   7.777  20.148  0.00  0.00    +0.000 A 
ENDROOT
BRANCH   1   7
ATOM      7  O   UNL     1       3.313   6.192  19.235  0.00  0.00    +0.000 OA
BRANCH   7   8
ATOM      8  C   UNL     1       4.168   5.849  18.130  0.00  0.00    +0.000 C 
BRANCH   8   9
ATOM      9  C   UNL     1       4.276   4.333  17.976  0.00  0.00    +0.000 C 
BRANCH   9  10
ATOM     10  O   UNL     1       3.200   3.835  17.172  0.00  0.00    +0.000 OA
ATOM     11  H   UNL     1       2.411   4.353  17.419  0.00  0.00    +0.000 HD
ENDBRANCH   9  10
BRANCH   9  12
ATOM     12  C   UNL     1       4.278   3.649  19.353  0.00  0.00    +0.000 C 
BRANCH  12  13
ATOM     13  N   UNL     1       2.997   2.967  19.572  0.00  0.00    +0.000 NA
ATOM     14  H   UNL     1       2.460   3.021  18.702  0.00  0.00    +0.000 HD
BRANCH  13  16
ATOM     15  C   UNL     1       0.874   3.980  20.146  0.00  0.00    +0.000 C 
ATOM     16  C   UNL     1       2.229   3.525  20.688  0.00  0.00    +0.000 C 
ATOM     17  C   UNL     1       2.019   2.498  21.804  0.00  0.00    +0.000 C 
ENDBRANCH  13  16
ENDBRANCH  12  13
ENDBRANCH   9  12
ENDBRANCH   8   9
ENDBRANCH   7   8
ENDBRANCH   1   7
BRANCH   4  18
ATOM     18  O   UNL     1       0.376  10.856  18.669  0.00  0.00    +0.000 OA
BRANCH  18  19
ATOM     19  C   UNL     1      -0.966  10.833  18.385  0.00  0.00    +0.000 A 
ATOM     20  C   UNL     1      -1.723  11.800  19.048  0.00  0.00    +0.000 A 
ATOM     21  C   UNL     1      -3.105  11.864  18.853  0.00  0.00    +0.000 A 
ATOM     22  C   UNL     1      -3.720  10.962  17.990  0.00  0.00    +0.000 A 
ATOM     23 CL   UNL     1      -5.428  11.010  17.777  0.00  0.00    +0.000 Cl
ATOM     24  C   UNL     1      -2.964  10.022  17.292  0.00  0.00    +0.000 A 
ATOM     25  C   UNL     1      -1.578   9.978  17.466  0.00  0.00    +0.000 A 
ENDBRANCH  18  19
ENDBRANCH   4  18
TORSDOF 9
ENDMDL
MODEL 7
REMARK VINA RESULT:      -6.7      1.806      2.859
REMARK  Name = 
REMARK  11 active torsions:
REMARK  status: ('A' for Active; 'I' for Inactive)
REMARK    1  A    between atoms: C_1  and  C_2
REMARK    2  A    between atoms: C_2  and  C_3
REMARK    3  A    between atoms: C_2  and  N_4
REMARK    4  A    between atoms: N_4  and  C_5
REMARK    5  A    between atoms: C_5  and  C_6
REMARK    6  A    between atoms: C_6  and  O_7
REMARK    7  A    between atoms: C_6  and  C_8
REMARK    8  A    between atoms: C_8  and  O_9
REMARK    9  A    between atoms: O_9  and  C_10
REMARK   10  A    between atoms: C_13  and  O_14
REMARK   11  A    between atoms: O_14  and  C_15
REMARK                            x       y       z     vdW  Elec       q    Type
REMARK                         _______ _______ _______ _____ _____    ______ ____
ROOT
ATOM      1  C   UNL     1       2.803   7.042  18.568  0.00  0.00    +0.000 A 
ATOM      2  C   UNL     1       2.161   7.228  19.794  0.00  0.00    +0.000 A 
ATOM      3  C   UNL     1       1.442   8.388  20.053  0.00  0.00    +0.000 A 
ATOM      4  C   UNL     1       1.364   9.387  19.090  0.00  0.00    +0.000 A 
ATOM      5  C   UNL     1       1.962   9.201  17.845  0.00  0.00    +0.000 A 
ATOM      6  C   UNL     1       2.708   8.040  17.590  0.00  0.00    +0.000 A 
ENDROOT
BRANCH   1   7
ATOM      7  O   UNL     1       3.537   5.932  18.229  0.00  0.00    +0.000 OA
BRANCH   7   8
ATOM      8  C   UNL     1       4.604   5.628  19.145  0.00  0.00    +0.000 C 
BRANCH   8   9
ATOM      9  C   UNL     1       4.822   4.119  19.243  0.00  0.00    +0.000 C 
BRANCH   9  10
ATOM     10  O   UNL     1       6.127   3.772  18.764  0.00  0.00    +0.000 OA
ATOM     11  H   UNL     1       6.515   4.593  18.405  0.00  0.00    +0.000 HD
ENDBRANCH   9  10
BRANCH   9  12
ATOM     12  C   UNL     1       3.743   3.364  18.451  0.00  0.00    +0.000 C 
BRANCH  12  13
ATOM     13  N   UNL     1       2.919   2.567  19.367  0.00  0.00    +0.000 NA
ATOM     14  H   UNL     1       2.224   2.064  18.808  0.00  0.00    +0.000 HD
BRANCH  13  16
ATOM     15  C   UNL     1       0.857   3.714  19.914  0.00  0.00    +0.000 C 
ATOM     16  C   UNL     1       2.264   3.370  20.403  0.00  0.00    +0.000 C 
ATOM     17  C   UNL     1       2.177   2.621  21.735  0.00  0.00    +0.000 C 
ENDBRANCH  13  16
ENDBRANCH  12  13
ENDBRANCH   9  12
ENDBRANCH   8   9
ENDBRANCH   7   8
ENDBRANCH   1   7
BRANCH   4  18
ATOM     18  O   UNL     1       0.609  10.476  19.449  0.00  0.00    +0.000 OA
BRANCH  18  19
ATOM     19  C   UNL     1      -0.633  10.669  18.900  0.00  0.00    +0.000 A 
ATOM     20  C   UNL     1      -1.400  11.658  19.517  0.00  0.00    +0.000 A 
ATOM     21  C   UNL     1      -2.691  11.932  19.057  0.00  0.00    +0.000 A 
ATOM     22  C   UNL     1      -3.203  11.219  17.978  0.00  0.00    +0.000 A 
ATOM     23 CL   UNL     1      -4.807  11.526  17.433  0.00  0.00    +0.000 Cl
ATOM     24  C   UNL     1      -2.426  10.261  17.330  0.00  0.00    +0.000 A 
ATOM     25  C   UNL     1      -1.124  10.006  17.773  0.00  0.00    +0.000 A 
ENDBRANCH  18  19
ENDBRANCH   4  18
TORSDOF 9
ENDMDL
MODEL 8
REMARK VINA RESULT:      -6.7      5.260      8.093
REMARK  Name = 
REMARK  11 active torsions:
REMARK  status: ('A' for Active; 'I' for Inactive)
REMARK    1  A    between atoms: C_1  and  C_2
REMARK    2  A    between atoms: C_2  and  C_3
REMARK    3  A    between atoms: C_2  and  N_4
REMARK    4  A    between atoms: N_4  and  C_5
REMARK    5  A    between atoms: C_5  and  C_6
REMARK    6  A    between atoms: C_6  and  O_7
REMARK    7  A    between atoms: C_6  and  C_8
REMARK    8  A    between atoms: C_8  and  O_9
REMARK    9  A    between atoms: O_9  and  C_10
REMARK   10  A    between atoms: C_13  and  O_14
REMARK   11  A    between atoms: O_14  and  C_15
REMARK                            x       y       z     vdW  Elec       q    Type
REMARK                         _______ _______ _______ _____ _____    ______ ____
ROOT
ATOM      1  C   UNL     1       4.811   5.910  18.672  0.00  0.00    +0.000 A 
ATOM      2  C   UNL     1       4.489   6.533  17.465  0.00  0.00    +0.000 A 
ATOM      3  C   UNL     1       5.360   6.484  16.383  0.00  0.00    +0.000 A 
ATOM      4  C   UNL     1       6.573   5.817  16.498  0.00  0.00    +0.000 A 
ATOM      5  C   UNL     1       6.893   5.152  17.681  0.00  0.00    +0.000 A 
ATOM      6  C   UNL     1       6.024   5.220  18.781  0.00  0.00    +0.000 A 
ENDROOT
BRANCH   1   7
ATOM      7  O   UNL     1       4.014   5.913  19.791  0.00  0.00    +0.000 OA
BRANCH   7   8
ATOM      8  C   UNL     1       2.617   6.119  19.520  0.00  0.00    +0.000 C 
BRANCH   8   9
ATOM      9  C   UNL     1       1.753   5.222  20.405  0.00  0.00    +0.000 C 
BRANCH   9  10
ATOM     10  O   UNL     1       2.450   4.894  21.613  0.00  0.00    +0.000 OA
ATOM     11  H   UNL     1       1.798   4.965  22.335  0.00  0.00    +0.000 HD
ENDBRANCH   9  10
BRANCH   9  12
ATOM     12  C   UNL     1       1.354   3.943  19.652  0.00  0.00    +0.000 C 
BRANCH  12  13
ATOM     13  N   UNL     1       2.465   3.498  18.803  0.00  0.00    +0.000 NA
ATOM     14  H   UNL     1       2.128   3.467  17.836  0.00  0.00    +0.000 HD
BRANCH  13  16
ATOM     15  C   UNL     1       3.507   1.490  17.939  0.00  0.00    +0.000 C 
ATOM     16  C   UNL     1       3.011   2.199  19.200  0.00  0.00    +0.000 C 
ATOM     17  C   UNL     1       4.166   2.346  20.195  0.00  0.00    +0.000 C 
ENDBRANCH  13  16
ENDBRANCH  12  13
ENDBRANCH   9  12
ENDBRANCH   8   9
ENDBRANCH   7   8
ENDBRANCH   1   7
BRANCH   4  18
ATOM     18  O   UNL     1       7.339   5.815  15.359  0.00  0.00    +0.000 OA
BRANCH  18  19
ATOM     19  C   UNL     1       7.006   5.009  14.300  0.00  0.00    +0.000 A 
ATOM     20  C   UNL     1       5.899   4.186  14.513  0.00  0.00    +0.000 A 
ATOM     21  C   UNL     1       5.476   3.308  13.512  0.00  0.00    +0.000 A 
ATOM     22  C   UNL     1       6.159   3.264  12.301  0.00  0.00    +0.000 A 
ATOM     23 CL   UNL     1       5.665   2.156  11.080  0.00  0.00    +0.000 Cl
ATOM     24  C   UNL     1       7.238   4.114  12.066  0.00  0.00    +0.000 A 
ATOM     25  C   UNL     1       7.644   5.012  13.058  0.00  0.00    +0.000 A 
ENDBRANCH  18  19
ENDBRANCH   4  18
TORSDOF 9
ENDMDL
MODEL 9
REMARK VINA RESULT:      -6.7      1.205      1.410
REMARK  Name = 
REMARK  11 active torsions:
REMARK  status: ('A' for Active; 'I' for Inactive)
REMARK    1  A    between atoms: C_1  and  C_2
REMARK    2  A    between atoms: C_2  and  C_3
REMARK    3  A    between atoms: C_2  and  N_4
REMARK    4  A    between atoms: N_4  and  C_5
REMARK    5  A    between atoms: C_5  and  C_6
REMARK    6  A    between atoms: C_6  and  O_7
REMARK    7  A    between atoms: C_6  and  C_8
REMARK    8  A    between atoms: C_8  and  O_9
REMARK    9  A    between atoms: O_9  and  C_10
REMARK   10  A    between atoms: C_13  and  O_14
REMARK   11  A    between atoms: O_14  and  C_15
REMARK                            x       y       z     vdW  Elec       q    Type
REMARK                         _______ _______ _______ _____ _____    ______ ____
ROOT
ATOM      1  C   UNL     1       2.535   6.688  19.444  0.00  0.00    +0.000 A 
ATOM      2  C   UNL     1       1.857   7.451  20.396  0.00  0.00    +0.000 A 
ATOM      3  C   UNL     1       1.338   8.699  20.070  0.00  0.00    +0.000 A 
ATOM      4  C   UNL     1       1.502   9.205  18.787  0.00  0.00    +0.000 A 
ATOM      5  C   UNL     1       2.139   8.439  17.812  0.00  0.00    +0.000 A 
ATOM      6  C   UNL     1       2.683   7.189  18.146  0.00  0.00    +0.000 A 
ENDROOT
BRANCH   1   7
ATOM      7  O   UNL     1       3.083   5.450  19.680  0.00  0.00    +0.000 OA
BRANCH   7   8
ATOM      8  C   UNL     1       2.259   4.350  19.258  0.00  0.00    +0.000 C 
BRANCH   8   9
ATOM      9  C   UNL     1       3.113   3.127  18.926  0.00  0.00    +0.000 C 
BRANCH   9  10
ATOM     10  O   UNL     1       3.694   2.587  20.119  0.00  0.00    +0.000 OA
ATOM     11  H   UNL     1       3.060   1.927  20.459  0.00  0.00    +0.000 HD
ENDBRANCH   9  10
BRANCH   9  12
ATOM     12  C   UNL     1       4.210   3.493  17.913  0.00  0.00    +0.000 C 
BRANCH  12  13
ATOM     13  N   UNL     1       5.482   3.703  18.612  0.00  0.00    +0.000 NA
ATOM     14  H   UNL     1       5.282   3.783  19.613  0.00  0.00    +0.000 HD
BRANCH  13  16
ATOM     15  C   UNL     1       6.890   5.533  19.343  0.00  0.00    +0.000 C 
ATOM     16  C   UNL     1       6.214   4.880  18.138  0.00  0.00    +0.000 C 
ATOM     17  C   UNL     1       7.271   4.511  17.093  0.00  0.00    +0.000 C 
ENDBRANCH  13  16
ENDBRANCH  12  13
ENDBRANCH   9  12
ENDBRANCH   8   9
ENDBRANCH   7   8
ENDBRANCH   1   7
BRANCH   4  18
ATOM     18  O   UNL     1       0.929  10.434  18.575  0.00  0.00    +0.000 OA
BRANCH  18  19
ATOM     19  C   UNL     1      -0.419  10.541  18.343  0.00  0.00    +0.000 A 
ATOM     20  C   UNL     1      -1.046  11.602  18.995  0.00  0.00    +0.000 A 
ATOM     21  C   UNL     1      -2.421  11.801  18.850  0.00  0.00    +0.000 A 
ATOM     22  C   UNL     1      -3.160  10.939  18.046  0.00  0.00    +0.000 A 
ATOM     23 CL   UNL     1      -4.860  11.156  17.895  0.00  0.00    +0.000 Cl
ATOM     24  C   UNL     1      -2.532   9.903  17.356  0.00  0.00    +0.000 A 
ATOM     25  C   UNL     1      -1.151   9.722  17.480  0.00  0.00    +0.000 A 
ENDBRANCH  18  19
ENDBRANCH   4  18
TORSDOF 9
ENDMDL
