MODEL 1
REMARK VINA RESULT:      -9.1      0.000      0.000
REMARK  Name = 
REMARK  6 active torsions:
REMARK  status: ('A' for Active; 'I' for Inactive)
REMARK    1  A    between atoms: C_2  and  C_3
REMARK    2  A    between atoms: C_3  and  N_4
REMARK    3  A    between atoms: N_8  and  C_9
REMARK    4  A    between atoms: C_9  and  C_10
REMARK    5  A    between atoms: C_13  and  C_14
REMARK    6  A    between atoms: N_16  and  C_17
REMARK                            x       y       z     vdW  Elec       q    Type
REMARK                         _______ _______ _______ _____ _____    ______ ____
ROOT
ATOM      1  C   UNL     1       6.396   4.457  16.977  0.00  0.00    +0.000 C 
ENDROOT
BRANCH   1   6
ATOM      2  N   UNL     1       2.774   7.699  17.538  0.00  0.00    +0.000 N 
ATOM      3  C   UNL     1       3.037   6.500  18.194  0.00  0.00    +0.000 A 
ATOM      4  N   UNL     1       4.030   5.755  17.699  0.00  0.00    +0.000 NA
ATOM      5  C   UNL     1       4.323   4.597  18.320  0.00  0.00    +0.000 A 
ATOM      6  N   UNL     1       5.454   3.853  17.918  0.00  0.00    +0.000 N 
ATOM      7  C   UNL     1       3.582   4.137  19.421  0.00  0.00    +0.000 A 
ATOM      8  C   UNL     1       3.804   2.920  20.120  0.00  0.00    +0.000 A 
ATOM      9  C   UNL     1       3.025   2.576  21.223  0.00  0.00    +0.000 A 
ATOM     10  C   UNL     1       2.035   3.447  21.654  0.00  0.00    +0.000 A 
ATOM     11  C   UNL     1       1.826   4.648  20.972  0.00  0.00    +0.000 A 
ATOM     12  C   UNL     1       2.576   4.999  19.858  0.00  0.00    +0.000 A 
ATOM     13  N   UNL     1       2.311   6.161  19.261  0.00  0.00    +0.000 NA
ATOM     14  H   UNL     1       3.604   7.916  17.001  0.00  0.00    +0.000 HD
ATOM     15  H   UNL     1       5.159   2.927  17.628  0.00  0.00    +0.000 HD
BRANCH   2  16
ATOM     16  C   UNL     1       2.312   8.750  18.419  0.00  0.00    +0.000 C 
BRANCH  16  18
ATOM     17  C   UNL     1       0.182  10.100  18.474  0.00  0.00    +0.000 C 
ATOM     18  C   UNL     1       1.048   9.306  17.830  0.00  0.00    +0.000 C 
ENDBRANCH  16  18
ENDBRANCH   2  16
ENDBRANCH   1   6
BRANCH   1  19
ATOM     19  C   UNL     1       6.984   5.756  17.489  0.00  0.00    +0.000 A 
ATOM     20  C   UNL     1       6.844   6.936  16.745  0.00  0.00    +0.000 A 
ATOM     21  C   UNL     1       7.476   8.102  17.159  0.00  0.00    +0.000 A 
ATOM     22  C   UNL     1       8.240   8.117  18.333  0.00  0.00    +0.000 A 
ATOM     23  C   UNL     1       8.352   6.959  19.109  0.00  0.00    +0.000 A 
ATOM     24  C   UNL     1       7.721   5.784  18.685  0.00  0.00    +0.000 A 
BRANCH  22  25
ATOM     25  C   UNL     1       8.835   9.415  18.729  0.00  0.00    +0.000 C 
ATOM     26  O   UNL     1       9.050   9.585  19.925  0.00  0.00    +0.000 OA
ATOM     27  N   UNL     1       9.032  10.351  17.720  0.00  0.00    +0.000 N 
ATOM     28  H   UNL     1       8.611  10.167  16.821  0.00  0.00    +0.000 HD
BRANCH  27  29
ATOM     29  C   UNL     1       9.578  11.641  17.932  0.00  0.00    +0.000 A 
ATOM     30  C   UNL     1       8.781  12.781  18.120  0.00  0.00    +0.000 A 
ATOM     31  C   UNL     1       9.356  14.042  18.253  0.00  0.00    +0.000 A 
ATOM     32  C   UNL     1      10.734  14.168  18.220  0.00  0.00    +0.000 A 
ATOM     33  F   UNL     1      11.287  15.383  18.329  0.00  0.00    +0.000 F 
ATOM     34  C   UNL     1      11.547  13.049  18.075  0.00  0.00    +0.000 A 
ATOM     35  C   UNL     1      10.972  11.780  17.940  0.00  0.00    +0.000 A 
ENDBRANCH  27  29
ENDBRANCH  22  25
ENDBRANCH   1  19
TORSDOF 6
ENDMDL
MODEL 2
REMARK VINA RESULT:      -9.1      1.373      1.415
REMARK  Name = 
REMARK  6 active torsions:
REMARK  status: ('A' for Active; 'I' for Inactive)
REMARK    1  A    between atoms: C_2  and  C_3
REMARK    2  A    between atoms: C_3  and  N_4
REMARK    3  A    between atoms: N_8  and  C_9
REMARK    4  A    between atoms: C_9  and  C_10
REMARK    5  A    between atoms: C_13  and  C_14
REMARK    6  A    between atoms: N_16  and  C_17
REMARK                            x       y       z     vdW  Elec       q    Type
REMARK                         _______ _______ _______ _____ _____    ______ ____
ROOT
ATOM      1  C   UNL     1       6.080   4.130  16.824  0.00  0.00    +0.000 C 
ENDROOT
BRANCH   1   6
ATOM      2  N   UNL     1       2.505   7.341  17.744  0.00  0.00    +0.000 N 
ATOM      3  C   UNL     1       2.833   6.137  18.361  0.00  0.00    +0.000 A 
ATOM      4  N   UNL     1       3.781   5.404  17.770  0.00  0.00    +0.000 NA
ATOM      5  C   UNL     1       4.136   4.241  18.350  0.00  0.00    +0.000 A 
ATOM      6  N   UNL     1       5.231   3.509  17.840  0.00  0.00    +0.000 N 
ATOM      7  C   UNL     1       3.499   3.764  19.508  0.00  0.00    +0.000 A 
ATOM      8  C   UNL     1       3.789   2.542  20.170  0.00  0.00    +0.000 A 
ATOM      9  C   UNL     1       3.115   2.181  21.334  0.00  0.00    +0.000 A 
ATOM     10  C   UNL     1       2.163   3.041  21.862  0.00  0.00    +0.000 A 
ATOM     11  C   UNL     1       1.886   4.247  21.215  0.00  0.00    +0.000 A 
ATOM     12  C   UNL     1       2.531   4.616  20.042  0.00  0.00    +0.000 A 
ATOM     13  N   UNL     1       2.207   5.781  19.485  0.00  0.00    +0.000 NA
ATOM     14  H   UNL     1       3.283   7.569  17.137  0.00  0.00    +0.000 HD
ATOM     15  H   UNL     1       4.916   2.584  17.567  0.00  0.00    +0.000 HD
BRANCH   2  16
ATOM     16  C   UNL     1       2.118   8.379  18.675  0.00  0.00    +0.000 C 
BRANCH  16  18
ATOM     17  C   UNL     1       1.759  10.828  18.188  0.00  0.00    +0.000 C 
ATOM     18  C   UNL     1       1.603   9.536  17.869  0.00  0.00    +0.000 C 
ENDBRANCH  16  18
ENDBRANCH   2  16
ENDBRANCH   1   6
BRANCH   1  19
ATOM     19  C   UNL     1       6.619   5.478  17.256  0.00  0.00    +0.000 A 
ATOM     20  C   UNL     1       6.258   6.638  16.557  0.00  0.00    +0.000 A 
ATOM     21  C   UNL     1       6.838   7.858  16.883  0.00  0.00    +0.000 A 
ATOM     22  C   UNL     1       7.768   7.946  17.926  0.00  0.00    +0.000 A 
ATOM     23  C   UNL     1       8.105   6.805  18.661  0.00  0.00    +0.000 A 
ATOM     24  C   UNL     1       7.526   5.576  18.325  0.00  0.00    +0.000 A 
BRANCH  22  25
ATOM     25  C   UNL     1       8.297   9.295  18.241  0.00  0.00    +0.000 C 
ATOM     26  O   UNL     1       8.001  10.200  17.467  0.00  0.00    +0.000 OA
ATOM     27  N   UNL     1       9.137   9.401  19.343  0.00  0.00    +0.000 N 
ATOM     28  H   UNL     1       9.473   8.545  19.760  0.00  0.00    +0.000 HD
BRANCH  27  29
ATOM     29  C   UNL     1       9.734  10.612  19.771  0.00  0.00    +0.000 A 
ATOM     30  C   UNL     1       9.328  11.291  20.930  0.00  0.00    +0.000 A 
ATOM     31  C   UNL     1       9.891  12.516  21.277  0.00  0.00    +0.000 A 
ATOM     32  C   UNL     1      10.880  13.060  20.476  0.00  0.00    +0.000 A 
ATOM     33  F   UNL     1      11.409  14.247  20.798  0.00  0.00    +0.000 F 
ATOM     34  C   UNL     1      11.329  12.388  19.344  0.00  0.00    +0.000 A 
ATOM     35  C   UNL     1      10.763  11.157  18.992  0.00  0.00    +0.000 A 
ENDBRANCH  27  29
ENDBRANCH  22  25
ENDBRANCH   1  19
TORSDOF 6
ENDMDL
MODEL 3
REMARK VINA RESULT:      -9.0      5.613      8.760
REMARK  Name = 
REMARK  6 active torsions:
REMARK  status: ('A' for Active; 'I' for Inactive)
REMARK    1  A    between atoms: C_2  and  C_3
REMARK    2  A    between atoms: C_3  and  N_4
REMARK    3  A    between atoms: N_8  and  C_9
REMARK    4  A    between atoms: C_9  and  C_10
REMARK    5  A    between atoms: C_13  and  C_14
REMARK    6  A    between atoms: N_16  and  C_17
REMARK                            x       y       z     vdW  Elec       q    Type
REMARK                         _______ _______ _______ _____ _____    ______ ____
ROOT
ATOM      1  C   UNL     1       2.611   8.238  17.919  0.00  0.00    +0.000 C 
ENDROOT
BRANCH   1   6
ATOM      2  N   UNL     1       6.551   5.557  16.811  0.00  0.00    +0.000 N 
ATOM      3  C   UNL     1       5.294   5.185  17.282  0.00  0.00    +0.000 A 
ATOM      4  N   UNL     1       4.475   6.177  17.642  0.00  0.00    +0.000 NA
ATOM      5  C   UNL     1       3.245   5.853  18.086  0.00  0.00    +0.000 A 
ATOM      6  N   UNL     1       2.301   6.873  18.338  0.00  0.00    +0.000 N 
ATOM      7  C   UNL     1       2.836   4.517  18.230  0.00  0.00    +0.000 A 
ATOM      8  C   UNL     1       1.572   4.085  18.712  0.00  0.00    +0.000 A 
ATOM      9  C   UNL     1       1.259   2.729  18.784  0.00  0.00    +0.000 A 
ATOM     10  C   UNL     1       2.191   1.793  18.359  0.00  0.00    +0.000 A 
ATOM     11  C   UNL     1       3.429   2.221  17.875  0.00  0.00    +0.000 A 
ATOM     12  C   UNL     1       3.769   3.566  17.815  0.00  0.00    +0.000 A 
ATOM     13  N   UNL     1       4.972   3.891  17.345  0.00  0.00    +0.000 NA
ATOM     14  H   UNL     1       6.474   6.529  16.538  0.00  0.00    +0.000 HD
ATOM     15  H   UNL     1       2.009   6.823  19.308  0.00  0.00    +0.000 HD
BRANCH   2  16
ATOM     16  C   UNL     1       7.074   4.667  15.798  0.00  0.00    +0.000 C 
BRANCH  16  18
ATOM     17  C   UNL     1       5.924   3.956  13.668  0.00  0.00    +0.000 C 
ATOM     18  C   UNL     1       6.289   4.905  14.541  0.00  0.00    +0.000 C 
ENDBRANCH  16  18
ENDBRANCH   2  16
ENDBRANCH   1   6
BRANCH   1  19
ATOM     19  C   UNL     1       1.788   9.277  18.652  0.00  0.00    +0.000 A 
ATOM     20  C   UNL     1       0.961   8.898  19.719  0.00  0.00    +0.000 A 
ATOM     21  C   UNL     1       0.125   9.831  20.321  0.00  0.00    +0.000 A 
ATOM     22  C   UNL     1       0.115  11.162  19.883  0.00  0.00    +0.000 A 
ATOM     23  C   UNL     1       0.967  11.564  18.849  0.00  0.00    +0.000 A 
ATOM     24  C   UNL     1       1.802  10.621  18.241  0.00  0.00    +0.000 A 
BRANCH  22  25
ATOM     25  C   UNL     1      -0.768  12.101  20.615  0.00  0.00    +0.000 C 
ATOM     26  O   UNL     1      -1.521  12.794  19.938  0.00  0.00    +0.000 OA
ATOM     27  N   UNL     1      -0.615  12.164  21.995  0.00  0.00    +0.000 N 
ATOM     28  H   UNL     1       0.188  11.705  22.399  0.00  0.00    +0.000 HD
BRANCH  27  29
ATOM     29  C   UNL     1      -1.370  13.017  22.837  0.00  0.00    +0.000 A 
ATOM     30  C   UNL     1      -0.886  14.251  23.300  0.00  0.00    +0.000 A 
ATOM     31  C   UNL     1      -1.630  15.026  24.184  0.00  0.00    +0.000 A 
ATOM     32  C   UNL     1      -2.875  14.581  24.596  0.00  0.00    +0.000 A 
ATOM     33  F   UNL     1      -3.583  15.317  25.462  0.00  0.00    +0.000 F 
ATOM     34  C   UNL     1      -3.394  13.381  24.121  0.00  0.00    +0.000 A 
ATOM     35  C   UNL     1      -2.647  12.599  23.233  0.00  0.00    +0.000 A 
ENDBRANCH  27  29
ENDBRANCH  22  25
ENDBRANCH   1  19
TORSDOF 6
ENDMDL
MODEL 4
REMARK VINA RESULT:      -9.0      6.019      9.627
REMARK  Name = 
REMARK  6 active torsions:
REMARK  status: ('A' for Active; 'I' for Inactive)
REMARK    1  A    between atoms: C_2  and  C_3
REMARK    2  A    between atoms: C_3  and  N_4
REMARK    3  A    between atoms: N_8  and  C_9
REMARK    4  A    between atoms: C_9  and  C_10
REMARK    5  A    between atoms: C_13  and  C_14
REMARK    6  A    between atoms: N_16  and  C_17
REMARK                            x       y       z     vdW  Elec       q    Type
REMARK                         _______ _______ _______ _____ _____    ______ ____
ROOT
ATOM      1  C   UNL     1       1.836   8.638  20.318  0.00  0.00    +0.000 C 
ENDROOT
BRANCH   1   6
ATOM      2  N   UNL     1       5.031   6.502  17.289  0.00  0.00    +0.000 N 
ATOM      3  C   UNL     1       4.064   5.957  18.131  0.00  0.00    +0.000 A 
ATOM      4  N   UNL     1       3.449   6.807  18.959  0.00  0.00    +0.000 NA
ATOM      5  C   UNL     1       2.496   6.317  19.775  0.00  0.00    +0.000 A 
ATOM      6  N   UNL     1       1.723   7.201  20.560  0.00  0.00    +0.000 N 
ATOM      7  C   UNL     1       2.183   4.948  19.813  0.00  0.00    +0.000 A 
ATOM      8  C   UNL     1       1.214   4.342  20.656  0.00  0.00    +0.000 A 
ATOM      9  C   UNL     1       0.961   2.974  20.589  0.00  0.00    +0.000 A 
ATOM     10  C   UNL     1       1.654   2.200  19.669  0.00  0.00    +0.000 A 
ATOM     11  C   UNL     1       2.599   2.799  18.833  0.00  0.00    +0.000 A 
ATOM     12  C   UNL     1       2.881   4.157  18.899  0.00  0.00    +0.000 A 
ATOM     13  N   UNL     1       3.799   4.651  18.070  0.00  0.00    +0.000 NA
ATOM     14  H   UNL     1       4.848   7.497  17.254  0.00  0.00    +0.000 HD
ATOM     15  H   UNL     1       1.838   6.964  21.539  0.00  0.00    +0.000 HD
BRANCH   2  16
ATOM     16  C   UNL     1       5.116   5.841  16.005  0.00  0.00    +0.000 C 
BRANCH  16  18
ATOM     17  C   UNL     1       6.952   4.551  14.852  0.00  0.00    +0.000 C 
ATOM     18  C   UNL     1       6.514   5.313  15.863  0.00  0.00    +0.000 C 
ENDBRANCH  16  18
ENDBRANCH   2  16
ENDBRANCH   1   6
BRANCH   1  19
ATOM     19  C   UNL     1       0.800   9.443  21.074  0.00  0.00    +0.000 A 
ATOM     20  C   UNL     1       0.159  10.526  20.456  0.00  0.00    +0.000 A 
ATOM     21  C   UNL     1      -0.710  11.331  21.183  0.00  0.00    +0.000 A 
ATOM     22  C   UNL     1      -0.971  11.056  22.532  0.00  0.00    +0.000 A 
ATOM     23  C   UNL     1      -0.372   9.954  23.149  0.00  0.00    +0.000 A 
ATOM     24  C   UNL     1       0.508   9.150  22.417  0.00  0.00    +0.000 A 
BRANCH  22  25
ATOM     25  C   UNL     1      -1.950  11.934  23.217  0.00  0.00    +0.000 C 
ATOM     26  O   UNL     1      -2.933  11.388  23.710  0.00  0.00    +0.000 OA
ATOM     27  N   UNL     1      -1.705  13.301  23.178  0.00  0.00    +0.000 N 
ATOM     28  H   UNL     1      -0.983  13.631  22.554  0.00  0.00    +0.000 HD
BRANCH  27  29
ATOM     29  C   UNL     1      -2.547  14.274  23.771  0.00  0.00    +0.000 A 
ATOM     30  C   UNL     1      -3.808  14.606  23.251  0.00  0.00    +0.000 A 
ATOM     31  C   UNL     1      -4.574  15.618  23.820  0.00  0.00    +0.000 A 
ATOM     32  C   UNL     1      -4.093  16.292  24.930  0.00  0.00    +0.000 A 
ATOM     33  F   UNL     1      -4.821  17.279  25.467  0.00  0.00    +0.000 F 
ATOM     34  C   UNL     1      -2.864  15.956  25.489  0.00  0.00    +0.000 A 
ATOM     35  C   UNL     1      -2.091  14.939  24.916  0.00  0.00    +0.000 A 
ENDBRANCH  27  29
ENDBRANCH  22  25
ENDBRANCH   1  19
TORSDOF 6
ENDMDL
MODEL 5
REMARK VINA RESULT:      -8.9      4.741      8.792
REMARK  Name = 
REMARK  6 active torsions:
REMARK  status: ('A' for Active; 'I' for Inactive)
REMARK    1  A    between atoms: C_2  and  C_3
REMARK    2  A    between atoms: C_3  and  N_4
REMARK    3  A    between atoms: N_8  and  C_9
REMARK    4  A    between atoms: C_9  and  C_10
REMARK    5  A    between atoms: C_13  and  C_14
REMARK    6  A    between atoms: N_16  and  C_17
REMARK                            x       y       z     vdW  Elec       q    Type
REMARK                         _______ _______ _______ _____ _____    ______ ____
ROOT
ATOM      1  C   UNL     1       2.010   7.569  17.481  0.00  0.00    +0.000 C 
ENDROOT
BRANCH   1   6
ATOM      2  N   UNL     1       3.241   3.171  19.236  0.00  0.00    +0.000 N 
ATOM      3  C   UNL     1       4.026   4.261  18.867  0.00  0.00    +0.000 A 
ATOM      4  N   UNL     1       3.393   5.274  18.268  0.00  0.00    +0.000 NA
ATOM      5  C   UNL     1       4.119   6.352  17.913  0.00  0.00    +0.000 A 
ATOM      6  N   UNL     1       3.468   7.501  17.412  0.00  0.00    +0.000 N 
ATOM      7  C   UNL     1       5.510   6.405  18.103  0.00  0.00    +0.000 A 
ATOM      8  C   UNL     1       6.355   7.487  17.739  0.00  0.00    +0.000 A 
ATOM      9  C   UNL     1       7.723   7.447  18.003  0.00  0.00    +0.000 A 
ATOM     10  C   UNL     1       8.257   6.343  18.652  0.00  0.00    +0.000 A 
ATOM     11  C   UNL     1       7.422   5.285  19.019  0.00  0.00    +0.000 A 
ATOM     12  C   UNL     1       6.062   5.296  18.745  0.00  0.00    +0.000 A 
ATOM     13  N   UNL     1       5.335   4.246  19.125  0.00  0.00    +0.000 NA
ATOM     14  H   UNL     1       2.285   3.505  19.259  0.00  0.00    +0.000 HD
ATOM     15  H   UNL     1       3.821   7.705  16.484  0.00  0.00    +0.000 HD
BRANCH   2  16
ATOM     16  C   UNL     1       3.698   2.513  20.440  0.00  0.00    +0.000 C 
BRANCH  16  18
ATOM     17  C   UNL     1       1.401   3.173  21.247  0.00  0.00    +0.000 C 
ATOM     18  C   UNL     1       2.622   2.671  21.474  0.00  0.00    +0.000 C 
ENDBRANCH  16  18
ENDBRANCH   2  16
ENDBRANCH   1   6
BRANCH   1  19
ATOM     19  C   UNL     1       1.517   8.438  18.619  0.00  0.00    +0.000 A 
ATOM     20  C   UNL     1       1.669   8.014  19.947  0.00  0.00    +0.000 A 
ATOM     21  C   UNL     1       1.120   8.757  20.985  0.00  0.00    +0.000 A 
ATOM     22  C   UNL     1       0.431   9.947  20.719  0.00  0.00    +0.000 A 
ATOM     23  C   UNL     1       0.309  10.405  19.403  0.00  0.00    +0.000 A 
ATOM     24  C   UNL     1       0.855   9.650  18.359  0.00  0.00    +0.000 A 
BRANCH  22  25
ATOM     25  C   UNL     1      -0.077  10.704  21.888  0.00  0.00    +0.000 C 
ATOM     26  O   UNL     1       0.337  10.361  22.992  0.00  0.00    +0.000 OA
ATOM     27  N   UNL     1      -1.028  11.685  21.639  0.00  0.00    +0.000 N 
ATOM     28  H   UNL     1      -1.441  11.714  20.718  0.00  0.00    +0.000 HD
BRANCH  27  29
ATOM     29  C   UNL     1      -1.622  12.487  22.644  0.00  0.00    +0.000 A 
ATOM     30  C   UNL     1      -2.861  12.181  23.227  0.00  0.00    +0.000 A 
ATOM     31  C   UNL     1      -3.444  13.033  24.160  0.00  0.00    +0.000 A 
ATOM     32  C   UNL     1      -2.779  14.189  24.533  0.00  0.00    +0.000 A 
ATOM     33  F   UNL     1      -3.348  15.019  25.417  0.00  0.00    +0.000 F 
ATOM     34  C   UNL     1      -1.532  14.495  24.001  0.00  0.00    +0.000 A 
ATOM     35  C   UNL     1      -0.944  13.640  23.061  0.00  0.00    +0.000 A 
ENDBRANCH  27  29
ENDBRANCH  22  25
ENDBRANCH   1  19
TORSDOF 6
ENDMDL
MODEL 6
REMARK VINA RESULT:      -8.9      5.627      8.899
REMARK  Name = 
REMARK  6 active torsions:
REMARK  status: ('A' for Active; 'I' for Inactive)
REMARK    1  A    between atoms: C_2  and  C_3
REMARK    2  A    between atoms: C_3  and  N_4
REMARK    3  A    between atoms: N_8  and  C_9
REMARK    4  A    between atoms: C_9  and  C_10
REMARK    5  A    between atoms: C_13  and  C_14
REMARK    6  A    between atoms: N_16  and  C_17
REMARK                            x       y       z     vdW  Elec       q    Type
REMARK                         _______ _______ _______ _____ _____    ______ ____
ROOT
ATOM      1  C   UNL     1       2.356   8.037  18.151  0.00  0.00    +0.000 C 
ENDROOT
BRANCH   1   6
ATOM      2  N   UNL     1       6.428   5.466  17.287  0.00  0.00    +0.000 N 
ATOM      3  C   UNL     1       5.150   5.056  17.657  0.00  0.00    +0.000 A 
ATOM      4  N   UNL     1       4.283   6.023  17.974  0.00  0.00    +0.000 NA
ATOM      5  C   UNL     1       3.032   5.663  18.321  0.00  0.00    +0.000 A 
ATOM      6  N   UNL     1       2.048   6.656  18.521  0.00  0.00    +0.000 N 
ATOM      7  C   UNL     1       2.645   4.316  18.410  0.00  0.00    +0.000 A 
ATOM      8  C   UNL     1       1.360   3.846  18.790  0.00  0.00    +0.000 A 
ATOM      9  C   UNL     1       1.074   2.483  18.814  0.00  0.00    +0.000 A 
ATOM     10  C   UNL     1       2.057   1.577  18.442  0.00  0.00    +0.000 A 
ATOM     11  C   UNL     1       3.317   2.041  18.058  0.00  0.00    +0.000 A 
ATOM     12  C   UNL     1       3.628   3.394  18.048  0.00  0.00    +0.000 A 
ATOM     13  N   UNL     1       4.854   3.755  17.673  0.00  0.00    +0.000 NA
ATOM     14  H   UNL     1       6.349   6.441  17.026  0.00  0.00    +0.000 HD
ATOM     15  H   UNL     1       1.687   6.581  19.466  0.00  0.00    +0.000 HD
BRANCH   2  16
ATOM     16  C   UNL     1       7.045   4.607  16.300  0.00  0.00    +0.000 C 
BRANCH  16  18
ATOM     17  C   UNL     1       5.871   4.216  14.101  0.00  0.00    +0.000 C 
ATOM     18  C   UNL     1       6.519   5.019  14.955  0.00  0.00    +0.000 C 
ENDBRANCH  16  18
ENDBRANCH   2  16
ENDBRANCH   1   6
BRANCH   1  19
ATOM     19  C   UNL     1       1.602   9.050  18.987  0.00  0.00    +0.000 A 
ATOM     20  C   UNL     1       1.360  10.337  18.487  0.00  0.00    +0.000 A 
ATOM     21  C   UNL     1       0.766  11.300  19.295  0.00  0.00    +0.000 A 
ATOM     22  C   UNL     1       0.382  10.988  20.605  0.00  0.00    +0.000 A 
ATOM     23  C   UNL     1       0.577   9.696  21.103  0.00  0.00    +0.000 A 
ATOM     24  C   UNL     1       1.183   8.731  20.290  0.00  0.00    +0.000 A 
BRANCH  22  25
ATOM     25  C   UNL     1      -0.292  12.058  21.379  0.00  0.00    +0.000 C 
ATOM     26  O   UNL     1       0.428  12.911  21.888  0.00  0.00    +0.000 OA
ATOM     27  N   UNL     1      -1.672  11.961  21.517  0.00  0.00    +0.000 N 
ATOM     28  H   UNL     1      -2.112  11.097  21.237  0.00  0.00    +0.000 HD
BRANCH  27  29
ATOM     29  C   UNL     1      -2.463  12.892  22.234  0.00  0.00    +0.000 A 
ATOM     30  C   UNL     1      -2.760  14.174  21.743  0.00  0.00    +0.000 A 
ATOM     31  C   UNL     1      -3.480  15.085  22.510  0.00  0.00    +0.000 A 
ATOM     32  C   UNL     1      -3.928  14.712  23.766  0.00  0.00    +0.000 A 
ATOM     33  F   UNL     1      -4.605  15.595  24.512  0.00  0.00    +0.000 F 
ATOM     34  C   UNL     1      -3.682  13.435  24.258  0.00  0.00    +0.000 A 
ATOM     35  C   UNL     1      -2.956  12.518  23.490  0.00  0.00    +0.000 A 
ENDBRANCH  27  29
ENDBRANCH  22  25
ENDBRANCH   1  19
TORSDOF 6
ENDMDL
MODEL 7
REMARK VINA RESULT:      -8.8      5.844      9.138
REMARK  Name = 
REMARK  6 active torsions:
REMARK  status: ('A' for Active; 'I' for Inactive)
REMARK    1  A    between atoms: C_2  and  C_3
REMARK    2  A    between atoms: C_3  and  N_4
REMARK    3  A    between atoms: N_8  and  C_9
REMARK    4  A    between atoms: C_9  and  C_10
REMARK    5  A    between atoms: C_13  and  C_14
REMARK    6  A    between atoms: N_16  and  C_17
REMARK                            x       y       z     vdW  Elec       q    Type
REMARK                         _______ _______ _______ _____ _____    ______ ____
ROOT
ATOM      1  C   UNL     1       2.200   8.041  18.524  0.00  0.00    +0.000 C 
ENDROOT
BRANCH   1   6
ATOM      2  N   UNL     1       6.049   5.428  17.011  0.00  0.00    +0.000 N 
ATOM      3  C   UNL     1       5.091   5.164  17.986  0.00  0.00    +0.000 A 
ATOM      4  N   UNL     1       4.248   6.158  18.277  0.00  0.00    +0.000 NA
ATOM      5  C   UNL     1       3.297   5.931  19.204  0.00  0.00    +0.000 A 
ATOM      6  N   UNL     1       2.298   6.903  19.436  0.00  0.00    +0.000 N 
ATOM      7  C   UNL     1       3.214   4.713  19.899  0.00  0.00    +0.000 A 
ATOM      8  C   UNL     1       2.263   4.397  20.905  0.00  0.00    +0.000 A 
ATOM      9  C   UNL     1       2.252   3.141  21.509  0.00  0.00    +0.000 A 
ATOM     10  C   UNL     1       3.170   2.184  21.104  0.00  0.00    +0.000 A 
ATOM     11  C   UNL     1       4.097   2.493  20.106  0.00  0.00    +0.000 A 
ATOM     12  C   UNL     1       4.139   3.745  19.507  0.00  0.00    +0.000 A 
ATOM     13  N   UNL     1       5.056   3.962  18.566  0.00  0.00    +0.000 NA
ATOM     14  H   UNL     1       5.709   6.226  16.489  0.00  0.00    +0.000 HD
ATOM     15  H   UNL     1       2.330   7.188  20.408  0.00  0.00    +0.000 HD
BRANCH   2  16
ATOM     16  C   UNL     1       6.399   4.270  16.217  0.00  0.00    +0.000 C 
BRANCH  16  18
ATOM     17  C   UNL     1       6.001   3.985  13.743  0.00  0.00    +0.000 C 
ATOM     18  C   UNL     1       5.569   4.316  14.967  0.00  0.00    +0.000 C 
ENDBRANCH  16  18
ENDBRANCH   2  16
ENDBRANCH   1   6
BRANCH   1  19
ATOM     19  C   UNL     1       1.233   9.100  19.012  0.00  0.00    +0.000 A 
ATOM     20  C   UNL     1       1.015   9.278  20.385  0.00  0.00    +0.000 A 
ATOM     21  C   UNL     1       0.049  10.172  20.830  0.00  0.00    +0.000 A 
ATOM     22  C   UNL     1      -0.700  10.921  19.913  0.00  0.00    +0.000 A 
ATOM     23  C   UNL     1      -0.463  10.787  18.541  0.00  0.00    +0.000 A 
ATOM     24  C   UNL     1       0.505   9.880  18.097  0.00  0.00    +0.000 A 
BRANCH  22  25
ATOM     25  C   UNL     1      -1.672  11.890  20.474  0.00  0.00    +0.000 C 
ATOM     26  O   UNL     1      -2.503  12.352  19.699  0.00  0.00    +0.000 OA
ATOM     27  N   UNL     1      -1.510  12.243  21.809  0.00  0.00    +0.000 N 
ATOM     28  H   UNL     1      -0.657  11.959  22.269  0.00  0.00    +0.000 HD
BRANCH  27  29
ATOM     29  C   UNL     1      -2.344  13.162  22.491  0.00  0.00    +0.000 A 
ATOM     30  C   UNL     1      -2.166  14.552  22.412  0.00  0.00    +0.000 A 
ATOM     31  C   UNL     1      -2.961  15.420  23.155  0.00  0.00    +0.000 A 
ATOM     32  C   UNL     1      -3.955  14.902  23.969  0.00  0.00    +0.000 A 
ATOM     33  F   UNL     1      -4.708  15.734  24.699  0.00  0.00    +0.000 F 
ATOM     34  C   UNL     1      -4.177  13.531  24.035  0.00  0.00    +0.000 A 
ATOM     35  C   UNL     1      -3.378  12.656  23.289  0.00  0.00    +0.000 A 
ENDBRANCH  27  29
ENDBRANCH  22  25
ENDBRANCH   1  19
TORSDOF 6
ENDMDL
MODEL 8
REMARK VINA RESULT:      -8.8      5.881      9.016
REMARK  Name = 
REMARK  6 active torsions:
REMARK  status: ('A' for Active; 'I' for Inactive)
REMARK    1  A    between atoms: C_2  and  C_3
REMARK    2  A    between atoms: C_3  and  N_4
REMARK    3  A    between atoms: N_8  and  C_9
REMARK    4  A    between atoms: C_9  and  C_10
REMARK    5  A    between atoms: C_13  and  C_14
REMARK    6  A    between atoms: N_16  and  C_17
REMARK                            x       y       z     vdW  Elec       q    Type
REMARK                         _______ _______ _______ _____ _____    ______ ____
ROOT
ATOM      1  C   UNL     1       2.093   8.122  18.752  0.00  0.00    +0.000 C 
ENDROOT
BRANCH   1   6
ATOM      2  N   UNL     1       5.496   5.211  16.781  0.00  0.00    +0.000 N 
ATOM      3  C   UNL     1       4.658   5.026  17.877  0.00  0.00    +0.000 A 
ATOM      4  N   UNL     1       3.939   6.084  18.263  0.00  0.00    +0.000 NA
ATOM      5  C   UNL     1       3.106   5.936  19.311  0.00  0.00    +0.000 A 
ATOM      6  N   UNL     1       2.224   6.983  19.658  0.00  0.00    +0.000 N 
ATOM      7  C   UNL     1       3.022   4.731  20.028  0.00  0.00    +0.000 A 
ATOM      8  C   UNL     1       2.192   4.493  21.155  0.00  0.00    +0.000 A 
ATOM      9  C   UNL     1       2.165   3.245  21.773  0.00  0.00    +0.000 A 
ATOM     10  C   UNL     1       2.945   2.217  21.263  0.00  0.00    +0.000 A 
ATOM     11  C   UNL     1       3.752   2.449  20.147  0.00  0.00    +0.000 A 
ATOM     12  C   UNL     1       3.810   3.692  19.530  0.00  0.00    +0.000 A 
ATOM     13  N   UNL     1       4.608   3.833  18.473  0.00  0.00    +0.000 NA
ATOM     14  H   UNL     1       5.152   6.031  16.297  0.00  0.00    +0.000 HD
ATOM     15  H   UNL     1       2.407   7.269  20.614  0.00  0.00    +0.000 HD
BRANCH   2  16
ATOM     16  C   UNL     1       5.647   4.027  15.964  0.00  0.00    +0.000 C 
BRANCH  16  18
ATOM     17  C   UNL     1       6.941   4.777  13.933  0.00  0.00    +0.000 C 
ATOM     18  C   UNL     1       5.784   4.478  14.539  0.00  0.00    +0.000 C 
ENDBRANCH  16  18
ENDBRANCH   2  16
ENDBRANCH   1   6
BRANCH   1  19
ATOM     19  C   UNL     1       1.306   9.265  19.358  0.00  0.00    +0.000 A 
ATOM     20  C   UNL     1       0.874   9.197  20.690  0.00  0.00    +0.000 A 
ATOM     21  C   UNL     1       0.060  10.194  21.212  0.00  0.00    +0.000 A 
ATOM     22  C   UNL     1      -0.318  11.288  20.423  0.00  0.00    +0.000 A 
ATOM     23  C   UNL     1       0.142  11.392  19.107  0.00  0.00    +0.000 A 
ATOM     24  C   UNL     1       0.955  10.382  18.580  0.00  0.00    +0.000 A 
BRANCH  22  25
ATOM     25  C   UNL     1      -1.144  12.332  21.076  0.00  0.00    +0.000 C 
ATOM     26  O   UNL     1      -1.642  13.182  20.344  0.00  0.00    +0.000 OA
ATOM     27  N   UNL     1      -1.221  12.298  22.463  0.00  0.00    +0.000 N 
ATOM     28  H   UNL     1      -0.588  11.682  22.953  0.00  0.00    +0.000 HD
BRANCH  27  29
ATOM     29  C   UNL     1      -1.956  13.228  23.239  0.00  0.00    +0.000 A 
ATOM     30  C   UNL     1      -3.332  13.094  23.483  0.00  0.00    +0.000 A 
ATOM     31  C   UNL     1      -4.032  14.068  24.190  0.00  0.00    +0.000 A 
ATOM     32  C   UNL     1      -3.355  15.173  24.675  0.00  0.00    +0.000 A 
ATOM     33  F   UNL     1      -4.030  16.120  25.338  0.00  0.00    +0.000 F 
ATOM     34  C   UNL     1      -1.984  15.310  24.481  0.00  0.00    +0.000 A 
ATOM     35  C   UNL     1      -1.278  14.333  23.769  0.00  0.00    +0.000 A 
ENDBRANCH  27  29
ENDBRANCH  22  25
ENDBRANCH   1  19
TORSDOF 6
ENDMDL
MODEL 9
REMARK VINA RESULT:      -8.8      6.057      9.487
REMARK  Name = 
REMARK  6 active torsions:
REMARK  status: ('A' for Active; 'I' for Inactive)
REMARK    1  A    between atoms: C_2  and  C_3
REMARK    2  A    between atoms: C_3  and  N_4
REMARK    3  A    between atoms: N_8  and  C_9
REMARK    4  A    between atoms: C_9  and  C_10
REMARK    5  A    between atoms: C_13  and  C_14
REMARK    6  A    between atoms: N_16  and  C_17
REMARK                            x       y       z     vdW  Elec       q    Type
REMARK                         _______ _______ _______ _____ _____    ______ ____
ROOT
ATOM      1  C   UNL     1       2.120   8.260  18.913  0.00  0.00    +0.000 C 
ENDROOT
BRANCH   1   6
ATOM      2  N   UNL     1       5.356   5.299  16.746  0.00  0.00    +0.000 N 
ATOM      3  C   UNL     1       4.552   5.110  17.867  0.00  0.00    +0.000 A 
ATOM      4  N   UNL     1       3.882   6.180  18.306  0.00  0.00    +0.000 NA
ATOM      5  C   UNL     1       3.081   6.029  19.378  0.00  0.00    +0.000 A 
ATOM      6  N   UNL     1       2.246   7.093  19.784  0.00  0.00    +0.000 N 
ATOM      7  C   UNL     1       2.984   4.808  20.066  0.00  0.00    +0.000 A 
ATOM      8  C   UNL     1       2.187   4.566  21.217  0.00  0.00    +0.000 A 
ATOM      9  C   UNL     1       2.142   3.303  21.803  0.00  0.00    +0.000 A 
ATOM     10  C   UNL     1       2.870   2.265  21.239  0.00  0.00    +0.000 A 
ATOM     11  C   UNL     1       3.645   2.503  20.101  0.00  0.00    +0.000 A 
ATOM     12  C   UNL     1       3.721   3.759  19.515  0.00  0.00    +0.000 A 
ATOM     13  N   UNL     1       4.486   3.904  18.434  0.00  0.00    +0.000 NA
ATOM     14  H   UNL     1       5.022   6.142  16.296  0.00  0.00    +0.000 HD
ATOM     15  H   UNL     1       2.471   7.347  20.740  0.00  0.00    +0.000 HD
BRANCH   2  16
ATOM     16  C   UNL     1       5.441   4.133  15.894  0.00  0.00    +0.000 C 
BRANCH  16  18
ATOM     17  C   UNL     1       6.243   3.926  13.512  0.00  0.00    +0.000 C 
ATOM     18  C   UNL     1       5.639   4.617  14.488  0.00  0.00    +0.000 C 
ENDBRANCH  16  18
ENDBRANCH   2  16
ENDBRANCH   1   6
BRANCH   1  19
ATOM     19  C   UNL     1       1.073   9.242  19.397  0.00  0.00    +0.000 A 
ATOM     20  C   UNL     1       0.474  10.135  18.497  0.00  0.00    +0.000 A 
ATOM     21  C   UNL     1      -0.404  11.108  18.959  0.00  0.00    +0.000 A 
ATOM     22  C   UNL     1      -0.718  11.192  20.321  0.00  0.00    +0.000 A 
ATOM     23  C   UNL     1      -0.162  10.280  21.224  0.00  0.00    +0.000 A 
ATOM     24  C   UNL     1       0.728   9.307  20.757  0.00  0.00    +0.000 A 
BRANCH  22  25
ATOM     25  C   UNL     1      -1.704  12.225  20.720  0.00  0.00    +0.000 C 
ATOM     26  O   UNL     1      -1.936  13.112  19.905  0.00  0.00    +0.000 OA
ATOM     27  N   UNL     1      -2.223  12.137  22.006  0.00  0.00    +0.000 N 
ATOM     28  H   UNL     1      -1.784  11.491  22.646  0.00  0.00    +0.000 HD
BRANCH  27  29
ATOM     29  C   UNL     1      -3.163  13.050  22.545  0.00  0.00    +0.000 A 
ATOM     30  C   UNL     1      -2.789  14.143  23.341  0.00  0.00    +0.000 A 
ATOM     31  C   UNL     1      -3.748  14.975  23.911  0.00  0.00    +0.000 A 
ATOM     32  C   UNL     1      -5.089  14.731  23.671  0.00  0.00    +0.000 A 
ATOM     33  F   UNL     1      -6.013  15.519  24.234  0.00  0.00    +0.000 F 
ATOM     34  C   UNL     1      -5.485  13.678  22.853  0.00  0.00    +0.000 A 
ATOM     35  C   UNL     1      -4.522  12.839  22.280  0.00  0.00    +0.000 A 
ENDBRANCH  27  29
ENDBRANCH  22  25
ENDBRANCH   1  19
TORSDOF 6
ENDMDL
