MODEL 1
REMARK VINA RESULT:      -8.0      0.000      0.000
REMARK  Name = 
REMARK  7 active torsions:
REMARK  status: ('A' for Active; 'I' for Inactive)
REMARK    1  A    between atoms: C_1  and  C_2
REMARK    2  A    between atoms: C_2  and  C_3
REMARK    3  A    between atoms: C_3  and  C_4
REMARK    4  A    between atoms: C_10  and  O_11
REMARK    5  A    between atoms: N_17  and  C_18
REMARK    6  A    between atoms: C_18  and  C_19
REMARK    7  A    between atoms: C_19  and  C_20
REMARK                            x       y       z     vdW  Elec       q    Type
REMARK                         _______ _______ _______ _____ _____    ______ ____
ROOT
ATOM      1  C   UNL     1       6.230   5.348  17.864  0.00  0.00    +0.000 C 
ATOM      2  C   UNL     1       6.325   5.819  16.388  0.00  0.00    +0.000 C 
ATOM      3  C   UNL     1       4.990   6.672  16.100  0.00  0.00    +0.000 C 
ATOM      4  C   UNL     1       3.945   6.602  17.237  0.00  0.00    +0.000 A 
ATOM      5  C   UNL     1       3.207   7.681  17.721  0.00  0.00    +0.000 A 
ATOM      6  C   UNL     1       2.537   7.581  18.971  0.00  0.00    +0.000 A 
ATOM      7  C   UNL     1       2.610   6.414  19.744  0.00  0.00    +0.000 A 
ATOM      8  C   UNL     1       3.337   5.353  19.269  0.00  0.00    +0.000 A 
ATOM      9  C   UNL     1       3.934   5.441  18.032  0.00  0.00    +0.000 A 
ATOM     10  C   UNL     1       4.993   4.388  17.898  0.00  0.00    +0.000 C 
ATOM     11  C   UNL     1       4.646   3.637  16.598  0.00  0.00    +0.000 C 
ATOM     12  C   UNL     1       5.870   3.428  15.746  0.00  0.00    +0.000 C 
ATOM     13  N   UNL     1       6.638   4.657  15.524  0.00  0.00    +0.000 NA
ATOM     14  C   UNL     1       4.686   3.567  19.157  0.00  0.00    +0.000 C 
ATOM     15  O   UNL     1       3.740   4.264  20.000  0.00  0.00    +0.000 OA
ENDROOT
BRANCH   7  16
ATOM     16  O   UNL     1       2.068   6.335  20.992  0.00  0.00    +0.000 OA
ATOM     17  H   UNL     1       2.176   5.434  21.324  0.00  0.00    +0.000 HD
ENDBRANCH   7  16
BRANCH   1  18
ATOM     18  C   UNL     1       7.513   5.073  18.667  0.00  0.00    +0.000 C 
BRANCH  18  20
ATOM     19  C   UNL     1       8.119   7.559  18.329  0.00  0.00    +0.000 C 
ATOM     20  C   UNL     1       8.004   6.408  19.311  0.00  0.00    +0.000 C 
ENDBRANCH  18  20
ENDBRANCH   1  18
BRANCH  13  21
ATOM     21  C   UNL     1       6.859   4.861  14.090  0.00  0.00    +0.000 C 
BRANCH  21  22
ATOM     22  C   UNL     1       5.684   4.531  13.161  0.00  0.00    +0.000 C 
BRANCH  22  23
ATOM     23  C   UNL     1       6.053   3.377  12.258  0.00  0.00    +0.000 A 
ATOM     24  C   UNL     1       5.079   2.459  11.845  0.00  0.00    +0.000 A 
ATOM     25  C   UNL     1       5.437   1.353  11.066  0.00  0.00    +0.000 A 
ATOM     26  C   UNL     1       6.763   1.165  10.687  0.00  0.00    +0.000 A 
ATOM     27  C   UNL     1       7.740   2.073  11.089  0.00  0.00    +0.000 A 
ATOM     28  C   UNL     1       7.387   3.175  11.867  0.00  0.00    +0.000 A 
ENDBRANCH  22  23
ENDBRANCH  21  22
ENDBRANCH  13  21
TORSDOF 6
ENDMDL
MODEL 2
REMARK VINA RESULT:      -7.8      1.577      3.081
REMARK  Name = 
REMARK  7 active torsions:
REMARK  status: ('A' for Active; 'I' for Inactive)
REMARK    1  A    between atoms: C_1  and  C_2
REMARK    2  A    between atoms: C_2  and  C_3
REMARK    3  A    between atoms: C_3  and  C_4
REMARK    4  A    between atoms: C_10  and  O_11
REMARK    5  A    between atoms: N_17  and  C_18
REMARK    6  A    between atoms: C_18  and  C_19
REMARK    7  A    between atoms: C_19  and  C_20
REMARK                            x       y       z     vdW  Elec       q    Type
REMARK                         _______ _______ _______ _____ _____    ______ ____
ROOT
ATOM      1  C   UNL     1       4.002   5.631  17.320  0.00  0.00    +0.000 C 
ATOM      2  C   UNL     1       4.755   4.834  16.221  0.00  0.00    +0.000 C 
ATOM      3  C   UNL     1       4.228   3.315  16.324  0.00  0.00    +0.000 C 
ATOM      4  C   UNL     1       3.337   3.044  17.558  0.00  0.00    +0.000 A 
ATOM      5  C   UNL     1       2.167   2.288  17.556  0.00  0.00    +0.000 A 
ATOM      6  C   UNL     1       1.258   2.381  18.645  0.00  0.00    +0.000 A 
ATOM      7  C   UNL     1       1.506   3.234  19.729  0.00  0.00    +0.000 A 
ATOM      8  C   UNL     1       2.657   3.981  19.730  0.00  0.00    +0.000 A 
ATOM      9  C   UNL     1       3.556   3.840  18.698  0.00  0.00    +0.000 A 
ATOM     10  C   UNL     1       4.493   5.011  18.671  0.00  0.00    +0.000 C 
ATOM     11  C   UNL     1       5.905   4.392  18.693  0.00  0.00    +0.000 C 
ATOM     12  C   UNL     1       6.800   5.044  17.673  0.00  0.00    +0.000 C 
ATOM     13  N   UNL     1       6.208   5.101  16.334  0.00  0.00    +0.000 NA
ATOM     14  C   UNL     1       4.111   5.663  20.006  0.00  0.00    +0.000 C 
ATOM     15  O   UNL     1       2.919   5.050  20.549  0.00  0.00    +0.000 OA
ENDROOT
BRANCH   7  16
ATOM     16  O   UNL     1       0.599   3.422  20.729  0.00  0.00    +0.000 OA
ATOM     17  H   UNL     1       0.140   2.588  20.897  0.00  0.00    +0.000 HD
ENDBRANCH   7  16
BRANCH   1  18
ATOM     18  C   UNL     1       3.756   7.139  17.143  0.00  0.00    +0.000 C 
BRANCH  18  20
ATOM     19  C   UNL     1       2.108   8.987  17.873  0.00  0.00    +0.000 C 
ATOM     20  C   UNL     1       2.350   7.496  17.720  0.00  0.00    +0.000 C 
ENDBRANCH  18  20
ENDBRANCH   1  18
BRANCH  13  21
ATOM     21  C   UNL     1       7.128   4.523  15.350  0.00  0.00    +0.000 C 
BRANCH  21  22
ATOM     22  C   UNL     1       7.096   5.132  13.942  0.00  0.00    +0.000 C 
BRANCH  22  23
ATOM     23  C   UNL     1       6.520   4.133  12.965  0.00  0.00    +0.000 A 
ATOM     24  C   UNL     1       5.134   3.998  12.823  0.00  0.00    +0.000 A 
ATOM     25  C   UNL     1       4.604   3.025  11.969  0.00  0.00    +0.000 A 
ATOM     26  C   UNL     1       5.453   2.192  11.246  0.00  0.00    +0.000 A 
ATOM     27  C   UNL     1       6.835   2.320  11.376  0.00  0.00    +0.000 A 
ATOM     28  C   UNL     1       7.366   3.288  12.228  0.00  0.00    +0.000 A 
ENDBRANCH  22  23
ENDBRANCH  21  22
ENDBRANCH  13  21
TORSDOF 6
ENDMDL
MODEL 3
REMARK VINA RESULT:      -7.8      5.771      8.605
REMARK  Name = 
REMARK  7 active torsions:
REMARK  status: ('A' for Active; 'I' for Inactive)
REMARK    1  A    between atoms: C_1  and  C_2
REMARK    2  A    between atoms: C_2  and  C_3
REMARK    3  A    between atoms: C_3  and  C_4
REMARK    4  A    between atoms: C_10  and  O_11
REMARK    5  A    between atoms: N_17  and  C_18
REMARK    6  A    between atoms: C_18  and  C_19
REMARK    7  A    between atoms: C_19  and  C_20
REMARK                            x       y       z     vdW  Elec       q    Type
REMARK                         _______ _______ _______ _____ _____    ______ ____
ROOT
ATOM      1  C   UNL     1       0.766  11.270  19.173  0.00  0.00    +0.000 C 
ATOM      2  C   UNL     1       0.941  10.000  18.296  0.00  0.00    +0.000 C 
ATOM      3  C   UNL     1      -0.531   9.602  17.780  0.00  0.00    +0.000 C 
ATOM      4  C   UNL     1      -1.668  10.415  18.441  0.00  0.00    +0.000 A 
ATOM      5  C   UNL     1      -2.776  10.939  17.778  0.00  0.00    +0.000 A 
ATOM      6  C   UNL     1      -3.570  11.940  18.401  0.00  0.00    +0.000 A 
ATOM      7  C   UNL     1      -3.256  12.429  19.676  0.00  0.00    +0.000 A 
ATOM      8  C   UNL     1      -2.164  11.915  20.329  0.00  0.00    +0.000 A 
ATOM      9  C   UNL     1      -1.437  10.906  19.740  0.00  0.00    +0.000 A 
ATOM     10  C   UNL     1      -0.092  10.796  20.394  0.00  0.00    +0.000 C 
ATOM     11  C   UNL     1       0.028   9.317  20.811  0.00  0.00    +0.000 C 
ATOM     12  C   UNL     1       1.375   8.755  20.440  0.00  0.00    +0.000 C 
ATOM     13  N   UNL     1       1.739   8.999  19.041  0.00  0.00    +0.000 NA
ATOM     14  C   UNL     1      -0.321  11.732  21.588  0.00  0.00    +0.000 C 
ATOM     15  O   UNL     1      -1.560  12.461  21.433  0.00  0.00    +0.000 OA
ENDROOT
BRANCH   7  16
ATOM     16  O   UNL     1      -3.937  13.464  20.245  0.00  0.00    +0.000 OA
ATOM     17  H   UNL     1      -3.741  13.486  21.191  0.00  0.00    +0.000 HD
ENDBRANCH   7  16
BRANCH   1  18
ATOM     18  C   UNL     1       1.925  12.271  19.315  0.00  0.00    +0.000 C 
BRANCH  18  20
ATOM     19  C   UNL     1       0.171  13.986  18.513  0.00  0.00    +0.000 C 
ATOM     20  C   UNL     1       1.617  13.530  18.444  0.00  0.00    +0.000 C 
ENDBRANCH  18  20
ENDBRANCH   1  18
BRANCH  13  21
ATOM     21  C   UNL     1       2.110   7.740  18.389  0.00  0.00    +0.000 C 
BRANCH  21  22
ATOM     22  C   UNL     1       2.895   6.733  19.239  0.00  0.00    +0.000 C 
BRANCH  22  23
ATOM     23  C   UNL     1       2.157   5.415  19.284  0.00  0.00    +0.000 A 
ATOM     24  C   UNL     1       1.642   4.931  20.492  0.00  0.00    +0.000 A 
ATOM     25  C   UNL     1       1.020   3.679  20.543  0.00  0.00    +0.000 A 
ATOM     26  C   UNL     1       0.900   2.911  19.389  0.00  0.00    +0.000 A 
ATOM     27  C   UNL     1       1.407   3.383  18.180  0.00  0.00    +0.000 A 
ATOM     28  C   UNL     1       2.028   4.630  18.126  0.00  0.00    +0.000 A 
ENDBRANCH  22  23
ENDBRANCH  21  22
ENDBRANCH  13  21
TORSDOF 6
ENDMDL
MODEL 4
REMARK VINA RESULT:      -7.8      3.342      8.564
REMARK  Name = 
REMARK  7 active torsions:
REMARK  status: ('A' for Active; 'I' for Inactive)
REMARK    1  A    between atoms: C_1  and  C_2
REMARK    2  A    between atoms: C_2  and  C_3
REMARK    3  A    between atoms: C_3  and  C_4
REMARK    4  A    between atoms: C_10  and  O_11
REMARK    5  A    between atoms: N_17  and  C_18
REMARK    6  A    between atoms: C_18  and  C_19
REMARK    7  A    between atoms: C_19  and  C_20
REMARK                            x       y       z     vdW  Elec       q    Type
REMARK                         _______ _______ _______ _____ _____    ______ ____
ROOT
ATOM      1  C   UNL     1       2.370   5.012  17.746  0.00  0.00    +0.000 C 
ATOM      2  C   UNL     1       2.298   6.456  18.313  0.00  0.00    +0.000 C 
ATOM      3  C   UNL     1       3.555   7.247  17.693  0.00  0.00    +0.000 C 
ATOM      4  C   UNL     1       4.548   6.343  16.927  0.00  0.00    +0.000 A 
ATOM      5  C   UNL     1       5.154   6.659  15.712  0.00  0.00    +0.000 A 
ATOM      6  C   UNL     1       5.772   5.639  14.939  0.00  0.00    +0.000 A 
ATOM      7  C   UNL     1       5.778   4.304  15.367  0.00  0.00    +0.000 A 
ATOM      8  C   UNL     1       5.180   3.992  16.562  0.00  0.00    +0.000 A 
ATOM      9  C   UNL     1       4.635   4.997  17.328  0.00  0.00    +0.000 A 
ATOM     10  C   UNL     1       3.691   4.415  18.338  0.00  0.00    +0.000 C 
ATOM     11  C   UNL     1       4.169   4.967  19.695  0.00  0.00    +0.000 C 
ATOM     12  C   UNL     1       3.012   5.470  20.517  0.00  0.00    +0.000 C 
ATOM     13  N   UNL     1       2.140   6.394  19.785  0.00  0.00    +0.000 NA
ATOM     14  C   UNL     1       4.018   2.928  18.154  0.00  0.00    +0.000 C 
ATOM     15  O   UNL     1       4.851   2.730  16.989  0.00  0.00    +0.000 OA
ENDROOT
BRANCH   7  16
ATOM     16  O   UNL     1       6.267   3.295  14.592  0.00  0.00    +0.000 OA
ATOM     17  H   UNL     1       5.925   3.395  13.694  0.00  0.00    +0.000 HD
ENDBRANCH   7  16
BRANCH   1  18
ATOM     18  C   UNL     1       1.083   4.183  17.591  0.00  0.00    +0.000 C 
BRANCH  18  20
ATOM     19  C   UNL     1       0.623   3.085  19.882  0.00  0.00    +0.000 C 
ATOM     20  C   UNL     1       1.191   2.908  18.485  0.00  0.00    +0.000 C 
ENDBRANCH  18  20
ENDBRANCH   1  18
BRANCH  13  21
ATOM     21  C   UNL     1       1.966   7.634  20.546  0.00  0.00    +0.000 C 
BRANCH  21  22
ATOM     22  C   UNL     1       1.134   8.737  19.878  0.00  0.00    +0.000 C 
BRANCH  22  23
ATOM     23  C   UNL     1       0.411   9.543  20.932  0.00  0.00    +0.000 A 
ATOM     24  C   UNL     1       0.340   9.082  22.253  0.00  0.00    +0.000 A 
ATOM     25  C   UNL     1      -0.389   9.795  23.210  0.00  0.00    +0.000 A 
ATOM     26  C   UNL     1      -1.039  10.975  22.859  0.00  0.00    +0.000 A 
ATOM     27  C   UNL     1      -0.972  11.445  21.548  0.00  0.00    +0.000 A 
ATOM     28  C   UNL     1      -0.248  10.736  20.591  0.00  0.00    +0.000 A 
ENDBRANCH  22  23
ENDBRANCH  21  22
ENDBRANCH  13  21
TORSDOF 6
ENDMDL
MODEL 5
REMARK VINA RESULT:      -7.7      3.364      8.611
REMARK  Name = 
REMARK  7 active torsions:
REMARK  status: ('A' for Active; 'I' for Inactive)
REMARK    1  A    between atoms: C_1  and  C_2
REMARK    2  A    between atoms: C_2  and  C_3
REMARK    3  A    between atoms: C_3  and  C_4
REMARK    4  A    between atoms: C_10  and  O_11
REMARK    5  A    between atoms: N_17  and  C_18
REMARK    6  A    between atoms: C_18  and  C_19
REMARK    7  A    between atoms: C_19  and  C_20
REMARK                            x       y       z     vdW  Elec       q    Type
REMARK                         _______ _______ _______ _____ _____    ______ ____
ROOT
ATOM      1  C   UNL     1       2.392   5.050  17.708  0.00  0.00    +0.000 C 
ATOM      2  C   UNL     1       2.268   6.516  18.205  0.00  0.00    +0.000 C 
ATOM      3  C   UNL     1       3.510   7.316  17.563  0.00  0.00    +0.000 C 
ATOM      4  C   UNL     1       4.540   6.409  16.855  0.00  0.00    +0.000 A 
ATOM      5  C   UNL     1       5.153   6.685  15.634  0.00  0.00    +0.000 A 
ATOM      6  C   UNL     1       5.813   5.649  14.918  0.00  0.00    +0.000 A 
ATOM      7  C   UNL     1       5.854   4.337  15.409  0.00  0.00    +0.000 A 
ATOM      8  C   UNL     1       5.249   4.064  16.610  0.00  0.00    +0.000 A 
ATOM      9  C   UNL     1       4.663   5.086  17.321  0.00  0.00    +0.000 A 
ATOM     10  C   UNL     1       3.722   4.524  18.345  0.00  0.00    +0.000 C 
ATOM     11  C   UNL     1       4.165   5.155  19.680  0.00  0.00    +0.000 C 
ATOM     12  C   UNL     1       2.981   5.659  20.462  0.00  0.00    +0.000 C 
ATOM     13  N   UNL     1       2.091   6.519  19.676  0.00  0.00    +0.000 NA
ATOM     14  C   UNL     1       4.098   3.041  18.237  0.00  0.00    +0.000 C 
ATOM     15  O   UNL     1       4.953   2.814  17.094  0.00  0.00    +0.000 OA
ENDROOT
BRANCH   7  16
ATOM     16  O   UNL     1       6.384   3.308  14.690  0.00  0.00    +0.000 OA
ATOM     17  H   UNL     1       7.347   3.391  14.686  0.00  0.00    +0.000 HD
ENDBRANCH   7  16
BRANCH   1  18
ATOM     18  C   UNL     1       1.134   4.174  17.577  0.00  0.00    +0.000 C 
BRANCH  18  20
ATOM     19  C   UNL     1       0.631   3.101  19.870  0.00  0.00    +0.000 C 
ATOM     20  C   UNL     1       1.282   2.931  18.509  0.00  0.00    +0.000 C 
ENDBRANCH  18  20
ENDBRANCH   1  18
BRANCH  13  21
ATOM     21  C   UNL     1       1.869   7.788  20.374  0.00  0.00    +0.000 C 
BRANCH  21  22
ATOM     22  C   UNL     1       0.900   7.756  21.564  0.00  0.00    +0.000 C 
BRANCH  22  23
ATOM     23  C   UNL     1       0.173   9.076  21.669  0.00  0.00    +0.000 A 
ATOM     24  C   UNL     1       0.061   9.915  20.553  0.00  0.00    +0.000 A 
ATOM     25  C   UNL     1      -0.553  11.167  20.671  0.00  0.00    +0.000 A 
ATOM     26  C   UNL     1      -1.066  11.581  21.897  0.00  0.00    +0.000 A 
ATOM     27  C   UNL     1      -0.963  10.753  23.013  0.00  0.00    +0.000 A 
ATOM     28  C   UNL     1      -0.351   9.506  22.899  0.00  0.00    +0.000 A 
ENDBRANCH  22  23
ENDBRANCH  21  22
ENDBRANCH  13  21
TORSDOF 6
ENDMDL
MODEL 6
REMARK VINA RESULT:      -7.6      5.724      8.543
REMARK  Name = 
REMARK  7 active torsions:
REMARK  status: ('A' for Active; 'I' for Inactive)
REMARK    1  A    between atoms: C_1  and  C_2
REMARK    2  A    between atoms: C_2  and  C_3
REMARK    3  A    between atoms: C_3  and  C_4
REMARK    4  A    between atoms: C_10  and  O_11
REMARK    5  A    between atoms: N_17  and  C_18
REMARK    6  A    between atoms: C_18  and  C_19
REMARK    7  A    between atoms: C_19  and  C_20
REMARK                            x       y       z     vdW  Elec       q    Type
REMARK                         _______ _______ _______ _____ _____    ______ ____
ROOT
ATOM      1  C   UNL     1       0.793  11.225  18.914  0.00  0.00    +0.000 C 
ATOM      2  C   UNL     1       0.927   9.910  18.099  0.00  0.00    +0.000 C 
ATOM      3  C   UNL     1      -0.570   9.481  17.688  0.00  0.00    +0.000 C 
ATOM      4  C   UNL     1      -1.672  10.326  18.366  0.00  0.00    +0.000 A 
ATOM      5  C   UNL     1      -2.818  10.810  17.738  0.00  0.00    +0.000 A 
ATOM      6  C   UNL     1      -3.582  11.842  18.348  0.00  0.00    +0.000 A 
ATOM      7  C   UNL     1      -3.201  12.401  19.576  0.00  0.00    +0.000 A 
ATOM      8  C   UNL     1      -2.072  11.926  20.194  0.00  0.00    +0.000 A 
ATOM      9  C   UNL     1      -1.373  10.888  19.622  0.00  0.00    +0.000 A 
ATOM     10  C   UNL     1       0.007  10.816  20.205  0.00  0.00    +0.000 C 
ATOM     11  C   UNL     1       0.158   9.363  20.695  0.00  0.00    +0.000 C 
ATOM     12  C   UNL     1       1.485   8.784  20.280  0.00  0.00    +0.000 C 
ATOM     13  N   UNL     1       1.770   8.953  18.852  0.00  0.00    +0.000 NA
ATOM     14  C   UNL     1      -0.160  11.815  21.358  0.00  0.00    +0.000 C 
ATOM     15  O   UNL     1      -1.410  12.532  21.232  0.00  0.00    +0.000 OA
ENDROOT
BRANCH   7  16
ATOM     16  O   UNL     1      -3.854  13.464  20.125  0.00  0.00    +0.000 OA
ATOM     17  H   UNL     1      -4.562  13.136  20.695  0.00  0.00    +0.000 HD
ENDBRANCH   7  16
BRANCH   1  18
ATOM     18  C   UNL     1       1.954  12.235  18.937  0.00  0.00    +0.000 C 
BRANCH  18  20
ATOM     19  C   UNL     1       1.421  14.689  19.535  0.00  0.00    +0.000 C 
ATOM     20  C   UNL     1       1.427  13.623  18.454  0.00  0.00    +0.000 C 
ENDBRANCH  18  20
ENDBRANCH   1  18
BRANCH  13  21
ATOM     21  C   UNL     1       2.111   7.661  18.250  0.00  0.00    +0.000 C 
BRANCH  21  22
ATOM     22  C   UNL     1       2.951   6.705  19.107  0.00  0.00    +0.000 C 
BRANCH  22  23
ATOM     23  C   UNL     1       2.254   5.368  19.217  0.00  0.00    +0.000 A 
ATOM     24  C   UNL     1       2.021   4.594  18.074  0.00  0.00    +0.000 A 
ATOM     25  C   UNL     1       1.314   3.390  18.169  0.00  0.00    +0.000 A 
ATOM     26  C   UNL     1       0.848   2.950  19.404  0.00  0.00    +0.000 A 
ATOM     27  C   UNL     1       1.077   3.710  20.549  0.00  0.00    +0.000 A 
ATOM     28  C   UNL     1       1.779   4.911  20.457  0.00  0.00    +0.000 A 
ENDBRANCH  22  23
ENDBRANCH  21  22
ENDBRANCH  13  21
TORSDOF 6
ENDMDL
MODEL 7
REMARK VINA RESULT:      -7.6      1.088      1.603
REMARK  Name = 
REMARK  7 active torsions:
REMARK  status: ('A' for Active; 'I' for Inactive)
REMARK    1  A    between atoms: C_1  and  C_2
REMARK    2  A    between atoms: C_2  and  C_3
REMARK    3  A    between atoms: C_3  and  C_4
REMARK    4  A    between atoms: C_10  and  O_11
REMARK    5  A    between atoms: N_17  and  C_18
REMARK    6  A    between atoms: C_18  and  C_19
REMARK    7  A    between atoms: C_19  and  C_20
REMARK                            x       y       z     vdW  Elec       q    Type
REMARK                         _______ _______ _______ _____ _____    ______ ____
ROOT
ATOM      1  C   UNL     1       5.193   5.897  18.430  0.00  0.00    +0.000 C 
ATOM      2  C   UNL     1       5.315   6.306  16.936  0.00  0.00    +0.000 C 
ATOM      3  C   UNL     1       4.071   7.283  16.634  0.00  0.00    +0.000 C 
ATOM      4  C   UNL     1       3.042   7.361  17.785  0.00  0.00    +0.000 A 
ATOM      5  C   UNL     1       2.428   8.527  18.240  0.00  0.00    +0.000 A 
ATOM      6  C   UNL     1       1.770   8.539  19.499  0.00  0.00    +0.000 A 
ATOM      7  C   UNL     1       1.733   7.399  20.312  0.00  0.00    +0.000 A 
ATOM      8  C   UNL     1       2.339   6.251  19.866  0.00  0.00    +0.000 A 
ATOM      9  C   UNL     1       2.923   6.235  18.621  0.00  0.00    +0.000 A 
ATOM     10  C   UNL     1       3.865   5.073  18.512  0.00  0.00    +0.000 C 
ATOM     11  C   UNL     1       3.421   4.318  17.243  0.00  0.00    +0.000 C 
ATOM     12  C   UNL     1       4.604   3.955  16.385  0.00  0.00    +0.000 C 
ATOM     13  N   UNL     1       5.492   5.088  16.111  0.00  0.00    +0.000 NA
ATOM     14  C   UNL     1       3.492   4.332  19.802  0.00  0.00    +0.000 C 
ATOM     15  O   UNL     1       2.637   5.152  20.631  0.00  0.00    +0.000 OA
ENDROOT
BRANCH   7  16
ATOM     16  O   UNL     1       1.204   7.418  21.569  0.00  0.00    +0.000 OA
ATOM     17  H   UNL     1       0.281   7.136  21.526  0.00  0.00    +0.000 HD
ENDBRANCH   7  16
BRANCH   1  18
ATOM     18  C   UNL     1       6.454   5.517  19.227  0.00  0.00    +0.000 C 
BRANCH  18  20
ATOM     19  C   UNL     1       8.146   7.351  18.567  0.00  0.00    +0.000 C 
ATOM     20  C   UNL     1       7.716   5.905  18.395  0.00  0.00    +0.000 C 
ENDBRANCH  18  20
ENDBRANCH   1  18
BRANCH  13  21
ATOM     21  C   UNL     1       5.712   5.220  14.668  0.00  0.00    +0.000 C 
BRANCH  21  22
ATOM     22  C   UNL     1       6.703   4.235  14.033  0.00  0.00    +0.000 C 
BRANCH  22  23
ATOM     23  C   UNL     1       6.031   3.489  12.903  0.00  0.00    +0.000 A 
ATOM     24  C   UNL     1       6.719   2.489  12.205  0.00  0.00    +0.000 A 
ATOM     25  C   UNL     1       6.119   1.849  11.116  0.00  0.00    +0.000 A 
ATOM     26  C   UNL     1       4.828   2.194  10.726  0.00  0.00    +0.000 A 
ATOM     27  C   UNL     1       4.132   3.186  11.415  0.00  0.00    +0.000 A 
ATOM     28  C   UNL     1       4.728   3.827  12.501  0.00  0.00    +0.000 A 
ENDBRANCH  22  23
ENDBRANCH  21  22
ENDBRANCH  13  21
TORSDOF 6
ENDMDL
MODEL 8
REMARK VINA RESULT:      -7.6      5.863      8.955
REMARK  Name = 
REMARK  7 active torsions:
REMARK  status: ('A' for Active; 'I' for Inactive)
REMARK    1  A    between atoms: C_1  and  C_2
REMARK    2  A    between atoms: C_2  and  C_3
REMARK    3  A    between atoms: C_3  and  C_4
REMARK    4  A    between atoms: C_10  and  O_11
REMARK    5  A    between atoms: N_17  and  C_18
REMARK    6  A    between atoms: C_18  and  C_19
REMARK    7  A    between atoms: C_19  and  C_20
REMARK                            x       y       z     vdW  Elec       q    Type
REMARK                         _______ _______ _______ _____ _____    ______ ____
ROOT
ATOM      1  C   UNL     1      -0.658  10.297  18.768  0.00  0.00    +0.000 C 
ATOM      2  C   UNL     1       0.416   9.246  19.159  0.00  0.00    +0.000 C 
ATOM      3  C   UNL     1       0.655   9.413  20.742  0.00  0.00    +0.000 C 
ATOM      4  C   UNL     1      -0.046  10.647  21.354  0.00  0.00    +0.000 A 
ATOM      5  C   UNL     1      -0.728  10.666  22.570  0.00  0.00    +0.000 A 
ATOM      6  C   UNL     1      -1.610  11.738  22.874  0.00  0.00    +0.000 A 
ATOM      7  C   UNL     1      -1.825  12.784  21.966  0.00  0.00    +0.000 A 
ATOM      8  C   UNL     1      -1.156  12.764  20.768  0.00  0.00    +0.000 A 
ATOM      9  C   UNL     1      -0.261  11.752  20.509  0.00  0.00    +0.000 A 
ATOM     10  C   UNL     1       0.022  11.682  19.038  0.00  0.00    +0.000 C 
ATOM     11  C   UNL     1       1.557  11.750  18.924  0.00  0.00    +0.000 C 
ATOM     12  C   UNL     1       2.078  10.712  17.965  0.00  0.00    +0.000 C 
ATOM     13  N   UNL     1       1.572   9.364  18.239  0.00  0.00    +0.000 NA
ATOM     14  C   UNL     1      -0.664  12.980  18.593  0.00  0.00    +0.000 C 
ATOM     15  O   UNL     1      -1.450  13.536  19.672  0.00  0.00    +0.000 OA
ENDROOT
BRANCH   7  16
ATOM     16  O   UNL     1      -2.747  13.762  22.189  0.00  0.00    +0.000 OA
ATOM     17  H   UNL     1      -2.481  14.559  21.711  0.00  0.00    +0.000 HD
ENDBRANCH   7  16
BRANCH   1  18
ATOM     18  C   UNL     1      -1.573  10.046  17.556  0.00  0.00    +0.000 C 
BRANCH  18  20
ATOM     19  C   UNL     1      -3.875  10.897  16.759  0.00  0.00    +0.000 C 
ATOM     20  C   UNL     1      -3.036  10.435  17.936  0.00  0.00    +0.000 C 
ENDBRANCH  18  20
ENDBRANCH   1  18
BRANCH  13  21
ATOM     21  C   UNL     1       2.687   8.420  18.354  0.00  0.00    +0.000 C 
BRANCH  21  22
ATOM     22  C   UNL     1       2.582   7.131  17.529  0.00  0.00    +0.000 C 
BRANCH  22  23
ATOM     23  C   UNL     1       2.230   5.971  18.432  0.00  0.00    +0.000 A 
ATOM     24  C   UNL     1       1.790   4.758  17.890  0.00  0.00    +0.000 A 
ATOM     25  C   UNL     1       1.399   3.710  18.731  0.00  0.00    +0.000 A 
ATOM     26  C   UNL     1       1.456   3.865  20.113  0.00  0.00    +0.000 A 
ATOM     27  C   UNL     1       1.895   5.067  20.664  0.00  0.00    +0.000 A 
ATOM     28  C   UNL     1       2.284   6.113  19.829  0.00  0.00    +0.000 A 
ENDBRANCH  22  23
ENDBRANCH  21  22
ENDBRANCH  13  21
TORSDOF 6
ENDMDL
MODEL 9
REMARK VINA RESULT:      -7.6      5.817      8.584
REMARK  Name = 
REMARK  7 active torsions:
REMARK  status: ('A' for Active; 'I' for Inactive)
REMARK    1  A    between atoms: C_1  and  C_2
REMARK    2  A    between atoms: C_2  and  C_3
REMARK    3  A    between atoms: C_3  and  C_4
REMARK    4  A    between atoms: C_10  and  O_11
REMARK    5  A    between atoms: N_17  and  C_18
REMARK    6  A    between atoms: C_18  and  C_19
REMARK    7  A    between atoms: C_19  and  C_20
REMARK                            x       y       z     vdW  Elec       q    Type
REMARK                         _______ _______ _______ _____ _____    ______ ____
ROOT
ATOM      1  C   UNL     1       0.320  11.295  18.875  0.00  0.00    +0.000 C 
ATOM      2  C   UNL     1       0.921   9.982  18.302  0.00  0.00    +0.000 C 
ATOM      3  C   UNL     1      -0.259   9.274  17.466  0.00  0.00    +0.000 C 
ATOM      4  C   UNL     1      -1.640   9.946  17.640  0.00  0.00    +0.000 A 
ATOM      5  C   UNL     1      -2.555  10.186  16.616  0.00  0.00    +0.000 A 
ATOM      6  C   UNL     1      -3.626  11.098  16.818  0.00  0.00    +0.000 A 
ATOM      7  C   UNL     1      -3.782  11.779  18.033  0.00  0.00    +0.000 A 
ATOM      8  C   UNL     1      -2.881  11.545  19.040  0.00  0.00    +0.000 A 
ATOM      9  C   UNL     1      -1.882  10.619  18.853  0.00  0.00    +0.000 A 
ATOM     10  C   UNL     1      -0.796  10.823  19.867  0.00  0.00    +0.000 C 
ATOM     11  C   UNL     1      -0.612   9.447  20.536  0.00  0.00    +0.000 C 
ATOM     12  C   UNL     1       0.847   9.091  20.655  0.00  0.00    +0.000 C 
ATOM     13  N   UNL     1       1.582   9.231  19.394  0.00  0.00    +0.000 NA
ATOM     14  C   UNL     1      -1.499  11.837  20.779  0.00  0.00    +0.000 C 
ATOM     15  O   UNL     1      -2.718  12.314  20.166  0.00  0.00    +0.000 OA
ENDROOT
BRANCH   7  16
ATOM     16  O   UNL     1      -4.735  12.738  18.211  0.00  0.00    +0.000 OA
ATOM     17  H   UNL     1      -4.631  13.415  17.530  0.00  0.00    +0.000 HD
ENDBRANCH   7  16
BRANCH   1  18
ATOM     18  C   UNL     1       1.237  12.494  19.171  0.00  0.00    +0.000 C 
BRANCH  18  20
ATOM     19  C   UNL     1       3.274  13.759  18.214  0.00  0.00    +0.000 C 
ATOM     20  C   UNL     1       2.354  12.559  18.081  0.00  0.00    +0.000 C 
ENDBRANCH  18  20
ENDBRANCH   1  18
BRANCH  13  21
ATOM     21  C   UNL     1       2.297   7.989  19.087  0.00  0.00    +0.000 C 
BRANCH  21  22
ATOM     22  C   UNL     1       2.313   6.917  20.184  0.00  0.00    +0.000 C 
BRANCH  22  23
ATOM     23  C   UNL     1       1.889   5.586  19.607  0.00  0.00    +0.000 A 
ATOM     24  C   UNL     1       1.314   4.608  20.426  0.00  0.00    +0.000 A 
ATOM     25  C   UNL     1       0.987   3.352  19.903  0.00  0.00    +0.000 A 
ATOM     26  C   UNL     1       1.222   3.072  18.560  0.00  0.00    +0.000 A 
ATOM     27  C   UNL     1       1.791   4.040  17.734  0.00  0.00    +0.000 A 
ATOM     28  C   UNL     1       2.119   5.291  18.253  0.00  0.00    +0.000 A 
ENDBRANCH  22  23
ENDBRANCH  21  22
ENDBRANCH  13  21
TORSDOF 6
ENDMDL
