MODEL 1
REMARK VINA RESULT:      -7.7      0.000      0.000
REMARK  Name = 
REMARK  3 active torsions:
REMARK  status: ('A' for Active; 'I' for Inactive)
REMARK    1  A    between atoms: C_1  and  C_2
REMARK    2  A    between atoms: C_2  and  C_4
REMARK    3  A    between atoms: C_8  and  C_9
REMARK                            x       y       z     vdW  Elec       q    Type
REMARK                         _______ _______ _______ _____ _____    ______ ____
ROOT
ATOM      1  C   UNL     1      -0.473  10.716  21.560  0.00  0.00    +0.000 A 
ATOM      2  N   UNL     1      -0.057  10.812  20.320  0.00  0.00    +0.000 NA
ATOM      3  N   UNL     1       0.694   9.705  20.106  0.00  0.00    +0.000 N 
ATOM      4  C   UNL     1       1.357   9.247  19.010  0.00  0.00    +0.000 A 
ATOM      5  C   UNL     1       1.899   8.040  19.427  0.00  0.00    +0.000 A 
ATOM      6  N   UNL     1       1.583   7.761  20.748  0.00  0.00    +0.000 NA
ATOM      7  C   UNL     1       0.874   8.796  21.096  0.00  0.00    +0.000 A 
ATOM      8  S   UNL     1       0.069   9.310  22.515  0.00  0.00    +0.000 S 
ENDROOT
BRANCH   5   9
ATOM      9  C   UNL     1       2.717   7.137  18.580  0.00  0.00    +0.000 A 
ATOM     10  C   UNL     1       2.579   5.764  18.529  0.00  0.00    +0.000 A 
ATOM     11  C   UNL     1       3.543   5.280  17.604  0.00  0.00    +0.000 A 
ATOM     12  C   UNL     1       3.940   4.041  17.078  0.00  0.00    +0.000 A 
ATOM     13 CL   UNL     1       3.067   2.670  17.600  0.00  0.00    +0.000 Cl
ATOM     14  C   UNL     1       4.995   3.949  16.171  0.00  0.00    +0.000 A 
ATOM     15  C   UNL     1       5.663   5.109  15.782  0.00  0.00    +0.000 A 
ATOM     16 CL   UNL     1       6.984   4.987  14.681  0.00  0.00    +0.000 Cl
ATOM     17  C   UNL     1       5.295   6.371  16.262  0.00  0.00    +0.000 A 
ATOM     18  C   UNL     1       4.231   6.406  17.164  0.00  0.00    +0.000 A 
ATOM     19  O   UNL     1       3.721   7.530  17.740  0.00  0.00    +0.000 OA
ENDBRANCH   5   9
BRANCH   1  21
ATOM     20  C   UNL     1      -0.670  13.055  22.423  0.00  0.00    +0.000 C 
ATOM     21  C   UNL     1      -1.375  11.729  22.221  0.00  0.00    +0.000 C 
ATOM     22  F   UNL     1      -1.838  11.305  23.433  0.00  0.00    +0.000 F 
ENDBRANCH   1  21
TORSDOF 2
ENDMDL
MODEL 2
REMARK VINA RESULT:      -7.5      1.060      1.251
REMARK  Name = 
REMARK  3 active torsions:
REMARK  status: ('A' for Active; 'I' for Inactive)
REMARK    1  A    between atoms: C_1  and  C_2
REMARK    2  A    between atoms: C_2  and  C_4
REMARK    3  A    between atoms: C_8  and  C_9
REMARK                            x       y       z     vdW  Elec       q    Type
REMARK                         _______ _______ _______ _____ _____    ______ ____
ROOT
ATOM      1  C   UNL     1      -0.310  10.403  21.400  0.00  0.00    +0.000 A 
ATOM      2  N   UNL     1       0.141   9.198  21.655  0.00  0.00    +0.000 NA
ATOM      3  N   UNL     1       0.847   8.838  20.557  0.00  0.00    +0.000 N 
ATOM      4  C   UNL     1       1.561   7.720  20.254  0.00  0.00    +0.000 A 
ATOM      5  C   UNL     1       2.076   7.984  18.994  0.00  0.00    +0.000 A 
ATOM      6  N   UNL     1       1.689   9.230  18.527  0.00  0.00    +0.000 NA
ATOM      7  C   UNL     1       0.951   9.682  19.500  0.00  0.00    +0.000 A 
ATOM      8  S   UNL     1       0.070  11.115  19.808  0.00  0.00    +0.000 S 
ENDROOT
BRANCH   5   9
ATOM      9  C   UNL     1       2.944   7.061  18.219  0.00  0.00    +0.000 A 
ATOM     10  C   UNL     1       2.922   5.684  18.322  0.00  0.00    +0.000 A 
ATOM     11  C   UNL     1       3.896   5.180  17.419  0.00  0.00    +0.000 A 
ATOM     12  C   UNL     1       4.381   3.927  17.016  0.00  0.00    +0.000 A 
ATOM     13 CL   UNL     1       3.644   2.556  17.716  0.00  0.00    +0.000 Cl
ATOM     14  C   UNL     1       5.413   3.821  16.085  0.00  0.00    +0.000 A 
ATOM     15  C   UNL     1       5.969   4.981  15.547  0.00  0.00    +0.000 A 
ATOM     16 CL   UNL     1       7.262   4.845  14.416  0.00  0.00    +0.000 Cl
ATOM     17  C   UNL     1       5.508   6.255  15.900  0.00  0.00    +0.000 A 
ATOM     18  C   UNL     1       4.472   6.303  16.834  0.00  0.00    +0.000 A 
ATOM     19  O   UNL     1       3.885   7.439  17.303  0.00  0.00    +0.000 OA
ENDBRANCH   5   9
BRANCH   1  21
ATOM     20  C   UNL     1      -0.696  12.665  22.396  0.00  0.00    +0.000 C 
ATOM     21  C   UNL     1      -1.132  11.213  22.372  0.00  0.00    +0.000 C 
ATOM     22  F   UNL     1      -1.064  10.728  23.646  0.00  0.00    +0.000 F 
ENDBRANCH   1  21
TORSDOF 2
ENDMDL
MODEL 3
REMARK VINA RESULT:      -7.3      1.307      1.516
REMARK  Name = 
REMARK  3 active torsions:
REMARK  status: ('A' for Active; 'I' for Inactive)
REMARK    1  A    between atoms: C_1  and  C_2
REMARK    2  A    between atoms: C_2  and  C_4
REMARK    3  A    between atoms: C_8  and  C_9
REMARK                            x       y       z     vdW  Elec       q    Type
REMARK                         _______ _______ _______ _____ _____    ______ ____
ROOT
ATOM      1  C   UNL     1      -0.601  11.204  20.817  0.00  0.00    +0.000 A 
ATOM      2  N   UNL     1      -0.042  10.120  21.296  0.00  0.00    +0.000 NA
ATOM      3  N   UNL     1       0.604   9.554  20.248  0.00  0.00    +0.000 N 
ATOM      4  C   UNL     1       1.376   8.438  20.143  0.00  0.00    +0.000 A 
ATOM      5  C   UNL     1       1.772   8.430  18.814  0.00  0.00    +0.000 A 
ATOM      6  N   UNL     1       1.256   9.510  18.114  0.00  0.00    +0.000 NA
ATOM      7  C   UNL     1       0.562  10.133  19.022  0.00  0.00    +0.000 A 
ATOM      8  S   UNL     1      -0.399  11.546  19.076  0.00  0.00    +0.000 S 
ENDROOT
BRANCH   5   9
ATOM      9  C   UNL     1       2.645   7.403  18.193  0.00  0.00    +0.000 A 
ATOM     10  C   UNL     1       2.457   6.039  18.298  0.00  0.00    +0.000 A 
ATOM     11  C   UNL     1       3.502   5.414  17.565  0.00  0.00    +0.000 A 
ATOM     12  C   UNL     1       3.905   4.107  17.250  0.00  0.00    +0.000 A 
ATOM     13 CL   UNL     1       2.921   2.839  17.831  0.00  0.00    +0.000 Cl
ATOM     14  C   UNL     1       5.054   3.871  16.497  0.00  0.00    +0.000 A 
ATOM     15  C   UNL     1       5.811   4.953  16.050  0.00  0.00    +0.000 A 
ATOM     16 CL   UNL     1       7.245   4.654  15.142  0.00  0.00    +0.000 Cl
ATOM     17  C   UNL     1       5.442   6.275  16.319  0.00  0.00    +0.000 A 
ATOM     18  C   UNL     1       4.282   6.455  17.074  0.00  0.00    +0.000 A 
ATOM     19  O   UNL     1       3.756   7.658  17.437  0.00  0.00    +0.000 OA
ENDBRANCH   5   9
BRANCH   1  21
ATOM     20  C   UNL     1      -1.625  11.645  23.055  0.00  0.00    +0.000 C 
ATOM     21  C   UNL     1      -1.406  12.170  21.650  0.00  0.00    +0.000 C 
ATOM     22  F   UNL     1      -2.626  12.442  21.103  0.00  0.00    +0.000 F 
ENDBRANCH   1  21
TORSDOF 2
ENDMDL
MODEL 4
REMARK VINA RESULT:      -7.2      1.756      2.783
REMARK  Name = 
REMARK  3 active torsions:
REMARK  status: ('A' for Active; 'I' for Inactive)
REMARK    1  A    between atoms: C_1  and  C_2
REMARK    2  A    between atoms: C_2  and  C_4
REMARK    3  A    between atoms: C_8  and  C_9
REMARK                            x       y       z     vdW  Elec       q    Type
REMARK                         _______ _______ _______ _____ _____    ______ ____
ROOT
ATOM      1  C   UNL     1      -0.568  11.644  22.306  0.00  0.00    +0.000 A 
ATOM      2  N   UNL     1      -0.058  10.541  22.798  0.00  0.00    +0.000 NA
ATOM      3  N   UNL     1       0.400   9.847  21.729  0.00  0.00    +0.000 N 
ATOM      4  C   UNL     1       1.046   8.655  21.620  0.00  0.00    +0.000 A 
ATOM      5  C   UNL     1       1.274   8.521  20.259  0.00  0.00    +0.000 A 
ATOM      6  N   UNL     1       0.778   9.600  19.543  0.00  0.00    +0.000 NA
ATOM      7  C   UNL     1       0.262  10.347  20.476  0.00  0.00    +0.000 A 
ATOM      8  S   UNL     1      -0.551  11.851  20.534  0.00  0.00    +0.000 S 
ENDROOT
BRANCH   5   9
ATOM      9  C   UNL     1       1.966   7.374  19.620  0.00  0.00    +0.000 A 
ATOM     10  C   UNL     1       2.819   7.470  18.539  0.00  0.00    +0.000 A 
ATOM     11  C   UNL     1       3.266   6.155  18.240  0.00  0.00    +0.000 A 
ATOM     12  C   UNL     1       4.121   5.539  17.312  0.00  0.00    +0.000 A 
ATOM     13 CL   UNL     1       4.925   6.566  16.210  0.00  0.00    +0.000 Cl
ATOM     14  C   UNL     1       4.298   4.157  17.304  0.00  0.00    +0.000 A 
ATOM     15  C   UNL     1       3.614   3.376  18.235  0.00  0.00    +0.000 A 
ATOM     16 CL   UNL     1       3.816   1.664  18.203  0.00  0.00    +0.000 Cl
ATOM     17  C   UNL     1       2.766   3.941  19.194  0.00  0.00    +0.000 A 
ATOM     18  C   UNL     1       2.627   5.329  19.159  0.00  0.00    +0.000 A 
ATOM     19  O   UNL     1       1.856   6.066  20.005  0.00  0.00    +0.000 OA
ENDBRANCH   5   9
BRANCH   1  21
ATOM     20  C   UNL     1      -2.686  12.741  23.060  0.00  0.00    +0.000 C 
ATOM     21  C   UNL     1      -1.172  12.738  23.152  0.00  0.00    +0.000 C 
ATOM     22  F   UNL     1      -0.723  13.978  22.802  0.00  0.00    +0.000 F 
ENDBRANCH   1  21
TORSDOF 2
ENDMDL
MODEL 5
REMARK VINA RESULT:      -7.2      5.129      8.445
REMARK  Name = 
REMARK  3 active torsions:
REMARK  status: ('A' for Active; 'I' for Inactive)
REMARK    1  A    between atoms: C_1  and  C_2
REMARK    2  A    between atoms: C_2  and  C_4
REMARK    3  A    between atoms: C_8  and  C_9
REMARK                            x       y       z     vdW  Elec       q    Type
REMARK                         _______ _______ _______ _____ _____    ______ ____
ROOT
ATOM      1  C   UNL     1       5.276   5.038  16.698  0.00  0.00    +0.000 A 
ATOM      2  N   UNL     1       4.971   6.284  16.428  0.00  0.00    +0.000 NA
ATOM      3  N   UNL     1       4.039   6.635  17.346  0.00  0.00    +0.000 N 
ATOM      4  C   UNL     1       3.378   7.800  17.579  0.00  0.00    +0.000 A 
ATOM      5  C   UNL     1       2.588   7.521  18.684  0.00  0.00    +0.000 A 
ATOM      6  N   UNL     1       2.753   6.216  19.121  0.00  0.00    +0.000 NA
ATOM      7  C   UNL     1       3.621   5.740  18.276  0.00  0.00    +0.000 A 
ATOM      8  S   UNL     1       4.410   4.241  18.041  0.00  0.00    +0.000 S 
ENDROOT
BRANCH   5   9
ATOM      9  C   UNL     1       1.672   8.487  19.341  0.00  0.00    +0.000 A 
ATOM     10  C   UNL     1       1.361   8.489  20.687  0.00  0.00    +0.000 A 
ATOM     11  C   UNL     1       0.459   9.565  20.907  0.00  0.00    +0.000 A 
ATOM     12  C   UNL     1      -0.227  10.133  21.992  0.00  0.00    +0.000 A 
ATOM     13 CL   UNL     1       0.051   9.438  23.525  0.00  0.00    +0.000 Cl
ATOM     14  C   UNL     1      -1.088  11.214  21.811  0.00  0.00    +0.000 A 
ATOM     15  C   UNL     1      -1.267  11.738  20.531  0.00  0.00    +0.000 A 
ATOM     16 CL   UNL     1      -2.353  13.057  20.309  0.00  0.00    +0.000 Cl
ATOM     17  C   UNL     1      -0.591  11.221  19.420  0.00  0.00    +0.000 A 
ATOM     18  C   UNL     1       0.260  10.141  19.658  0.00  0.00    +0.000 A 
ATOM     19  O   UNL     1       1.006   9.502  18.713  0.00  0.00    +0.000 OA
ENDBRANCH   5   9
BRANCH   1  21
ATOM     20  C   UNL     1       6.735   4.956  14.669  0.00  0.00    +0.000 C 
ATOM     21  C   UNL     1       6.307   4.243  15.936  0.00  0.00    +0.000 C 
ATOM     22  F   UNL     1       5.861   2.999  15.594  0.00  0.00    +0.000 F 
ENDBRANCH   1  21
TORSDOF 2
ENDMDL
MODEL 6
REMARK VINA RESULT:      -7.1      1.533      1.828
REMARK  Name = 
REMARK  3 active torsions:
REMARK  status: ('A' for Active; 'I' for Inactive)
REMARK    1  A    between atoms: C_1  and  C_2
REMARK    2  A    between atoms: C_2  and  C_4
REMARK    3  A    between atoms: C_8  and  C_9
REMARK                            x       y       z     vdW  Elec       q    Type
REMARK                         _______ _______ _______ _____ _____    ______ ____
ROOT
ATOM      1  C   UNL     1      -0.745  11.288  22.328  0.00  0.00    +0.000 A 
ATOM      2  N   UNL     1      -0.390  10.083  22.702  0.00  0.00    +0.000 NA
ATOM      3  N   UNL     1       0.267   9.555  21.642  0.00  0.00    +0.000 N 
ATOM      4  C   UNL     1       0.882   8.357  21.451  0.00  0.00    +0.000 A 
ATOM      5  C   UNL     1       1.397   8.447  20.166  0.00  0.00    +0.000 A 
ATOM      6  N   UNL     1       1.106   9.667  19.577  0.00  0.00    +0.000 NA
ATOM      7  C   UNL     1       0.422  10.275  20.503  0.00  0.00    +0.000 A 
ATOM      8  S   UNL     1      -0.334  11.800  20.668  0.00  0.00    +0.000 S 
ENDROOT
BRANCH   5   9
ATOM      9  C   UNL     1       2.175   7.382  19.484  0.00  0.00    +0.000 A 
ATOM     10  C   UNL     1       2.248   6.068  19.903  0.00  0.00    +0.000 A 
ATOM     11  C   UNL     1       3.085   5.381  18.984  0.00  0.00    +0.000 A 
ATOM     12  C   UNL     1       3.567   4.075  18.800  0.00  0.00    +0.000 A 
ATOM     13 CL   UNL     1       3.035   2.897  19.915  0.00  0.00    +0.000 Cl
ATOM     14  C   UNL     1       4.433   3.769  17.752  0.00  0.00    +0.000 A 
ATOM     15  C   UNL     1       4.825   4.778  16.874  0.00  0.00    +0.000 A 
ATOM     16 CL   UNL     1       5.918   4.400  15.595  0.00  0.00    +0.000 Cl
ATOM     17  C   UNL     1       4.358   6.092  17.000  0.00  0.00    +0.000 A 
ATOM     18  C   UNL     1       3.491   6.342  18.065  0.00  0.00    +0.000 A 
ATOM     19  O   UNL     1       2.927   7.548  18.355  0.00  0.00    +0.000 OA
ENDBRANCH   5   9
BRANCH   1  21
ATOM     20  C   UNL     1      -2.956  12.327  22.864  0.00  0.00    +0.000 C 
ATOM     21  C   UNL     1      -1.483  12.258  23.217  0.00  0.00    +0.000 C 
ATOM     22  F   UNL     1      -0.971  13.522  23.152  0.00  0.00    +0.000 F 
ENDBRANCH   1  21
TORSDOF 2
ENDMDL
MODEL 7
REMARK VINA RESULT:      -7.0      5.211      8.586
REMARK  Name = 
REMARK  3 active torsions:
REMARK  status: ('A' for Active; 'I' for Inactive)
REMARK    1  A    between atoms: C_1  and  C_2
REMARK    2  A    between atoms: C_2  and  C_4
REMARK    3  A    between atoms: C_8  and  C_9
REMARK                            x       y       z     vdW  Elec       q    Type
REMARK                         _______ _______ _______ _____ _____    ______ ____
ROOT
ATOM      1  C   UNL     1       5.328   4.992  16.475  0.00  0.00    +0.000 A 
ATOM      2  N   UNL     1       5.209   6.294  16.376  0.00  0.00    +0.000 NA
ATOM      3  N   UNL     1       4.171   6.623  17.181  0.00  0.00    +0.000 N 
ATOM      4  C   UNL     1       3.605   7.817  17.502  0.00  0.00    +0.000 A 
ATOM      5  C   UNL     1       2.606   7.482  18.404  0.00  0.00    +0.000 A 
ATOM      6  N   UNL     1       2.552   6.116  18.632  0.00  0.00    +0.000 NA
ATOM      7  C   UNL     1       3.502   5.662  17.866  0.00  0.00    +0.000 A 
ATOM      8  S   UNL     1       4.158   4.125  17.506  0.00  0.00    +0.000 S 
ENDROOT
BRANCH   5   9
ATOM      9  C   UNL     1       1.693   8.451  19.062  0.00  0.00    +0.000 A 
ATOM     10  C   UNL     1       1.038   9.481  18.418  0.00  0.00    +0.000 A 
ATOM     11  C   UNL     1       0.271  10.168  19.397  0.00  0.00    +0.000 A 
ATOM     12  C   UNL     1      -0.609  11.261  19.441  0.00  0.00    +0.000 A 
ATOM     13 CL   UNL     1      -0.948  12.034  17.958  0.00  0.00    +0.000 Cl
ATOM     14  C   UNL     1      -1.173  11.681  20.645  0.00  0.00    +0.000 A 
ATOM     15  C   UNL     1      -0.857  11.002  21.820  0.00  0.00    +0.000 A 
ATOM     16 CL   UNL     1      -1.536  11.542  23.310  0.00  0.00    +0.000 Cl
ATOM     17  C   UNL     1      -0.002   9.894  21.828  0.00  0.00    +0.000 A 
ATOM     18  C   UNL     1       0.532   9.514  20.596  0.00  0.00    +0.000 A 
ATOM     19  O   UNL     1       1.378   8.465  20.392  0.00  0.00    +0.000 OA
ENDBRANCH   5   9
BRANCH   1  21
ATOM     20  C   UNL     1       6.978   4.960  14.595  0.00  0.00    +0.000 C 
ATOM     21  C   UNL     1       6.390   4.191  15.762  0.00  0.00    +0.000 C 
ATOM     22  F   UNL     1       5.918   3.000  15.291  0.00  0.00    +0.000 F 
ENDBRANCH   1  21
TORSDOF 2
ENDMDL
MODEL 8
REMARK VINA RESULT:      -6.9      2.079      2.900
REMARK  Name = 
REMARK  3 active torsions:
REMARK  status: ('A' for Active; 'I' for Inactive)
REMARK    1  A    between atoms: C_1  and  C_2
REMARK    2  A    between atoms: C_2  and  C_4
REMARK    3  A    between atoms: C_8  and  C_9
REMARK                            x       y       z     vdW  Elec       q    Type
REMARK                         _______ _______ _______ _____ _____    ______ ____
ROOT
ATOM      1  C   UNL     1       0.110  12.514  19.736  0.00  0.00    +0.000 A 
ATOM      2  N   UNL     1       0.764  12.126  18.669  0.00  0.00    +0.000 NA
ATOM      3  N   UNL     1       1.118  10.841  18.910  0.00  0.00    +0.000 N 
ATOM      4  C   UNL     1       1.782   9.918  18.163  0.00  0.00    +0.000 A 
ATOM      5  C   UNL     1       1.789   8.784  18.960  0.00  0.00    +0.000 A 
ATOM      6  N   UNL     1       1.149   8.999  20.171  0.00  0.00    +0.000 NA
ATOM      7  C   UNL     1       0.783  10.246  20.082  0.00  0.00    +0.000 A 
ATOM      8  S   UNL     1      -0.054  11.352  21.081  0.00  0.00    +0.000 S 
ENDROOT
BRANCH   5   9
ATOM      9  C   UNL     1       2.396   7.483  18.584  0.00  0.00    +0.000 A 
ATOM     10  C   UNL     1       3.378   7.318  17.627  0.00  0.00    +0.000 A 
ATOM     11  C   UNL     1       3.682   5.931  17.573  0.00  0.00    +0.000 A 
ATOM     12  C   UNL     1       4.553   5.090  16.863  0.00  0.00    +0.000 A 
ATOM     13 CL   UNL     1       5.610   5.842  15.753  0.00  0.00    +0.000 Cl
ATOM     14  C   UNL     1       4.547   3.712  17.066  0.00  0.00    +0.000 A 
ATOM     15  C   UNL     1       3.661   3.162  17.992  0.00  0.00    +0.000 A 
ATOM     16 CL   UNL     1       3.639   1.454  18.220  0.00  0.00    +0.000 Cl
ATOM     17  C   UNL     1       2.786   3.957  18.740  0.00  0.00    +0.000 A 
ATOM     18  C   UNL     1       2.835   5.331  18.498  0.00  0.00    +0.000 A 
ATOM     19  O   UNL     1       2.070   6.269  19.123  0.00  0.00    +0.000 OA
ENDBRANCH   5   9
BRANCH   1  21
ATOM     20  C   UNL     1      -1.895  13.809  20.484  0.00  0.00    +0.000 C 
ATOM     21  C   UNL     1      -0.501  13.885  19.892  0.00  0.00    +0.000 C 
ATOM     22  F   UNL     1      -0.579  14.560  18.708  0.00  0.00    +0.000 F 
ENDBRANCH   1  21
TORSDOF 2
ENDMDL
MODEL 9
REMARK VINA RESULT:      -6.9      1.547      2.504
REMARK  Name = 
REMARK  3 active torsions:
REMARK  status: ('A' for Active; 'I' for Inactive)
REMARK    1  A    between atoms: C_1  and  C_2
REMARK    2  A    between atoms: C_2  and  C_4
REMARK    3  A    between atoms: C_8  and  C_9
REMARK                            x       y       z     vdW  Elec       q    Type
REMARK                         _______ _______ _______ _____ _____    ______ ____
ROOT
ATOM      1  C   UNL     1      -0.527  11.513  22.026  0.00  0.00    +0.000 A 
ATOM      2  N   UNL     1       0.075  11.431  20.864  0.00  0.00    +0.000 NA
ATOM      3  N   UNL     1       0.543  10.162  20.789  0.00  0.00    +0.000 N 
ATOM      4  C   UNL     1       1.218   9.492  19.817  0.00  0.00    +0.000 A 
ATOM      5  C   UNL     1       1.369   8.214  20.335  0.00  0.00    +0.000 A 
ATOM      6  N   UNL     1       0.805   8.098  21.596  0.00  0.00    +0.000 NA
ATOM      7  C   UNL     1       0.340   9.294  21.811  0.00  0.00    +0.000 A 
ATOM      8  S   UNL     1      -0.504  10.072  23.079  0.00  0.00    +0.000 S 
ENDROOT
BRANCH   5   9
ATOM      9  C   UNL     1       2.045   7.089  19.641  0.00  0.00    +0.000 A 
ATOM     10  C   UNL     1       2.879   7.222  18.548  0.00  0.00    +0.000 A 
ATOM     11  C   UNL     1       3.314   5.918  18.192  0.00  0.00    +0.000 A 
ATOM     12  C   UNL     1       4.149   5.334  17.226  0.00  0.00    +0.000 A 
ATOM     13 CL   UNL     1       4.938   6.399  16.150  0.00  0.00    +0.000 Cl
ATOM     14  C   UNL     1       4.320   3.953  17.163  0.00  0.00    +0.000 A 
ATOM     15  C   UNL     1       3.649   3.140  18.076  0.00  0.00    +0.000 A 
ATOM     16 CL   UNL     1       3.843   1.430  17.977  0.00  0.00    +0.000 Cl
ATOM     17  C   UNL     1       2.822   3.672  19.071  0.00  0.00    +0.000 A 
ATOM     18  C   UNL     1       2.688   5.061  19.091  0.00  0.00    +0.000 A 
ATOM     19  O   UNL     1       1.935   5.769  19.978  0.00  0.00    +0.000 OA
ENDBRANCH   5   9
BRANCH   1  21
ATOM     20  C   UNL     1      -2.733  12.581  22.520  0.00  0.00    +0.000 C 
ATOM     21  C   UNL     1      -1.227  12.754  22.521  0.00  0.00    +0.000 C 
ATOM     22  F   UNL     1      -0.926  13.857  21.776  0.00  0.00    +0.000 F 
ENDBRANCH   1  21
TORSDOF 2
ENDMDL
