MODEL 1
REMARK VINA RESULT:      -6.9      0.000      0.000
REMARK  Name = 
REMARK  15 active torsions:
REMARK  status: ('A' for Active; 'I' for Inactive)
REMARK    1  A    between atoms: C_1  and  O_2
REMARK    2  A    between atoms: O_2  and  C_3
REMARK    3  A    between atoms: C_5  and  N_6
REMARK    4  A    between atoms: N_6  and  C_7
REMARK    5  A    between atoms: C_7  and  N_9
REMARK    6  A    between atoms: N_9  and  C_10
REMARK    7  A    between atoms: C_10  and  C_11
REMARK    8  A    between atoms: C_11  and  C_12
REMARK    9  A    between atoms: C_12  and  N_13
REMARK   10  A    between atoms: C_17  and  C_18
REMARK   11  A    between atoms: C_21  and  O_22
REMARK   12  A    between atoms: O_22  and  C_23
REMARK   13  A    between atoms: C_23  and  C_24
REMARK   14  A    between atoms: C_24  and  C_25
REMARK   15  A    between atoms: C_25  and  N_26
REMARK                            x       y       z     vdW  Elec       q    Type
REMARK                         _______ _______ _______ _____ _____    ______ ____
ROOT
ATOM      1  C   UNL     1       6.375   5.962  16.724  0.00  0.00    +0.000 A 
ATOM      2  C   UNL     1       5.748   4.868  17.336  0.00  0.00    +0.000 A 
ATOM      3  C   UNL     1       6.055   4.495  18.647  0.00  0.00    +0.000 A 
ATOM      4  C   UNL     1       6.981   5.244  19.370  0.00  0.00    +0.000 A 
ATOM      5  C   UNL     1       7.592   6.357  18.786  0.00  0.00    +0.000 A 
ATOM      6  C   UNL     1       7.270   6.745  17.480  0.00  0.00    +0.000 A 
ENDROOT
BRANCH   1   8
ATOM      7  C   UNL     1       5.804   5.341  14.457  0.00  0.00    +0.000 C 
ATOM      8  O   UNL     1       6.127   6.329  15.431  0.00  0.00    +0.000 OA
ENDBRANCH   1   8
BRANCH   3   9
ATOM      9  N   UNL     1       5.373   3.456  19.310  0.00  0.00    +0.000 N 
ATOM     10  H   UNL     1       5.946   2.706  19.675  0.00  0.00    +0.000 HD
BRANCH   9  11
ATOM     11  C   UNL     1       4.024   3.240  19.427  0.00  0.00    +0.000 C 
ATOM     12  S   UNL     1       3.218   1.785  19.288  0.00  0.00    +0.000 S 
BRANCH  11  13
ATOM     13  N   UNL     1       3.296   4.354  19.766  0.00  0.00    +0.000 N 
ATOM     14  H   UNL     1       3.899   5.152  19.947  0.00  0.00    +0.000 HD
BRANCH  13  15
ATOM     15  C   UNL     1       2.087   4.290  20.578  0.00  0.00    +0.000 C 
BRANCH  15  16
ATOM     16  C   UNL     1       1.464   5.659  20.800  0.00  0.00    +0.000 C 
BRANCH  16  17
ATOM     17  C   UNL     1       2.185   6.729  19.985  0.00  0.00    +0.000 C 
BRANCH  17  18
ATOM     18  N   UNL     1       1.653   8.056  20.219  0.00  0.00    +0.000 N 
ATOM     19  C   UNL     1       1.244   8.528  21.439  0.00  0.00    +0.000 A 
ATOM     20  N   UNL     1       0.766   9.747  21.344  0.00  0.00    +0.000 NA
ATOM     21  C   UNL     1       0.867  10.079  20.017  0.00  0.00    +0.000 A 
ATOM     22  C   UNL     1       1.423   9.041  19.292  0.00  0.00    +0.000 A 
ATOM     23  C   UNL     1       1.728   8.929  17.845  0.00  0.00    +0.000 C 
ENDBRANCH  17  18
ENDBRANCH  16  17
ENDBRANCH  15  16
ENDBRANCH  13  15
ENDBRANCH  11  13
ENDBRANCH   9  11
ENDBRANCH   3   9
BRANCH   6  24
ATOM     24  O   UNL     1       7.919   7.889  17.063  0.00  0.00    +0.000 OA
BRANCH  24  25
ATOM     25  C   UNL     1       8.306   8.760  18.127  0.00  0.00    +0.000 C 
BRANCH  25  26
ATOM     26  C   UNL     1       8.491  10.198  17.628  0.00  0.00    +0.000 C 
BRANCH  26  27
ATOM     27  C   UNL     1       9.540  10.867  18.511  0.00  0.00    +0.000 C 
BRANCH  27  28
ATOM     28  N   UNL     1      10.403  11.774  17.778  0.00  0.00    +0.000 N 
ATOM     29  C   UNL     1       9.958  12.964  17.312  0.00  0.00    +0.000 C 
ATOM     30  N   UNL     1       8.833  13.538  17.532  0.00  0.00    +0.000 NA
ATOM     31  N   UNL     1      10.866  13.583  16.539  0.00  0.00    +0.000 N 
ATOM     32  H   UNL     1      11.017  11.315  17.111  0.00  0.00    +0.000 HD
ATOM     33  H   UNL     1       8.252  12.953  18.130  0.00  0.00    +0.000 HD
ATOM     34  H   UNL     1      11.786  13.600  16.961  0.00  0.00    +0.000 HD
ATOM     35  H   UNL     1      10.546  14.531  16.358  0.00  0.00    +0.000 HD
ENDBRANCH  27  28
ENDBRANCH  26  27
ENDBRANCH  25  26
ENDBRANCH  24  25
ENDBRANCH   6  24
TORSDOF 13
ENDMDL
MODEL 2
REMARK VINA RESULT:      -6.8      1.039      1.556
REMARK  Name = 
REMARK  15 active torsions:
REMARK  status: ('A' for Active; 'I' for Inactive)
REMARK    1  A    between atoms: C_1  and  O_2
REMARK    2  A    between atoms: O_2  and  C_3
REMARK    3  A    between atoms: C_5  and  N_6
REMARK    4  A    between atoms: N_6  and  C_7
REMARK    5  A    between atoms: C_7  and  N_9
REMARK    6  A    between atoms: N_9  and  C_10
REMARK    7  A    between atoms: C_10  and  C_11
REMARK    8  A    between atoms: C_11  and  C_12
REMARK    9  A    between atoms: C_12  and  N_13
REMARK   10  A    between atoms: C_17  and  C_18
REMARK   11  A    between atoms: C_21  and  O_22
REMARK   12  A    between atoms: O_22  and  C_23
REMARK   13  A    between atoms: C_23  and  C_24
REMARK   14  A    between atoms: C_24  and  C_25
REMARK   15  A    between atoms: C_25  and  N_26
REMARK                            x       y       z     vdW  Elec       q    Type
REMARK                         _______ _______ _______ _____ _____    ______ ____
ROOT
ATOM      1  C   UNL     1       6.641   5.692  16.571  0.00  0.00    +0.000 A 
ATOM      2  C   UNL     1       5.988   4.604  17.166  0.00  0.00    +0.000 A 
ATOM      3  C   UNL     1       6.039   4.392  18.546  0.00  0.00    +0.000 A 
ATOM      4  C   UNL     1       6.727   5.299  19.350  0.00  0.00    +0.000 A 
ATOM      5  C   UNL     1       7.357   6.406  18.777  0.00  0.00    +0.000 A 
ATOM      6  C   UNL     1       7.290   6.631  17.398  0.00  0.00    +0.000 A 
ENDROOT
BRANCH   1   8
ATOM      7  C   UNL     1       6.633   4.800  14.323  0.00  0.00    +0.000 C 
ATOM      8  O   UNL     1       6.645   5.905  15.221  0.00  0.00    +0.000 OA
ENDBRANCH   1   8
BRANCH   3   9
ATOM      9  N   UNL     1       5.316   3.358  19.173  0.00  0.00    +0.000 N 
ATOM     10  H   UNL     1       5.823   2.809  19.856  0.00  0.00    +0.000 HD
BRANCH   9  11
ATOM     11  C   UNL     1       4.054   2.894  18.904  0.00  0.00    +0.000 C 
ATOM     12  S   UNL     1       3.605   1.323  18.568  0.00  0.00    +0.000 S 
BRANCH  11  13
ATOM     13  N   UNL     1       3.066   3.843  19.001  0.00  0.00    +0.000 N 
ATOM     14  H   UNL     1       3.455   4.778  19.084  0.00  0.00    +0.000 HD
BRANCH  13  15
ATOM     15  C   UNL     1       1.824   3.618  19.730  0.00  0.00    +0.000 C 
BRANCH  15  16
ATOM     16  C   UNL     1       1.293   4.888  20.377  0.00  0.00    +0.000 C 
BRANCH  16  17
ATOM     17  C   UNL     1       2.388   5.944  20.495  0.00  0.00    +0.000 C 
BRANCH  17  18
ATOM     18  N   UNL     1       2.119   7.114  19.685  0.00  0.00    +0.000 N 
ATOM     19  C   UNL     1       2.382   7.211  18.344  0.00  0.00    +0.000 A 
ATOM     20  N   UNL     1       2.077   8.402  17.881  0.00  0.00    +0.000 NA
ATOM     21  C   UNL     1       1.599   9.103  18.959  0.00  0.00    +0.000 A 
ATOM     22  C   UNL     1       1.610   8.320  20.099  0.00  0.00    +0.000 A 
ATOM     23  C   UNL     1       1.195   8.630  21.488  0.00  0.00    +0.000 C 
ENDBRANCH  17  18
ENDBRANCH  16  17
ENDBRANCH  15  16
ENDBRANCH  13  15
ENDBRANCH  11  13
ENDBRANCH   9  11
ENDBRANCH   3   9
BRANCH   6  24
ATOM     24  O   UNL     1       7.919   7.791  16.991  0.00  0.00    +0.000 OA
BRANCH  24  25
ATOM     25  C   UNL     1       8.352   8.626  18.065  0.00  0.00    +0.000 C 
BRANCH  25  26
ATOM     26  C   UNL     1       8.209  10.110  17.707  0.00  0.00    +0.000 C 
BRANCH  26  27
ATOM     27  C   UNL     1       9.386  10.856  18.329  0.00  0.00    +0.000 C 
BRANCH  27  28
ATOM     28  N   UNL     1       9.018  12.154  18.862  0.00  0.00    +0.000 N 
ATOM     29  C   UNL     1       9.400  13.306  18.263  0.00  0.00    +0.000 C 
ATOM     30  N   UNL     1       9.984  13.464  17.133  0.00  0.00    +0.000 NA
ATOM     31  N   UNL     1       9.082  14.390  18.990  0.00  0.00    +0.000 N 
ATOM     32  H   UNL     1       9.075  12.219  19.874  0.00  0.00    +0.000 HD
ATOM     33  H   UNL     1      10.161  12.558  16.700  0.00  0.00    +0.000 HD
ATOM     34  H   UNL     1       8.125  14.370  19.318  0.00  0.00    +0.000 HD
ATOM     35  H   UNL     1       9.241  15.220  18.423  0.00  0.00    +0.000 HD
ENDBRANCH  27  28
ENDBRANCH  26  27
ENDBRANCH  25  26
ENDBRANCH  24  25
ENDBRANCH   6  24
TORSDOF 13
ENDMDL
MODEL 3
REMARK VINA RESULT:      -6.8      4.569      7.823
REMARK  Name = 
REMARK  15 active torsions:
REMARK  status: ('A' for Active; 'I' for Inactive)
REMARK    1  A    between atoms: C_1  and  O_2
REMARK    2  A    between atoms: O_2  and  C_3
REMARK    3  A    between atoms: C_5  and  N_6
REMARK    4  A    between atoms: N_6  and  C_7
REMARK    5  A    between atoms: C_7  and  N_9
REMARK    6  A    between atoms: N_9  and  C_10
REMARK    7  A    between atoms: C_10  and  C_11
REMARK    8  A    between atoms: C_11  and  C_12
REMARK    9  A    between atoms: C_12  and  N_13
REMARK   10  A    between atoms: C_17  and  C_18
REMARK   11  A    between atoms: C_21  and  O_22
REMARK   12  A    between atoms: O_22  and  C_23
REMARK   13  A    between atoms: C_23  and  C_24
REMARK   14  A    between atoms: C_24  and  C_25
REMARK   15  A    between atoms: C_25  and  N_26
REMARK                            x       y       z     vdW  Elec       q    Type
REMARK                         _______ _______ _______ _____ _____    ______ ____
ROOT
ATOM      1  C   UNL     1       0.938   9.617  20.989  0.00  0.00    +0.000 A 
ATOM      2  C   UNL     1       1.570   8.372  21.107  0.00  0.00    +0.000 A 
ATOM      3  C   UNL     1       2.001   7.665  19.982  0.00  0.00    +0.000 A 
ATOM      4  C   UNL     1       1.825   8.224  18.717  0.00  0.00    +0.000 A 
ATOM      5  C   UNL     1       1.226   9.478  18.583  0.00  0.00    +0.000 A 
ATOM      6  C   UNL     1       0.812  10.197  19.711  0.00  0.00    +0.000 A 
ENDROOT
BRANCH   1   8
ATOM      7  C   UNL     1      -0.395   9.683  23.005  0.00  0.00    +0.000 C 
ATOM      8  O   UNL     1       0.469  10.315  22.066  0.00  0.00    +0.000 OA
ENDBRANCH   1   8
BRANCH   3   9
ATOM      9  N   UNL     1       2.718   6.457  20.084  0.00  0.00    +0.000 N 
ATOM     10  H   UNL     1       3.723   6.539  20.176  0.00  0.00    +0.000 HD
BRANCH   9  11
ATOM     11  C   UNL     1       2.271   5.168  19.949  0.00  0.00    +0.000 C 
ATOM     12  S   UNL     1       2.012   4.054  21.164  0.00  0.00    +0.000 S 
BRANCH  11  13
ATOM     13  N   UNL     1       1.941   4.812  18.664  0.00  0.00    +0.000 N 
ATOM     14  H   UNL     1       1.129   5.325  18.332  0.00  0.00    +0.000 HD
BRANCH  13  15
ATOM     15  C   UNL     1       2.061   3.447  18.167  0.00  0.00    +0.000 C 
BRANCH  15  16
ATOM     16  C   UNL     1       3.355   3.219  17.402  0.00  0.00    +0.000 C 
BRANCH  16  17
ATOM     17  C   UNL     1       4.032   4.543  17.061  0.00  0.00    +0.000 C 
BRANCH  17  18
ATOM     18  N   UNL     1       5.408   4.594  17.511  0.00  0.00    +0.000 N 
ATOM     19  C   UNL     1       5.797   4.780  18.811  0.00  0.00    +0.000 A 
ATOM     20  N   UNL     1       7.105   4.828  18.918  0.00  0.00    +0.000 NA
ATOM     21  C   UNL     1       7.583   4.665  17.642  0.00  0.00    +0.000 A 
ATOM     22  C   UNL     1       6.544   4.513  16.743  0.00  0.00    +0.000 A 
ATOM     23  C   UNL     1       6.558   4.311  15.274  0.00  0.00    +0.000 C 
ENDBRANCH  17  18
ENDBRANCH  16  17
ENDBRANCH  15  16
ENDBRANCH  13  15
ENDBRANCH  11  13
ENDBRANCH   9  11
ENDBRANCH   3   9
BRANCH   6  24
ATOM     24  O   UNL     1       0.284  11.437  19.417  0.00  0.00    +0.000 OA
BRANCH  24  25
ATOM     25  C   UNL     1      -0.898  11.394  18.616  0.00  0.00    +0.000 C 
BRANCH  25  26
ATOM     26  C   UNL     1      -2.072  12.085  19.318  0.00  0.00    +0.000 C 
BRANCH  26  27
ATOM     27  C   UNL     1      -1.505  13.218  20.170  0.00  0.00    +0.000 C 
BRANCH  27  28
ATOM     28  N   UNL     1      -1.250  14.426  19.409  0.00  0.00    +0.000 N 
ATOM     29  C   UNL     1      -0.003  14.934  19.272  0.00  0.00    +0.000 C 
ATOM     30  N   UNL     1       1.114  14.418  19.630  0.00  0.00    +0.000 NA
ATOM     31  N   UNL     1      -0.002  16.129  18.658  0.00  0.00    +0.000 N 
ATOM     32  H   UNL     1      -1.941  15.158  19.548  0.00  0.00    +0.000 HD
ATOM     33  H   UNL     1       0.956  13.517  20.080  0.00  0.00    +0.000 HD
ATOM     34  H   UNL     1      -0.566  16.133  17.818  0.00  0.00    +0.000 HD
ATOM     35  H   UNL     1       0.958  16.381  18.437  0.00  0.00    +0.000 HD
ENDBRANCH  27  28
ENDBRANCH  26  27
ENDBRANCH  25  26
ENDBRANCH  24  25
ENDBRANCH   6  24
TORSDOF 13
ENDMDL
MODEL 4
REMARK VINA RESULT:      -6.7      4.242      7.313
REMARK  Name = 
REMARK  15 active torsions:
REMARK  status: ('A' for Active; 'I' for Inactive)
REMARK    1  A    between atoms: C_1  and  O_2
REMARK    2  A    between atoms: O_2  and  C_3
REMARK    3  A    between atoms: C_5  and  N_6
REMARK    4  A    between atoms: N_6  and  C_7
REMARK    5  A    between atoms: C_7  and  N_9
REMARK    6  A    between atoms: N_9  and  C_10
REMARK    7  A    between atoms: C_10  and  C_11
REMARK    8  A    between atoms: C_11  and  C_12
REMARK    9  A    between atoms: C_12  and  N_13
REMARK   10  A    between atoms: C_17  and  C_18
REMARK   11  A    between atoms: C_21  and  O_22
REMARK   12  A    between atoms: O_22  and  C_23
REMARK   13  A    between atoms: C_23  and  C_24
REMARK   14  A    between atoms: C_24  and  C_25
REMARK   15  A    between atoms: C_25  and  N_26
REMARK                            x       y       z     vdW  Elec       q    Type
REMARK                         _______ _______ _______ _____ _____    ______ ____
ROOT
ATOM      1  C   UNL     1       2.381   7.978  18.391  0.00  0.00    +0.000 A 
ATOM      2  C   UNL     1       2.724   6.795  19.060  0.00  0.00    +0.000 A 
ATOM      3  C   UNL     1       2.204   6.497  20.322  0.00  0.00    +0.000 A 
ATOM      4  C   UNL     1       1.302   7.379  20.914  0.00  0.00    +0.000 A 
ATOM      5  C   UNL     1       0.924   8.547  20.247  0.00  0.00    +0.000 A 
ATOM      6  C   UNL     1       1.428   8.837  18.974  0.00  0.00    +0.000 A 
ENDROOT
BRANCH   1   8
ATOM      7  C   UNL     1       4.016   7.604  16.649  0.00  0.00    +0.000 C 
ATOM      8  O   UNL     1       2.902   8.319  17.175  0.00  0.00    +0.000 OA
ENDBRANCH   1   8
BRANCH   3   9
ATOM      9  N   UNL     1       2.466   5.274  20.971  0.00  0.00    +0.000 N 
ATOM     10  H   UNL     1       3.165   5.296  21.702  0.00  0.00    +0.000 HD
BRANCH   9  11
ATOM     11  C   UNL     1       2.004   4.017  20.674  0.00  0.00    +0.000 C 
ATOM     12  S   UNL     1       1.406   2.882  21.740  0.00  0.00    +0.000 S 
BRANCH  11  13
ATOM     13  N   UNL     1       1.978   3.723  19.333  0.00  0.00    +0.000 N 
ATOM     14  H   UNL     1       1.185   4.158  18.871  0.00  0.00    +0.000 HD
BRANCH  13  15
ATOM     15  C   UNL     1       2.372   2.423  18.802  0.00  0.00    +0.000 C 
BRANCH  15  16
ATOM     16  C   UNL     1       3.275   2.543  17.584  0.00  0.00    +0.000 C 
BRANCH  16  17
ATOM     17  C   UNL     1       3.677   3.994  17.339  0.00  0.00    +0.000 C 
BRANCH  17  18
ATOM     18  N   UNL     1       5.093   4.219  17.550  0.00  0.00    +0.000 N 
ATOM     19  C   UNL     1       5.665   4.502  18.762  0.00  0.00    +0.000 A 
ATOM     20  N   UNL     1       6.958   4.702  18.646  0.00  0.00    +0.000 NA
ATOM     21  C   UNL     1       7.235   4.544  17.312  0.00  0.00    +0.000 A 
ATOM     22  C   UNL     1       6.088   4.237  16.604  0.00  0.00    +0.000 A 
ATOM     23  C   UNL     1       5.884   3.979  15.159  0.00  0.00    +0.000 C 
ENDBRANCH  17  18
ENDBRANCH  16  17
ENDBRANCH  15  16
ENDBRANCH  13  15
ENDBRANCH  11  13
ENDBRANCH   9  11
ENDBRANCH   3   9
BRANCH   6  24
ATOM     24  O   UNL     1       0.923   9.999  18.427  0.00  0.00    +0.000 OA
BRANCH  24  25
ATOM     25  C   UNL     1       1.103  11.155  19.246  0.00  0.00    +0.000 C 
BRANCH  25  26
ATOM     26  C   UNL     1       0.296  12.345  18.714  0.00  0.00    +0.000 C 
BRANCH  26  27
ATOM     27  C   UNL     1      -1.184  12.037  18.924  0.00  0.00    +0.000 C 
BRANCH  27  28
ATOM     28  N   UNL     1      -1.968  12.173  17.711  0.00  0.00    +0.000 N 
ATOM     29  C   UNL     1      -2.111  11.153  16.833  0.00  0.00    +0.000 C 
ATOM     30  N   UNL     1      -1.738   9.933  16.959  0.00  0.00    +0.000 NA
ATOM     31  N   UNL     1      -2.749  11.528  15.712  0.00  0.00    +0.000 N 
ATOM     32  H   UNL     1      -1.847  13.064  17.237  0.00  0.00    +0.000 HD
ATOM     33  H   UNL     1      -1.270   9.800  17.855  0.00  0.00    +0.000 HD
ATOM     34  H   UNL     1      -3.592  12.054  15.904  0.00  0.00    +0.000 HD
ATOM     35  H   UNL     1      -2.971  10.696  15.171  0.00  0.00    +0.000 HD
ENDBRANCH  27  28
ENDBRANCH  26  27
ENDBRANCH  25  26
ENDBRANCH  24  25
ENDBRANCH   6  24
TORSDOF 13
ENDMDL
MODEL 5
REMARK VINA RESULT:      -6.7      4.856      8.117
REMARK  Name = 
REMARK  15 active torsions:
REMARK  status: ('A' for Active; 'I' for Inactive)
REMARK    1  A    between atoms: C_1  and  O_2
REMARK    2  A    between atoms: O_2  and  C_3
REMARK    3  A    between atoms: C_5  and  N_6
REMARK    4  A    between atoms: N_6  and  C_7
REMARK    5  A    between atoms: C_7  and  N_9
REMARK    6  A    between atoms: N_9  and  C_10
REMARK    7  A    between atoms: C_10  and  C_11
REMARK    8  A    between atoms: C_11  and  C_12
REMARK    9  A    between atoms: C_12  and  N_13
REMARK   10  A    between atoms: C_17  and  C_18
REMARK   11  A    between atoms: C_21  and  O_22
REMARK   12  A    between atoms: O_22  and  C_23
REMARK   13  A    between atoms: C_23  and  C_24
REMARK   14  A    between atoms: C_24  and  C_25
REMARK   15  A    between atoms: C_25  and  N_26
REMARK                            x       y       z     vdW  Elec       q    Type
REMARK                         _______ _______ _______ _____ _____    ______ ____
ROOT
ATOM      1  C   UNL     1       1.521   8.441  20.297  0.00  0.00    +0.000 A 
ATOM      2  C   UNL     1       2.142   7.314  19.742  0.00  0.00    +0.000 A 
ATOM      3  C   UNL     1       2.523   7.283  18.398  0.00  0.00    +0.000 A 
ATOM      4  C   UNL     1       2.309   8.407  17.602  0.00  0.00    +0.000 A 
ATOM      5  C   UNL     1       1.720   9.550  18.148  0.00  0.00    +0.000 A 
ATOM      6  C   UNL     1       1.356   9.590  19.499  0.00  0.00    +0.000 A 
ENDROOT
BRANCH   1   8
ATOM      7  C   UNL     1      -0.291   8.430  21.899  0.00  0.00    +0.000 C 
ATOM      8  O   UNL     1       1.099   8.489  21.596  0.00  0.00    +0.000 OA
ENDBRANCH   1   8
BRANCH   3   9
ATOM      9  N   UNL     1       3.228   6.197  17.844  0.00  0.00    +0.000 N 
ATOM     10  H   UNL     1       2.771   5.295  17.891  0.00  0.00    +0.000 HD
BRANCH   9  11
ATOM     11  C   UNL     1       4.510   6.151  17.358  0.00  0.00    +0.000 C 
ATOM     12  S   UNL     1       5.053   6.714  15.884  0.00  0.00    +0.000 S 
BRANCH  11  13
ATOM     13  N   UNL     1       5.434   5.644  18.238  0.00  0.00    +0.000 N 
ATOM     14  H   UNL     1       6.249   6.247  18.310  0.00  0.00    +0.000 HD
BRANCH  13  15
ATOM     15  C   UNL     1       5.702   4.217  18.367  0.00  0.00    +0.000 C 
BRANCH  15  16
ATOM     16  C   UNL     1       5.169   3.642  19.671  0.00  0.00    +0.000 C 
BRANCH  16  17
ATOM     17  C   UNL     1       4.156   2.532  19.408  0.00  0.00    +0.000 C 
BRANCH  17  18
ATOM     18  N   UNL     1       2.934   2.707  20.164  0.00  0.00    +0.000 N 
ATOM     19  C   UNL     1       2.815   2.499  21.513  0.00  0.00    +0.000 A 
ATOM     20  N   UNL     1       1.581   2.691  21.920  0.00  0.00    +0.000 NA
ATOM     21  C   UNL     1       0.873   3.035  20.797  0.00  0.00    +0.000 A 
ATOM     22  C   UNL     1       1.696   3.058  19.685  0.00  0.00    +0.000 A 
ATOM     23  C   UNL     1       1.395   3.369  18.267  0.00  0.00    +0.000 C 
ENDBRANCH  17  18
ENDBRANCH  16  17
ENDBRANCH  15  16
ENDBRANCH  13  15
ENDBRANCH  11  13
ENDBRANCH   9  11
ENDBRANCH   3   9
BRANCH   6  24
ATOM     24  O   UNL     1       0.833  10.803  19.899  0.00  0.00    +0.000 OA
BRANCH  24  25
ATOM     25  C   UNL     1      -0.156  11.332  19.014  0.00  0.00    +0.000 C 
BRANCH  25  26
ATOM     26  C   UNL     1      -1.544  11.326  19.664  0.00  0.00    +0.000 C 
BRANCH  26  27
ATOM     27  C   UNL     1      -2.399  12.367  18.946  0.00  0.00    +0.000 C 
BRANCH  27  28
ATOM     28  N   UNL     1      -3.529  11.786  18.245  0.00  0.00    +0.000 N 
ATOM     29  C   UNL     1      -3.468  11.475  16.928  0.00  0.00    +0.000 C 
ATOM     30  N   UNL     1      -2.452  11.493  16.149  0.00  0.00    +0.000 NA
ATOM     31  N   UNL     1      -4.659  11.087  16.440  0.00  0.00    +0.000 N 
ATOM     32  H   UNL     1      -4.426  12.191  18.495  0.00  0.00    +0.000 HD
ATOM     33  H   UNL     1      -1.626  11.806  16.657  0.00  0.00    +0.000 HD
ATOM     34  H   UNL     1      -5.113  10.400  17.027  0.00  0.00    +0.000 HD
ATOM     35  H   UNL     1      -4.519  10.712  15.505  0.00  0.00    +0.000 HD
ENDBRANCH  27  28
ENDBRANCH  26  27
ENDBRANCH  25  26
ENDBRANCH  24  25
ENDBRANCH   6  24
TORSDOF 13
ENDMDL
MODEL 6
REMARK VINA RESULT:      -6.6      4.773      8.279
REMARK  Name = 
REMARK  15 active torsions:
REMARK  status: ('A' for Active; 'I' for Inactive)
REMARK    1  A    between atoms: C_1  and  O_2
REMARK    2  A    between atoms: O_2  and  C_3
REMARK    3  A    between atoms: C_5  and  N_6
REMARK    4  A    between atoms: N_6  and  C_7
REMARK    5  A    between atoms: C_7  and  N_9
REMARK    6  A    between atoms: N_9  and  C_10
REMARK    7  A    between atoms: C_10  and  C_11
REMARK    8  A    between atoms: C_11  and  C_12
REMARK    9  A    between atoms: C_12  and  N_13
REMARK   10  A    between atoms: C_17  and  C_18
REMARK   11  A    between atoms: C_21  and  O_22
REMARK   12  A    between atoms: O_22  and  C_23
REMARK   13  A    between atoms: C_23  and  C_24
REMARK   14  A    between atoms: C_24  and  C_25
REMARK   15  A    between atoms: C_25  and  N_26
REMARK                            x       y       z     vdW  Elec       q    Type
REMARK                         _______ _______ _______ _____ _____    ______ ____
ROOT
ATOM      1  C   UNL     1       2.829   6.931  18.223  0.00  0.00    +0.000 A 
ATOM      2  C   UNL     1       2.546   8.205  17.711  0.00  0.00    +0.000 A 
ATOM      3  C   UNL     1       1.843   9.150  18.462  0.00  0.00    +0.000 A 
ATOM      4  C   UNL     1       1.442   8.831  19.757  0.00  0.00    +0.000 A 
ATOM      5  C   UNL     1       1.744   7.577  20.295  0.00  0.00    +0.000 A 
ATOM      6  C   UNL     1       2.467   6.637  19.552  0.00  0.00    +0.000 A 
ENDROOT
BRANCH   1   8
ATOM      7  C   UNL     1       4.745   6.252  16.913  0.00  0.00    +0.000 C 
ATOM      8  O   UNL     1       3.479   5.970  17.500  0.00  0.00    +0.000 OA
ENDBRANCH   1   8
BRANCH   3   9
ATOM      9  N   UNL     1       1.627  10.463  18.000  0.00  0.00    +0.000 N 
ATOM     10  H   UNL     1       2.306  10.824  17.343  0.00  0.00    +0.000 HD
BRANCH   9  11
ATOM     11  C   UNL     1       0.696  11.385  18.408  0.00  0.00    +0.000 C 
ATOM     12  S   UNL     1       0.980  12.941  18.938  0.00  0.00    +0.000 S 
BRANCH  11  13
ATOM     13  N   UNL     1      -0.607  10.970  18.285  0.00  0.00    +0.000 N 
ATOM     14  H   UNL     1      -0.668  10.067  17.822  0.00  0.00    +0.000 HD
BRANCH  13  15
ATOM     15  C   UNL     1      -1.705  11.888  18.008  0.00  0.00    +0.000 C 
BRANCH  15  16
ATOM     16  C   UNL     1      -2.741  11.907  19.121  0.00  0.00    +0.000 C 
BRANCH  16  17
ATOM     17  C   UNL     1      -2.397  12.957  20.174  0.00  0.00    +0.000 C 
BRANCH  17  18
ATOM     18  N   UNL     1      -2.993  12.666  21.462  0.00  0.00    +0.000 N 
ATOM     19  C   UNL     1      -4.329  12.774  21.745  0.00  0.00    +0.000 A 
ATOM     20  N   UNL     1      -4.576  12.490  23.003  0.00  0.00    +0.000 NA
ATOM     21  C   UNL     1      -3.358  12.187  23.557  0.00  0.00    +0.000 A 
ATOM     22  C   UNL     1      -2.351  12.284  22.614  0.00  0.00    +0.000 A 
ATOM     23  C   UNL     1      -0.891  12.056  22.732  0.00  0.00    +0.000 C 
ENDBRANCH  17  18
ENDBRANCH  16  17
ENDBRANCH  15  16
ENDBRANCH  13  15
ENDBRANCH  11  13
ENDBRANCH   9  11
ENDBRANCH   3   9
BRANCH   6  24
ATOM     24  O   UNL     1       2.727   5.467  20.237  0.00  0.00    +0.000 OA
BRANCH  24  25
ATOM     25  C   UNL     1       1.564   4.827  20.762  0.00  0.00    +0.000 C 
BRANCH  25  26
ATOM     26  C   UNL     1       0.997   3.804  19.772  0.00  0.00    +0.000 C 
BRANCH  26  27
ATOM     27  C   UNL     1       1.543   2.431  20.155  0.00  0.00    +0.000 C 
BRANCH  27  28
ATOM     28  N   UNL     1       2.318   1.813  19.096  0.00  0.00    +0.000 N 
ATOM     29  C   UNL     1       3.618   2.126  18.887  0.00  0.00    +0.000 C 
ATOM     30  N   UNL     1       4.391   2.851  19.606  0.00  0.00    +0.000 NA
ATOM     31  N   UNL     1       4.108   1.555  17.773  0.00  0.00    +0.000 N 
ATOM     32  H   UNL     1       1.812   1.703  18.221  0.00  0.00    +0.000 HD
ATOM     33  H   UNL     1       3.882   3.213  20.412  0.00  0.00    +0.000 HD
ATOM     34  H   UNL     1       3.885   0.571  17.712  0.00  0.00    +0.000 HD
ATOM     35  H   UNL     1       5.117   1.687  17.758  0.00  0.00    +0.000 HD
ENDBRANCH  27  28
ENDBRANCH  26  27
ENDBRANCH  25  26
ENDBRANCH  24  25
ENDBRANCH   6  24
TORSDOF 13
ENDMDL
MODEL 7
REMARK VINA RESULT:      -6.6      3.835      5.879
REMARK  Name = 
REMARK  15 active torsions:
REMARK  status: ('A' for Active; 'I' for Inactive)
REMARK    1  A    between atoms: C_1  and  O_2
REMARK    2  A    between atoms: O_2  and  C_3
REMARK    3  A    between atoms: C_5  and  N_6
REMARK    4  A    between atoms: N_6  and  C_7
REMARK    5  A    between atoms: C_7  and  N_9
REMARK    6  A    between atoms: N_9  and  C_10
REMARK    7  A    between atoms: C_10  and  C_11
REMARK    8  A    between atoms: C_11  and  C_12
REMARK    9  A    between atoms: C_12  and  N_13
REMARK   10  A    between atoms: C_17  and  C_18
REMARK   11  A    between atoms: C_21  and  O_22
REMARK   12  A    between atoms: O_22  and  C_23
REMARK   13  A    between atoms: C_23  and  C_24
REMARK   14  A    between atoms: C_24  and  C_25
REMARK   15  A    between atoms: C_25  and  N_26
REMARK                            x       y       z     vdW  Elec       q    Type
REMARK                         _______ _______ _______ _____ _____    ______ ____
ROOT
ATOM      1  C   UNL     1       5.690   6.284  17.115  0.00  0.00    +0.000 A 
ATOM      2  C   UNL     1       5.141   5.946  18.359  0.00  0.00    +0.000 A 
ATOM      3  C   UNL     1       4.346   4.807  18.517  0.00  0.00    +0.000 A 
ATOM      4  C   UNL     1       4.122   3.975  17.422  0.00  0.00    +0.000 A 
ATOM      5  C   UNL     1       4.688   4.280  16.182  0.00  0.00    +0.000 A 
ATOM      6  C   UNL     1       5.501   5.409  16.027  0.00  0.00    +0.000 A 
ENDROOT
BRANCH   1   8
ATOM      7  C   UNL     1       7.650   7.600  17.640  0.00  0.00    +0.000 C 
ATOM      8  O   UNL     1       6.437   7.411  16.918  0.00  0.00    +0.000 OA
ENDBRANCH   1   8
BRANCH   3   9
ATOM      9  N   UNL     1       3.860   4.401  19.775  0.00  0.00    +0.000 N 
ATOM     10  H   UNL     1       4.545   4.032  20.422  0.00  0.00    +0.000 HD
BRANCH   9  11
ATOM     11  C   UNL     1       2.565   4.310  20.217  0.00  0.00    +0.000 C 
ATOM     12  S   UNL     1       1.539   3.001  20.079  0.00  0.00    +0.000 S 
BRANCH  11  13
ATOM     13  N   UNL     1       2.121   5.410  20.909  0.00  0.00    +0.000 N 
ATOM     14  H   UNL     1       1.430   5.156  21.610  0.00  0.00    +0.000 HD
BRANCH  13  15
ATOM     15  C   UNL     1       1.922   6.710  20.282  0.00  0.00    +0.000 C 
BRANCH  15  16
ATOM     16  C   UNL     1       1.124   7.663  21.159  0.00  0.00    +0.000 C 
BRANCH  16  17
ATOM     17  C   UNL     1       1.487   9.115  20.865  0.00  0.00    +0.000 C 
BRANCH  17  18
ATOM     18  N   UNL     1       0.558   9.743  19.949  0.00  0.00    +0.000 N 
ATOM     19  C   UNL     1      -0.647  10.286  20.311  0.00  0.00    +0.000 A 
ATOM     20  N   UNL     1      -1.298  10.745  19.267  0.00  0.00    +0.000 NA
ATOM     21  C   UNL     1      -0.488  10.493  18.189  0.00  0.00    +0.000 A 
ATOM     22  C   UNL     1       0.681   9.871  18.587  0.00  0.00    +0.000 A 
ATOM     23  C   UNL     1       1.846   9.408  17.797  0.00  0.00    +0.000 C 
ENDBRANCH  17  18
ENDBRANCH  16  17
ENDBRANCH  15  16
ENDBRANCH  13  15
ENDBRANCH  11  13
ENDBRANCH   9  11
ENDBRANCH   3   9
BRANCH   6  24
ATOM     24  O   UNL     1       6.025   5.548  14.758  0.00  0.00    +0.000 OA
BRANCH  24  25
ATOM     25  C   UNL     1       7.296   4.922  14.580  0.00  0.00    +0.000 C 
BRANCH  25  26
ATOM     26  C   UNL     1       7.694   4.882  13.100  0.00  0.00    +0.000 C 
BRANCH  26  27
ATOM     27  C   UNL     1       6.525   4.290  12.318  0.00  0.00    +0.000 C 
BRANCH  27  28
ATOM     28  N   UNL     1       6.708   2.887  12.000  0.00  0.00    +0.000 N 
ATOM     29  C   UNL     1       5.695   2.124  11.527  0.00  0.00    +0.000 C 
ATOM     30  N   UNL     1       4.522   2.489  11.162  0.00  0.00    +0.000 NA
ATOM     31  N   UNL     1       6.032   0.826  11.435  0.00  0.00    +0.000 N 
ATOM     32  H   UNL     1       7.280   2.380  12.670  0.00  0.00    +0.000 HD
ATOM     33  H   UNL     1       4.413   3.494  11.288  0.00  0.00    +0.000 HD
ATOM     34  H   UNL     1       6.926   0.690  10.980  0.00  0.00    +0.000 HD
ATOM     35  H   UNL     1       5.301   0.336  10.925  0.00  0.00    +0.000 HD
ENDBRANCH  27  28
ENDBRANCH  26  27
ENDBRANCH  25  26
ENDBRANCH  24  25
ENDBRANCH   6  24
TORSDOF 13
ENDMDL
MODEL 8
REMARK VINA RESULT:      -6.6      5.482      9.688
REMARK  Name = 
REMARK  15 active torsions:
REMARK  status: ('A' for Active; 'I' for Inactive)
REMARK    1  A    between atoms: C_1  and  O_2
REMARK    2  A    between atoms: O_2  and  C_3
REMARK    3  A    between atoms: C_5  and  N_6
REMARK    4  A    between atoms: N_6  and  C_7
REMARK    5  A    between atoms: C_7  and  N_9
REMARK    6  A    between atoms: N_9  and  C_10
REMARK    7  A    between atoms: C_10  and  C_11
REMARK    8  A    between atoms: C_11  and  C_12
REMARK    9  A    between atoms: C_12  and  N_13
REMARK   10  A    between atoms: C_17  and  C_18
REMARK   11  A    between atoms: C_21  and  O_22
REMARK   12  A    between atoms: O_22  and  C_23
REMARK   13  A    between atoms: C_23  and  C_24
REMARK   14  A    between atoms: C_24  and  C_25
REMARK   15  A    between atoms: C_25  and  N_26
REMARK                            x       y       z     vdW  Elec       q    Type
REMARK                         _______ _______ _______ _____ _____    ______ ____
ROOT
ATOM      1  C   UNL     1      -0.384  10.452  20.324  0.00  0.00    +0.000 A 
ATOM      2  C   UNL     1       0.510   9.383  20.172  0.00  0.00    +0.000 A 
ATOM      3  C   UNL     1       1.073   8.743  21.279  0.00  0.00    +0.000 A 
ATOM      4  C   UNL     1       0.714   9.156  22.560  0.00  0.00    +0.000 A 
ATOM      5  C   UNL     1      -0.200  10.198  22.731  0.00  0.00    +0.000 A 
ATOM      6  C   UNL     1      -0.781  10.827  21.623  0.00  0.00    +0.000 A 
ENDROOT
BRANCH   1   8
ATOM      7  C   UNL     1      -1.269  10.423  18.074  0.00  0.00    +0.000 C 
ATOM      8  O   UNL     1      -0.921  11.125  19.263  0.00  0.00    +0.000 OA
ENDBRANCH   1   8
BRANCH   3   9
ATOM      9  N   UNL     1       1.902   7.612  21.149  0.00  0.00    +0.000 N 
ATOM     10  H   UNL     1       2.587   7.473  21.880  0.00  0.00    +0.000 HD
BRANCH   9  11
ATOM     11  C   UNL     1       2.009   6.729  20.105  0.00  0.00    +0.000 C 
ATOM     12  S   UNL     1       2.657   7.021  18.596  0.00  0.00    +0.000 S 
BRANCH  11  13
ATOM     13  N   UNL     1       1.591   5.453  20.395  0.00  0.00    +0.000 N 
ATOM     14  H   UNL     1       0.579   5.374  20.352  0.00  0.00    +0.000 HD
BRANCH  13  15
ATOM     15  C   UNL     1       2.239   4.618  21.399  0.00  0.00    +0.000 C 
BRANCH  15  16
ATOM     16  C   UNL     1       1.966   3.137  21.187  0.00  0.00    +0.000 C 
BRANCH  16  17
ATOM     17  C   UNL     1       3.094   2.478  20.399  0.00  0.00    +0.000 C 
BRANCH  17  18
ATOM     18  N   UNL     1       3.108   2.881  19.008  0.00  0.00    +0.000 N 
ATOM     19  C   UNL     1       2.155   2.533  18.086  0.00  0.00    +0.000 A 
ATOM     20  N   UNL     1       2.448   3.002  16.895  0.00  0.00    +0.000 NA
ATOM     21  C   UNL     1       3.631   3.680  17.048  0.00  0.00    +0.000 A 
ATOM     22  C   UNL     1       4.064   3.623  18.361  0.00  0.00    +0.000 A 
ATOM     23  C   UNL     1       5.270   4.196  19.006  0.00  0.00    +0.000 C 
ENDBRANCH  17  18
ENDBRANCH  16  17
ENDBRANCH  15  16
ENDBRANCH  13  15
ENDBRANCH  11  13
ENDBRANCH   9  11
ENDBRANCH   3   9
BRANCH   6  24
ATOM     24  O   UNL     1      -1.699  11.802  21.955  0.00  0.00    +0.000 OA
BRANCH  24  25
ATOM     25  C   UNL     1      -1.213  12.768  22.888  0.00  0.00    +0.000 C 
BRANCH  25  26
ATOM     26  C   UNL     1      -2.082  14.031  22.885  0.00  0.00    +0.000 C 
BRANCH  26  27
ATOM     27  C   UNL     1      -3.479  13.636  22.415  0.00  0.00    +0.000 C 
BRANCH  27  28
ATOM     28  N   UNL     1      -4.103  12.641  23.266  0.00  0.00    +0.000 N 
ATOM     29  C   UNL     1      -5.138  12.948  24.083  0.00  0.00    +0.000 C 
ATOM     30  N   UNL     1      -5.804  14.040  24.153  0.00  0.00    +0.000 NA
ATOM     31  N   UNL     1      -5.473  11.926  24.889  0.00  0.00    +0.000 N 
ATOM     32  H   UNL     1      -3.447  12.005  23.711  0.00  0.00    +0.000 HD
ATOM     33  H   UNL     1      -5.436  14.718  23.487  0.00  0.00    +0.000 HD
ATOM     34  H   UNL     1      -5.561  11.051  24.389  0.00  0.00    +0.000 HD
ATOM     35  H   UNL     1      -6.348  12.154  25.355  0.00  0.00    +0.000 HD
ENDBRANCH  27  28
ENDBRANCH  26  27
ENDBRANCH  25  26
ENDBRANCH  24  25
ENDBRANCH   6  24
TORSDOF 13
ENDMDL
MODEL 9
REMARK VINA RESULT:      -6.6      4.513      7.401
REMARK  Name = 
REMARK  15 active torsions:
REMARK  status: ('A' for Active; 'I' for Inactive)
REMARK    1  A    between atoms: C_1  and  O_2
REMARK    2  A    between atoms: O_2  and  C_3
REMARK    3  A    between atoms: C_5  and  N_6
REMARK    4  A    between atoms: N_6  and  C_7
REMARK    5  A    between atoms: C_7  and  N_9
REMARK    6  A    between atoms: N_9  and  C_10
REMARK    7  A    between atoms: C_10  and  C_11
REMARK    8  A    between atoms: C_11  and  C_12
REMARK    9  A    between atoms: C_12  and  N_13
REMARK   10  A    between atoms: C_17  and  C_18
REMARK   11  A    between atoms: C_21  and  O_22
REMARK   12  A    between atoms: O_22  and  C_23
REMARK   13  A    between atoms: C_23  and  C_24
REMARK   14  A    between atoms: C_24  and  C_25
REMARK   15  A    between atoms: C_25  and  N_26
REMARK                            x       y       z     vdW  Elec       q    Type
REMARK                         _______ _______ _______ _____ _____    ______ ____
ROOT
ATOM      1  C   UNL     1       1.599   9.255  18.739  0.00  0.00    +0.000 A 
ATOM      2  C   UNL     1       2.334   8.380  17.928  0.00  0.00    +0.000 A 
ATOM      3  C   UNL     1       2.715   7.115  18.383  0.00  0.00    +0.000 A 
ATOM      4  C   UNL     1       2.332   6.705  19.658  0.00  0.00    +0.000 A 
ATOM      5  C   UNL     1       1.572   7.552  20.468  0.00  0.00    +0.000 A 
ATOM      6  C   UNL     1       1.171   8.811  20.006  0.00  0.00    +0.000 A 
ENDROOT
BRANCH   1   8
ATOM      7  C   UNL     1       2.247  11.457  17.978  0.00  0.00    +0.000 C 
ATOM      8  O   UNL     1       1.245  10.513  18.340  0.00  0.00    +0.000 OA
ENDBRANCH   1   8
BRANCH   3   9
ATOM      9  N   UNL     1       3.375   6.187  17.553  0.00  0.00    +0.000 N 
ATOM     10  H   UNL     1       2.832   5.386  17.258  0.00  0.00    +0.000 HD
BRANCH   9  11
ATOM     11  C   UNL     1       4.694   6.138  17.182  0.00  0.00    +0.000 C 
ATOM     12  S   UNL     1       5.323   6.351  15.651  0.00  0.00    +0.000 S 
BRANCH  11  13
ATOM     13  N   UNL     1       5.572   5.964  18.224  0.00  0.00    +0.000 N 
ATOM     14  H   UNL     1       6.315   6.658  18.205  0.00  0.00    +0.000 HD
BRANCH  13  15
ATOM     15  C   UNL     1       5.960   4.649  18.718  0.00  0.00    +0.000 C 
BRANCH  15  16
ATOM     16  C   UNL     1       4.986   4.106  19.752  0.00  0.00    +0.000 C 
BRANCH  16  17
ATOM     17  C   UNL     1       4.386   2.778  19.297  0.00  0.00    +0.000 C 
BRANCH  17  18
ATOM     18  N   UNL     1       2.946   2.840  19.155  0.00  0.00    +0.000 N 
ATOM     19  C   UNL     1       2.284   2.926  17.959  0.00  0.00    +0.000 A 
ATOM     20  N   UNL     1       0.986   3.012  18.136  0.00  0.00    +0.000 NA
ATOM     21  C   UNL     1       0.797   2.981  19.494  0.00  0.00    +0.000 A 
ATOM     22  C   UNL     1       2.007   2.870  20.156  0.00  0.00    +0.000 A 
ATOM     23  C   UNL     1       2.313   2.800  21.605  0.00  0.00    +0.000 C 
ENDBRANCH  17  18
ENDBRANCH  16  17
ENDBRANCH  15  16
ENDBRANCH  13  15
ENDBRANCH  11  13
ENDBRANCH   9  11
ENDBRANCH   3   9
BRANCH   6  24
ATOM     24  O   UNL     1       0.386   9.509  20.902  0.00  0.00    +0.000 OA
BRANCH  24  25
ATOM     25  C   UNL     1       0.836  10.840  21.157  0.00  0.00    +0.000 C 
BRANCH  25  26
ATOM     26  C   UNL     1      -0.181  11.618  22.001  0.00  0.00    +0.000 C 
BRANCH  26  27
ATOM     27  C   UNL     1      -1.402  11.889  21.127  0.00  0.00    +0.000 C 
BRANCH  27  28
ATOM     28  N   UNL     1      -1.102  11.863  19.708  0.00  0.00    +0.000 N 
ATOM     29  C   UNL     1      -1.157  12.980  18.946  0.00  0.00    +0.000 C 
ATOM     30  N   UNL     1      -1.326  14.194  19.318  0.00  0.00    +0.000 NA
ATOM     31  N   UNL     1      -0.989  12.716  17.639  0.00  0.00    +0.000 N 
ATOM     32  H   UNL     1      -1.478  11.055  19.220  0.00  0.00    +0.000 HD
ATOM     33  H   UNL     1      -1.439  14.238  20.330  0.00  0.00    +0.000 HD
ATOM     34  H   UNL     1      -0.196  12.111  17.466  0.00  0.00    +0.000 HD
ATOM     35  H   UNL     1      -0.874  13.595  17.142  0.00  0.00    +0.000 HD
ENDBRANCH  27  28
ENDBRANCH  26  27
ENDBRANCH  25  26
ENDBRANCH  24  25
ENDBRANCH   6  24
TORSDOF 13
ENDMDL
