MODEL 1
REMARK VINA RESULT:      -8.5      0.000      0.000
REMARK  Name = 
REMARK  8 active torsions:
REMARK  status: ('A' for Active; 'I' for Inactive)
REMARK    1  A    between atoms: C_1  and  O_2
REMARK    2  A    between atoms: O_2  and  C_3
REMARK    3  A    between atoms: C_13  and  C_14
REMARK    4  A    between atoms: N_16  and  S_17
REMARK    5  A    between atoms: S_17  and  C_20
REMARK    6  A    between atoms: C_23  and  C_24
REMARK    7  A    between atoms: C_27  and  C_28
REMARK    8  A    between atoms: C_31  and  C_32
REMARK                            x       y       z     vdW  Elec       q    Type
REMARK                         _______ _______ _______ _____ _____    ______ ____
ROOT
ATOM      1  C   UNL     1      -2.185  11.645  19.217  0.00  0.00    +0.000 C 
ATOM      2  N   UNL     1      -1.664  10.527  19.632  0.00  0.00    +0.000 NA
ATOM      3  N   UNL     1      -0.416  10.856  20.258  0.00  0.00    +0.000 N 
ATOM      4  C   UNL     1      -0.218  12.309  20.376  0.00  0.00    +0.000 C 
ATOM      5  C   UNL     1      -1.359  12.875  19.517  0.00  0.00    +0.000 C 
ENDROOT
BRANCH   1  16
ATOM      6  C   UNL     1      -3.702  11.545  17.163  0.00  0.00    +0.000 A 
ATOM      7  C   UNL     1      -4.995  11.617  16.617  0.00  0.00    +0.000 A 
ATOM      8  C   UNL     1      -6.100  11.912  17.418  0.00  0.00    +0.000 A 
ATOM      9  C   UNL     1      -5.931  12.123  18.782  0.00  0.00    +0.000 A 
ATOM     10  C   UNL     1      -7.064  12.471  19.630  0.00  0.00    +0.000 A 
ATOM     11  C   UNL     1      -6.871  12.665  20.938  0.00  0.00    +0.000 A 
ATOM     12  C   UNL     1      -5.551  12.542  21.572  0.00  0.00    +0.000 A 
ATOM     13  O   UNL     1      -5.411  12.722  22.777  0.00  0.00    +0.000 OA
ATOM     14  O   UNL     1      -4.497  12.244  20.726  0.00  0.00    +0.000 OA
ATOM     15  C   UNL     1      -4.653  12.011  19.336  0.00  0.00    +0.000 A 
ATOM     16  C   UNL     1      -3.519  11.718  18.550  0.00  0.00    +0.000 A 
BRANCH   6  18
ATOM     17  C   UNL     1      -2.887  10.505  15.188  0.00  0.00    +0.000 C 
ATOM     18  O   UNL     1      -2.616  11.243  16.380  0.00  0.00    +0.000 OA
ENDBRANCH   6  18
ENDBRANCH   1  16
BRANCH   4  19
ATOM     19  C   UNL     1       1.136  12.757  19.862  0.00  0.00    +0.000 A 
ATOM     20  C   UNL     1       1.986  13.531  20.673  0.00  0.00    +0.000 A 
ATOM     21  C   UNL     1       3.138  14.115  20.148  0.00  0.00    +0.000 A 
ATOM     22  C   UNL     1       3.479  13.908  18.811  0.00  0.00    +0.000 A 
ATOM     23  C   UNL     1       4.623  14.659  18.198  0.00  0.00    +0.000 C 
ATOM     24  C   UNL     1       2.689  13.061  18.025  0.00  0.00    +0.000 A 
ATOM     25  C   UNL     1       1.527  12.484  18.546  0.00  0.00    +0.000 A 
ENDBRANCH   4  19
BRANCH   3  26
ATOM     26  S   UNL     1       0.441   9.746  21.215  0.00  0.00    +0.000 S 
ATOM     27  O   UNL     1       1.425  10.460  22.007  0.00  0.00    +0.000 OA
ATOM     28  O   UNL     1      -0.497   8.845  21.864  0.00  0.00    +0.000 OA
BRANCH  26  29
ATOM     29  C   UNL     1       1.334   8.759  20.034  0.00  0.00    +0.000 A 
ATOM     30  C   UNL     1       1.607   9.286  18.768  0.00  0.00    +0.000 A 
ATOM     31  C   UNL     1       2.381   8.554  17.866  0.00  0.00    +0.000 A 
ATOM     32  C   UNL     1       2.894   7.300  18.222  0.00  0.00    +0.000 A 
ATOM     33  C   UNL     1       3.694   6.489  17.244  0.00  0.00    +0.000 C 
ATOM     34  C   UNL     1       2.652   6.801  19.510  0.00  0.00    +0.000 A 
ATOM     35  C   UNL     1       1.879   7.529  20.419  0.00  0.00    +0.000 A 
ENDBRANCH  26  29
ENDBRANCH   3  26
TORSDOF 5
ENDMDL
MODEL 2
REMARK VINA RESULT:      -7.8      0.686      1.055
REMARK  Name = 
REMARK  8 active torsions:
REMARK  status: ('A' for Active; 'I' for Inactive)
REMARK    1  A    between atoms: C_1  and  O_2
REMARK    2  A    between atoms: O_2  and  C_3
REMARK    3  A    between atoms: C_13  and  C_14
REMARK    4  A    between atoms: N_16  and  S_17
REMARK    5  A    between atoms: S_17  and  C_20
REMARK    6  A    between atoms: C_23  and  C_24
REMARK    7  A    between atoms: C_27  and  C_28
REMARK    8  A    between atoms: C_31  and  C_32
REMARK                            x       y       z     vdW  Elec       q    Type
REMARK                         _______ _______ _______ _____ _____    ______ ____
ROOT
ATOM      1  C   UNL     1      -2.345  12.050  19.264  0.00  0.00    +0.000 C 
ATOM      2  N   UNL     1      -1.662  11.056  19.753  0.00  0.00    +0.000 NA
ATOM      3  N   UNL     1      -0.433  11.603  20.253  0.00  0.00    +0.000 N 
ATOM      4  C   UNL     1      -0.417  13.072  20.207  0.00  0.00    +0.000 C 
ATOM      5  C   UNL     1      -1.669  13.397  19.376  0.00  0.00    +0.000 C 
ENDROOT
BRANCH   1  16
ATOM      6  C   UNL     1      -3.951  11.541  17.342  0.00  0.00    +0.000 A 
ATOM      7  C   UNL     1      -5.272  11.393  16.885  0.00  0.00    +0.000 A 
ATOM      8  C   UNL     1      -6.358  11.636  17.727  0.00  0.00    +0.000 A 
ATOM      9  C   UNL     1      -6.140  12.015  19.048  0.00  0.00    +0.000 A 
ATOM     10  C   UNL     1      -7.258  12.312  19.933  0.00  0.00    +0.000 A 
ATOM     11  C   UNL     1      -7.017  12.670  21.198  0.00  0.00    +0.000 A 
ATOM     12  C   UNL     1      -5.659  12.779  21.747  0.00  0.00    +0.000 A 
ATOM     13  O   UNL     1      -5.475  13.107  22.914  0.00  0.00    +0.000 OA
ATOM     14  O   UNL     1      -4.625  12.523  20.863  0.00  0.00    +0.000 OA
ATOM     15  C   UNL     1      -4.829  12.121  19.519  0.00  0.00    +0.000 A 
ATOM     16  C   UNL     1      -3.713  11.886  18.688  0.00  0.00    +0.000 A 
BRANCH   6  18
ATOM     17  C   UNL     1      -3.192  10.766  15.228  0.00  0.00    +0.000 C 
ATOM     18  O   UNL     1      -2.882  11.289  16.520  0.00  0.00    +0.000 OA
ENDBRANCH   6  18
ENDBRANCH   1  16
BRANCH   4  19
ATOM     19  C   UNL     1       0.836  13.623  19.555  0.00  0.00    +0.000 A 
ATOM     20  C   UNL     1       1.350  13.031  18.386  0.00  0.00    +0.000 A 
ATOM     21  C   UNL     1       2.602  13.396  17.891  0.00  0.00    +0.000 A 
ATOM     22  C   UNL     1       3.348  14.382  18.537  0.00  0.00    +0.000 A 
ATOM     23  C   UNL     1       4.757  14.665  18.110  0.00  0.00    +0.000 C 
ATOM     24  C   UNL     1       2.800  15.041  19.645  0.00  0.00    +0.000 A 
ATOM     25  C   UNL     1       1.550  14.669  20.149  0.00  0.00    +0.000 A 
ENDBRANCH   4  19
BRANCH   3  26
ATOM     26  S   UNL     1       0.613  10.718  21.256  0.00  0.00    +0.000 S 
ATOM     27  O   UNL     1       1.769  11.535  21.577  0.00  0.00    +0.000 OA
ATOM     28  O   UNL     1      -0.154  10.096  22.322  0.00  0.00    +0.000 OA
BRANCH  26  29
ATOM     29  C   UNL     1       1.182   9.388  20.219  0.00  0.00    +0.000 A 
ATOM     30  C   UNL     1       1.423   9.633  18.864  0.00  0.00    +0.000 A 
ATOM     31  C   UNL     1       1.951   8.619  18.062  0.00  0.00    +0.000 A 
ATOM     32  C   UNL     1       2.249   7.363  18.606  0.00  0.00    +0.000 A 
ATOM     33  C   UNL     1       2.780   6.256  17.742  0.00  0.00    +0.000 C 
ATOM     34  C   UNL     1       2.046   7.143  19.976  0.00  0.00    +0.000 A 
ATOM     35  C   UNL     1       1.519   8.154  20.785  0.00  0.00    +0.000 A 
ENDBRANCH  26  29
ENDBRANCH   3  26
TORSDOF 5
ENDMDL
MODEL 3
REMARK VINA RESULT:      -7.5      2.071      5.141
REMARK  Name = 
REMARK  8 active torsions:
REMARK  status: ('A' for Active; 'I' for Inactive)
REMARK    1  A    between atoms: C_1  and  O_2
REMARK    2  A    between atoms: O_2  and  C_3
REMARK    3  A    between atoms: C_13  and  C_14
REMARK    4  A    between atoms: N_16  and  S_17
REMARK    5  A    between atoms: S_17  and  C_20
REMARK    6  A    between atoms: C_23  and  C_24
REMARK    7  A    between atoms: C_27  and  C_28
REMARK    8  A    between atoms: C_31  and  C_32
REMARK                            x       y       z     vdW  Elec       q    Type
REMARK                         _______ _______ _______ _____ _____    ______ ____
ROOT
ATOM      1  C   UNL     1      -1.845  11.533  18.620  0.00  0.00    +0.000 C 
ATOM      2  N   UNL     1      -1.137  12.330  19.367  0.00  0.00    +0.000 NA
ATOM      3  N   UNL     1       0.217  11.860  19.310  0.00  0.00    +0.000 N 
ATOM      4  C   UNL     1       0.391  10.777  18.331  0.00  0.00    +0.000 C 
ATOM      5  C   UNL     1      -1.058  10.427  17.957  0.00  0.00    +0.000 C 
ENDROOT
BRANCH   1  16
ATOM      6  C   UNL     1      -3.912  11.605  17.120  0.00  0.00    +0.000 A 
ATOM      7  C   UNL     1      -5.300  11.791  16.991  0.00  0.00    +0.000 A 
ATOM      8  C   UNL     1      -6.084  12.150  18.088  0.00  0.00    +0.000 A 
ATOM      9  C   UNL     1      -5.496  12.312  19.338  0.00  0.00    +0.000 A 
ATOM     10  C   UNL     1      -6.289  12.725  20.488  0.00  0.00    +0.000 A 
ATOM     11  C   UNL     1      -5.696  12.869  21.677  0.00  0.00    +0.000 A 
ATOM     12  C   UNL     1      -4.261  12.627  21.883  0.00  0.00    +0.000 A 
ATOM     13  O   UNL     1      -3.751  12.765  22.989  0.00  0.00    +0.000 OA
ATOM     14  O   UNL     1      -3.538  12.271  20.758  0.00  0.00    +0.000 OA
ATOM     15  C   UNL     1      -4.124  12.087  19.480  0.00  0.00    +0.000 A 
ATOM     16  C   UNL     1      -3.307  11.727  18.387  0.00  0.00    +0.000 A 
BRANCH   6  18
ATOM     17  C   UNL     1      -3.687  10.231  15.195  0.00  0.00    +0.000 C 
ATOM     18  O   UNL     1      -3.141  11.239  16.046  0.00  0.00    +0.000 OA
ENDBRANCH   6  18
ENDBRANCH   1  16
BRANCH   4  19
ATOM     19  C   UNL     1       1.118   9.579  18.908  0.00  0.00    +0.000 A 
ATOM     20  C   UNL     1       1.963   8.799  18.097  0.00  0.00    +0.000 A 
ATOM     21  C   UNL     1       2.477   7.587  18.558  0.00  0.00    +0.000 A 
ATOM     22  C   UNL     1       2.183   7.150  19.849  0.00  0.00    +0.000 A 
ATOM     23  C   UNL     1       2.596   5.779  20.296  0.00  0.00    +0.000 C 
ATOM     24  C   UNL     1       1.422   7.967  20.694  0.00  0.00    +0.000 A 
ATOM     25  C   UNL     1       0.896   9.177  20.230  0.00  0.00    +0.000 A 
ENDBRANCH   4  19
BRANCH   3  26
ATOM     26  S   UNL     1       1.523  12.785  19.878  0.00  0.00    +0.000 S 
ATOM     27  O   UNL     1       1.824  12.395  21.244  0.00  0.00    +0.000 OA
ATOM     28  O   UNL     1       2.578  12.794  18.879  0.00  0.00    +0.000 OA
BRANCH  26  29
ATOM     29  C   UNL     1       0.883  14.445  19.935  0.00  0.00    +0.000 A 
ATOM     30  C   UNL     1       0.617  15.117  18.739  0.00  0.00    +0.000 A 
ATOM     31  C   UNL     1       0.035  16.386  18.774  0.00  0.00    +0.000 A 
ATOM     32  C   UNL     1      -0.293  16.985  19.997  0.00  0.00    +0.000 A 
ATOM     33  C   UNL     1      -0.883  18.365  20.044  0.00  0.00    +0.000 C 
ATOM     34  C   UNL     1      -0.064  16.283  21.189  0.00  0.00    +0.000 A 
ATOM     35  C   UNL     1       0.518  15.012  21.161  0.00  0.00    +0.000 A 
ENDBRANCH  26  29
ENDBRANCH   3  26
TORSDOF 5
ENDMDL
MODEL 4
REMARK VINA RESULT:      -7.4      2.400      5.818
REMARK  Name = 
REMARK  8 active torsions:
REMARK  status: ('A' for Active; 'I' for Inactive)
REMARK    1  A    between atoms: C_1  and  O_2
REMARK    2  A    between atoms: O_2  and  C_3
REMARK    3  A    between atoms: C_13  and  C_14
REMARK    4  A    between atoms: N_16  and  S_17
REMARK    5  A    between atoms: S_17  and  C_20
REMARK    6  A    between atoms: C_23  and  C_24
REMARK    7  A    between atoms: C_27  and  C_28
REMARK    8  A    between atoms: C_31  and  C_32
REMARK                            x       y       z     vdW  Elec       q    Type
REMARK                         _______ _______ _______ _____ _____    ______ ____
ROOT
ATOM      1  C   UNL     1      -1.653  12.020  19.912  0.00  0.00    +0.000 C 
ATOM      2  N   UNL     1      -0.636  12.799  20.144  0.00  0.00    +0.000 NA
ATOM      3  N   UNL     1       0.501  12.196  19.509  0.00  0.00    +0.000 N 
ATOM      4  C   UNL     1       0.132  11.032  18.691  0.00  0.00    +0.000 C 
ATOM      5  C   UNL     1      -1.335  10.796  19.084  0.00  0.00    +0.000 C 
ENDROOT
BRANCH   1  16
ATOM      6  C   UNL     1      -3.345  12.705  21.700  0.00  0.00    +0.000 A 
ATOM      7  C   UNL     1      -4.675  13.001  22.048  0.00  0.00    +0.000 A 
ATOM      8  C   UNL     1      -5.707  12.884  21.117  0.00  0.00    +0.000 A 
ATOM      9  C   UNL     1      -5.425  12.485  19.815  0.00  0.00    +0.000 A 
ATOM     10  C   UNL     1      -6.492  12.317  18.837  0.00  0.00    +0.000 A 
ATOM     11  C   UNL     1      -6.189  11.936  17.592  0.00  0.00    +0.000 A 
ATOM     12  C   UNL     1      -4.810  11.674  17.156  0.00  0.00    +0.000 A 
ATOM     13  O   UNL     1      -4.568  11.330  16.005  0.00  0.00    +0.000 OA
ATOM     14  O   UNL     1      -3.831  11.811  18.125  0.00  0.00    +0.000 OA
ATOM     15  C   UNL     1      -4.099  12.231  19.452  0.00  0.00    +0.000 A 
ATOM     16  C   UNL     1      -3.037  12.338  20.374  0.00  0.00    +0.000 A 
BRANCH   6  18
ATOM     17  C   UNL     1      -2.019  11.668  23.377  0.00  0.00    +0.000 C 
ATOM     18  O   UNL     1      -2.326  12.833  22.610  0.00  0.00    +0.000 OA
ENDBRANCH   6  18
ENDBRANCH   1  16
BRANCH   4  19
ATOM     19  C   UNL     1       0.986   9.815  18.989  0.00  0.00    +0.000 A 
ATOM     20  C   UNL     1       1.726   9.196  17.965  0.00  0.00    +0.000 A 
ATOM     21  C   UNL     1       2.352   7.967  18.178  0.00  0.00    +0.000 A 
ATOM     22  C   UNL     1       2.278   7.353  19.428  0.00  0.00    +0.000 A 
ATOM     23  C   UNL     1       2.808   5.964  19.620  0.00  0.00    +0.000 C 
ATOM     24  C   UNL     1       1.625   8.011  20.478  0.00  0.00    +0.000 A 
ATOM     25  C   UNL     1       0.986   9.236  20.263  0.00  0.00    +0.000 A 
ENDBRANCH   4  19
BRANCH   3  26
ATOM     26  S   UNL     1       1.964  13.030  19.288  0.00  0.00    +0.000 S 
ATOM     27  O   UNL     1       2.618  13.193  20.574  0.00  0.00    +0.000 OA
ATOM     28  O   UNL     1       2.691  12.442  18.176  0.00  0.00    +0.000 OA
BRANCH  26  29
ATOM     29  C   UNL     1       1.460  14.649  18.748  0.00  0.00    +0.000 A 
ATOM     30  C   UNL     1       0.104  14.987  18.773  0.00  0.00    +0.000 A 
ATOM     31  C   UNL     1      -0.292  16.282  18.433  0.00  0.00    +0.000 A 
ATOM     32  C   UNL     1       0.660  17.247  18.075  0.00  0.00    +0.000 A 
ATOM     33  C   UNL     1       0.239  18.630  17.670  0.00  0.00    +0.000 C 
ATOM     34  C   UNL     1       2.020  16.909  18.097  0.00  0.00    +0.000 A 
ATOM     35  C   UNL     1       2.424  15.615  18.438  0.00  0.00    +0.000 A 
ENDBRANCH  26  29
ENDBRANCH   3  26
TORSDOF 5
ENDMDL
MODEL 5
REMARK VINA RESULT:      -7.4      7.390     11.876
REMARK  Name = 
REMARK  8 active torsions:
REMARK  status: ('A' for Active; 'I' for Inactive)
REMARK    1  A    between atoms: C_1  and  O_2
REMARK    2  A    between atoms: O_2  and  C_3
REMARK    3  A    between atoms: C_13  and  C_14
REMARK    4  A    between atoms: N_16  and  S_17
REMARK    5  A    between atoms: S_17  and  C_20
REMARK    6  A    between atoms: C_23  and  C_24
REMARK    7  A    between atoms: C_27  and  C_28
REMARK    8  A    between atoms: C_31  and  C_32
REMARK                            x       y       z     vdW  Elec       q    Type
REMARK                         _______ _______ _______ _____ _____    ______ ____
ROOT
ATOM      1  C   UNL     1       8.763  13.778  20.615  0.00  0.00    +0.000 C 
ATOM      2  N   UNL     1       7.484  14.020  20.575  0.00  0.00    +0.000 NA
ATOM      3  N   UNL     1       7.068  14.277  21.924  0.00  0.00    +0.000 N 
ATOM      4  C   UNL     1       8.205  14.350  22.854  0.00  0.00    +0.000 C 
ATOM      5  C   UNL     1       9.376  13.848  21.994  0.00  0.00    +0.000 C 
ENDROOT
BRANCH   1  16
ATOM      6  C   UNL     1       9.954  12.216  18.980  0.00  0.00    +0.000 A 
ATOM      7  C   UNL     1      10.707  12.051  17.805  0.00  0.00    +0.000 A 
ATOM      8  C   UNL     1      11.135  13.153  17.063  0.00  0.00    +0.000 A 
ATOM      9  C   UNL     1      10.801  14.438  17.475  0.00  0.00    +0.000 A 
ATOM     10  C   UNL     1      11.270  15.604  16.737  0.00  0.00    +0.000 A 
ATOM     11  C   UNL     1      10.930  16.827  17.156  0.00  0.00    +0.000 A 
ATOM     12  C   UNL     1      10.093  17.056  18.341  0.00  0.00    +0.000 A 
ATOM     13  O   UNL     1       9.796  18.192  18.693  0.00  0.00    +0.000 OA
ATOM     14  O   UNL     1       9.698  15.923  19.032  0.00  0.00    +0.000 OA
ATOM     15  C   UNL     1      10.016  14.605  18.619  0.00  0.00    +0.000 A 
ATOM     16  C   UNL     1       9.574  13.510  19.390  0.00  0.00    +0.000 A 
BRANCH   6  18
ATOM     17  C   UNL     1       9.076  10.008  18.948  0.00  0.00    +0.000 C 
ATOM     18  O   UNL     1       9.521  11.134  19.705  0.00  0.00    +0.000 OA
ENDBRANCH   6  18
ENDBRANCH   1  16
BRANCH   4  19
ATOM     19  C   UNL     1       8.011  13.483  24.083  0.00  0.00    +0.000 A 
ATOM     20  C   UNL     1       7.482  12.185  23.963  0.00  0.00    +0.000 A 
ATOM     21  C   UNL     1       7.112  11.456  25.093  0.00  0.00    +0.000 A 
ATOM     22  C   UNL     1       7.298  11.998  26.365  0.00  0.00    +0.000 A 
ATOM     23  C   UNL     1       6.759  11.294  27.573  0.00  0.00    +0.000 C 
ATOM     24  C   UNL     1       7.913  13.250  26.494  0.00  0.00    +0.000 A 
ATOM     25  C   UNL     1       8.273  13.988  25.361  0.00  0.00    +0.000 A 
ENDBRANCH   4  19
BRANCH   3  26
ATOM     26  S   UNL     1       5.552  14.946  22.295  0.00  0.00    +0.000 S 
ATOM     27  O   UNL     1       4.687  13.904  22.817  0.00  0.00    +0.000 OA
ATOM     28  O   UNL     1       5.738  16.177  23.044  0.00  0.00    +0.000 OA
BRANCH  26  29
ATOM     29  C   UNL     1       4.896  15.427  20.711  0.00  0.00    +0.000 A 
ATOM     30  C   UNL     1       3.914  14.635  20.109  0.00  0.00    +0.000 A 
ATOM     31  C   UNL     1       3.332  15.050  18.909  0.00  0.00    +0.000 A 
ATOM     32  C   UNL     1       3.718  16.256  18.310  0.00  0.00    +0.000 A 
ATOM     33  C   UNL     1       3.125  16.689  17.001  0.00  0.00    +0.000 C 
ATOM     34  C   UNL     1       4.671  17.064  18.947  0.00  0.00    +0.000 A 
ATOM     35  C   UNL     1       5.256  16.656  20.149  0.00  0.00    +0.000 A 
ENDBRANCH  26  29
ENDBRANCH   3  26
TORSDOF 5
ENDMDL
MODEL 6
REMARK VINA RESULT:      -7.3      1.521      4.571
REMARK  Name = 
REMARK  8 active torsions:
REMARK  status: ('A' for Active; 'I' for Inactive)
REMARK    1  A    between atoms: C_1  and  O_2
REMARK    2  A    between atoms: O_2  and  C_3
REMARK    3  A    between atoms: C_13  and  C_14
REMARK    4  A    between atoms: N_16  and  S_17
REMARK    5  A    between atoms: S_17  and  C_20
REMARK    6  A    between atoms: C_23  and  C_24
REMARK    7  A    between atoms: C_27  and  C_28
REMARK    8  A    between atoms: C_31  and  C_32
REMARK                            x       y       z     vdW  Elec       q    Type
REMARK                         _______ _______ _______ _____ _____    ______ ____
ROOT
ATOM      1  C   UNL     1      -2.338  11.612  18.936  0.00  0.00    +0.000 C 
ATOM      2  N   UNL     1      -1.822  12.326  19.894  0.00  0.00    +0.000 NA
ATOM      3  N   UNL     1      -0.443  11.944  20.000  0.00  0.00    +0.000 N 
ATOM      4  C   UNL     1      -0.033  11.031  18.924  0.00  0.00    +0.000 C 
ATOM      5  C   UNL     1      -1.372  10.661  18.267  0.00  0.00    +0.000 C 
ENDROOT
BRANCH   1  16
ATOM      6  C   UNL     1      -4.162  11.640  17.146  0.00  0.00    +0.000 A 
ATOM      7  C   UNL     1      -5.521  11.779  16.814  0.00  0.00    +0.000 A 
ATOM      8  C   UNL     1      -6.473  12.087  17.787  0.00  0.00    +0.000 A 
ATOM      9  C   UNL     1      -6.083  12.244  19.113  0.00  0.00    +0.000 A 
ATOM     10  C   UNL     1      -7.053  12.604  20.139  0.00  0.00    +0.000 A 
ATOM     11  C   UNL     1      -6.649  12.745  21.405  0.00  0.00    +0.000 A 
ATOM     12  C   UNL     1      -5.252  12.550  21.819  0.00  0.00    +0.000 A 
ATOM     13  O   UNL     1      -4.918  12.683  22.991  0.00  0.00    +0.000 OA
ATOM     14  O   UNL     1      -4.357  12.243  20.809  0.00  0.00    +0.000 OA
ATOM     15  C   UNL     1      -4.739  12.065  19.455  0.00  0.00    +0.000 A 
ATOM     16  C   UNL     1      -3.756  11.758  18.491  0.00  0.00    +0.000 A 
BRANCH   6  18
ATOM     17  C   UNL     1      -3.652  10.430  15.166  0.00  0.00    +0.000 C 
ATOM     18  O   UNL     1      -3.226  11.325  16.193  0.00  0.00    +0.000 OA
ENDBRANCH   6  18
ENDBRANCH   1  16
BRANCH   4  19
ATOM     19  C   UNL     1       0.686   9.801  19.444  0.00  0.00    +0.000 A 
ATOM     20  C   UNL     1       1.642   9.145  18.647  0.00  0.00    +0.000 A 
ATOM     21  C   UNL     1       2.161   7.907  19.028  0.00  0.00    +0.000 A 
ATOM     22  C   UNL     1       1.759   7.321  20.228  0.00  0.00    +0.000 A 
ATOM     23  C   UNL     1       2.186   5.924  20.567  0.00  0.00    +0.000 C 
ATOM     24  C   UNL     1       0.881   8.014  21.070  0.00  0.00    +0.000 A 
ATOM     25  C   UNL     1       0.350   9.249  20.685  0.00  0.00    +0.000 A 
ENDBRANCH   4  19
BRANCH   3  26
ATOM     26  S   UNL     1       0.680  12.844  20.901  0.00  0.00    +0.000 S 
ATOM     27  O   UNL     1      -0.026  13.617  21.906  0.00  0.00    +0.000 OA
ATOM     28  O   UNL     1       1.785  11.984  21.291  0.00  0.00    +0.000 OA
BRANCH  26  29
ATOM     29  C   UNL     1       1.348  14.000  19.724  0.00  0.00    +0.000 A 
ATOM     30  C   UNL     1       0.731  15.244  19.560  0.00  0.00    +0.000 A 
ATOM     31  C   UNL     1       1.298  16.189  18.703  0.00  0.00    +0.000 A 
ATOM     32  C   UNL     1       2.483  15.905  18.013  0.00  0.00    +0.000 A 
ATOM     33  C   UNL     1       3.077  16.901  17.060  0.00  0.00    +0.000 C 
ATOM     34  C   UNL     1       3.118  14.672  18.219  0.00  0.00    +0.000 A 
ATOM     35  C   UNL     1       2.557  13.721  19.078  0.00  0.00    +0.000 A 
ENDBRANCH  26  29
ENDBRANCH   3  26
TORSDOF 5
ENDMDL
MODEL 7
REMARK VINA RESULT:      -7.3      3.182      8.426
REMARK  Name = 
REMARK  8 active torsions:
REMARK  status: ('A' for Active; 'I' for Inactive)
REMARK    1  A    between atoms: C_1  and  O_2
REMARK    2  A    between atoms: O_2  and  C_3
REMARK    3  A    between atoms: C_13  and  C_14
REMARK    4  A    between atoms: N_16  and  S_17
REMARK    5  A    between atoms: S_17  and  C_20
REMARK    6  A    between atoms: C_23  and  C_24
REMARK    7  A    between atoms: C_27  and  C_28
REMARK    8  A    between atoms: C_31  and  C_32
REMARK                            x       y       z     vdW  Elec       q    Type
REMARK                         _______ _______ _______ _____ _____    ______ ____
ROOT
ATOM      1  C   UNL     1       2.154  14.042  20.837  0.00  0.00    +0.000 C 
ATOM      2  N   UNL     1       1.231  14.316  21.712  0.00  0.00    +0.000 NA
ATOM      3  N   UNL     1       0.280  13.242  21.663  0.00  0.00    +0.000 N 
ATOM      4  C   UNL     1       0.727  12.141  20.797  0.00  0.00    +0.000 C 
ATOM      5  C   UNL     1       1.950  12.745  20.089  0.00  0.00    +0.000 C 
ENDROOT
BRANCH   1  16
ATOM      6  C   UNL     1       3.394  15.956  19.683  0.00  0.00    +0.000 A 
ATOM      7  C   UNL     1       4.559  16.733  19.558  0.00  0.00    +0.000 A 
ATOM      8  C   UNL     1       5.698  16.451  20.313  0.00  0.00    +0.000 A 
ATOM      9  C   UNL     1       5.686  15.396  21.220  0.00  0.00    +0.000 A 
ATOM     10  C   UNL     1       6.876  15.059  21.989  0.00  0.00    +0.000 A 
ATOM     11  C   UNL     1       6.832  14.042  22.855  0.00  0.00    +0.000 A 
ATOM     12  C   UNL     1       5.623  13.236  23.072  0.00  0.00    +0.000 A 
ATOM     13  O   UNL     1       5.618  12.312  23.879  0.00  0.00    +0.000 OA
ATOM     14  O   UNL     1       4.526  13.567  22.296  0.00  0.00    +0.000 OA
ATOM     15  C   UNL     1       4.516  14.648  21.378  0.00  0.00    +0.000 A 
ATOM     16  C   UNL     1       3.352  14.908  20.626  0.00  0.00    +0.000 A 
BRANCH   6  18
ATOM     17  C   UNL     1       2.476  16.939  17.724  0.00  0.00    +0.000 C 
ATOM     18  O   UNL     1       2.268  16.240  18.952  0.00  0.00    +0.000 OA
ENDBRANCH   6  18
ENDBRANCH   1  16
BRANCH   4  19
ATOM     19  C   UNL     1      -0.333  11.714  19.801  0.00  0.00    +0.000 A 
ATOM     20  C   UNL     1      -0.736  10.368  19.722  0.00  0.00    +0.000 A 
ATOM     21  C   UNL     1      -1.557   9.928  18.684  0.00  0.00    +0.000 A 
ATOM     22  C   UNL     1      -2.018  10.832  17.726  0.00  0.00    +0.000 A 
ATOM     23  C   UNL     1      -2.765  10.342  16.522  0.00  0.00    +0.000 C 
ATOM     24  C   UNL     1      -1.699  12.190  17.855  0.00  0.00    +0.000 A 
ATOM     25  C   UNL     1      -0.866  12.631  18.888  0.00  0.00    +0.000 A 
ENDBRANCH   4  19
BRANCH   3  26
ATOM     26  S   UNL     1      -0.912  13.031  22.853  0.00  0.00    +0.000 S 
ATOM     27  O   UNL     1      -0.996  11.623  23.198  0.00  0.00    +0.000 OA
ATOM     28  O   UNL     1      -0.731  14.023  23.899  0.00  0.00    +0.000 OA
BRANCH  26  29
ATOM     29  C   UNL     1      -2.428  13.459  22.024  0.00  0.00    +0.000 A 
ATOM     30  C   UNL     1      -2.630  14.776  21.605  0.00  0.00    +0.000 A 
ATOM     31  C   UNL     1      -3.778  15.102  20.878  0.00  0.00    +0.000 A 
ATOM     32  C   UNL     1      -4.722  14.118  20.560  0.00  0.00    +0.000 A 
ATOM     33  C   UNL     1      -5.977  14.468  19.814  0.00  0.00    +0.000 C 
ATOM     34  C   UNL     1      -4.487  12.791  20.947  0.00  0.00    +0.000 A 
ATOM     35  C   UNL     1      -3.340  12.457  21.673  0.00  0.00    +0.000 A 
ENDBRANCH  26  29
ENDBRANCH   3  26
TORSDOF 5
ENDMDL
MODEL 8
REMARK VINA RESULT:      -7.3      2.698      6.756
REMARK  Name = 
REMARK  8 active torsions:
REMARK  status: ('A' for Active; 'I' for Inactive)
REMARK    1  A    between atoms: C_1  and  O_2
REMARK    2  A    between atoms: O_2  and  C_3
REMARK    3  A    between atoms: C_13  and  C_14
REMARK    4  A    between atoms: N_16  and  S_17
REMARK    5  A    between atoms: S_17  and  C_20
REMARK    6  A    between atoms: C_23  and  C_24
REMARK    7  A    between atoms: C_27  and  C_28
REMARK    8  A    between atoms: C_31  and  C_32
REMARK                            x       y       z     vdW  Elec       q    Type
REMARK                         _______ _______ _______ _____ _____    ______ ____
ROOT
ATOM      1  C   UNL     1       0.289  13.450  18.917  0.00  0.00    +0.000 C 
ATOM      2  N   UNL     1      -0.633  13.083  18.076  0.00  0.00    +0.000 NA
ATOM      3  N   UNL     1      -0.893  11.694  18.324  0.00  0.00    +0.000 N 
ATOM      4  C   UNL     1      -0.184  11.198  19.513  0.00  0.00    +0.000 C 
ATOM      5  C   UNL     1       0.767  12.358  19.847  0.00  0.00    +0.000 C 
ENDROOT
BRANCH   1  16
ATOM      6  C   UNL     1       2.090  15.234  18.584  0.00  0.00    +0.000 A 
ATOM      7  C   UNL     1       2.484  16.579  18.685  0.00  0.00    +0.000 A 
ATOM      8  C   UNL     1       1.637  17.539  19.242  0.00  0.00    +0.000 A 
ATOM      9  C   UNL     1       0.374  17.171  19.692  0.00  0.00    +0.000 A 
ATOM     10  C   UNL     1      -0.511  18.148  20.313  0.00  0.00    +0.000 A 
ATOM     11  C   UNL     1      -1.721  17.765  20.733  0.00  0.00    +0.000 A 
ATOM     12  C   UNL     1      -2.209  16.386  20.596  0.00  0.00    +0.000 A 
ATOM     13  O   UNL     1      -3.327  16.071  20.989  0.00  0.00    +0.000 OA
ATOM     14  O   UNL     1      -1.324  15.483  20.033  0.00  0.00    +0.000 OA
ATOM     15  C   UNL     1      -0.039  15.843  19.555  0.00  0.00    +0.000 A 
ATOM     16  C   UNL     1       0.797  14.852  19.000  0.00  0.00    +0.000 A 
BRANCH   6  18
ATOM     17  C   UNL     1       4.316  14.556  18.103  0.00  0.00    +0.000 C 
ATOM     18  O   UNL     1       2.915  14.291  18.025  0.00  0.00    +0.000 OA
ENDBRANCH   6  18
ENDBRANCH   1  16
BRANCH   4  19
ATOM     19  C   UNL     1       0.580   9.917  19.245  0.00  0.00    +0.000 A 
ATOM     20  C   UNL     1       0.837   9.009  20.289  0.00  0.00    +0.000 A 
ATOM     21  C   UNL     1       1.705   7.932  20.102  0.00  0.00    +0.000 A 
ATOM     22  C   UNL     1       2.304   7.725  18.860  0.00  0.00    +0.000 A 
ATOM     23  C   UNL     1       3.357   6.671  18.694  0.00  0.00    +0.000 C 
ATOM     24  C   UNL     1       1.976   8.569  17.791  0.00  0.00    +0.000 A 
ATOM     25  C   UNL     1       1.117   9.656  17.979  0.00  0.00    +0.000 A 
ENDBRANCH   4  19
BRANCH   3  26
ATOM     26  S   UNL     1      -2.242  10.893  17.675  0.00  0.00    +0.000 S 
ATOM     27  O   UNL     1      -2.269  11.095  16.237  0.00  0.00    +0.000 OA
ATOM     28  O   UNL     1      -2.311   9.547  18.219  0.00  0.00    +0.000 OA
BRANCH  26  29
ATOM     29  C   UNL     1      -3.633  11.772  18.354  0.00  0.00    +0.000 A 
ATOM     30  C   UNL     1      -4.833  11.809  17.640  0.00  0.00    +0.000 A 
ATOM     31  C   UNL     1      -5.954  12.423  18.203  0.00  0.00    +0.000 A 
ATOM     32  C   UNL     1      -5.887  12.992  19.481  0.00  0.00    +0.000 A 
ATOM     33  C   UNL     1      -7.076  13.688  20.077  0.00  0.00    +0.000 C 
ATOM     34  C   UNL     1      -4.690  12.909  20.207  0.00  0.00    +0.000 A 
ATOM     35  C   UNL     1      -3.565  12.295  19.650  0.00  0.00    +0.000 A 
ENDBRANCH  26  29
ENDBRANCH   3  26
TORSDOF 5
ENDMDL
MODEL 9
REMARK VINA RESULT:      -7.3      5.950     11.242
REMARK  Name = 
REMARK  8 active torsions:
REMARK  status: ('A' for Active; 'I' for Inactive)
REMARK    1  A    between atoms: C_1  and  O_2
REMARK    2  A    between atoms: O_2  and  C_3
REMARK    3  A    between atoms: C_13  and  C_14
REMARK    4  A    between atoms: N_16  and  S_17
REMARK    5  A    between atoms: S_17  and  C_20
REMARK    6  A    between atoms: C_23  and  C_24
REMARK    7  A    between atoms: C_27  and  C_28
REMARK    8  A    between atoms: C_31  and  C_32
REMARK                            x       y       z     vdW  Elec       q    Type
REMARK                         _______ _______ _______ _____ _____    ______ ____
ROOT
ATOM      1  C   UNL     1       8.041  15.621  19.281  0.00  0.00    +0.000 C 
ATOM      2  N   UNL     1       6.830  15.688  18.810  0.00  0.00    +0.000 NA
ATOM      3  N   UNL     1       5.963  15.932  19.927  0.00  0.00    +0.000 N 
ATOM      4  C   UNL     1       6.709  16.187  21.168  0.00  0.00    +0.000 C 
ATOM      5  C   UNL     1       8.149  15.818  20.776  0.00  0.00    +0.000 C 
ENDROOT
BRANCH   1  16
ATOM      6  C   UNL     1       9.864  16.471  17.705  0.00  0.00    +0.000 A 
ATOM      7  C   UNL     1      10.997  16.200  16.918  0.00  0.00    +0.000 A 
ATOM      8  C   UNL     1      11.482  14.899  16.776  0.00  0.00    +0.000 A 
ATOM      9  C   UNL     1      10.852  13.849  17.435  0.00  0.00    +0.000 A 
ATOM     10  C   UNL     1      11.317  12.478  17.269  0.00  0.00    +0.000 A 
ATOM     11  C   UNL     1      10.693  11.490  17.918  0.00  0.00    +0.000 A 
ATOM     12  C   UNL     1       9.544  11.723  18.803  0.00  0.00    +0.000 A 
ATOM     13  O   UNL     1       8.999  10.792  19.386  0.00  0.00    +0.000 OA
ATOM     14  O   UNL     1       9.113  13.034  18.905  0.00  0.00    +0.000 OA
ATOM     15  C   UNL     1       9.751  14.119  18.253  0.00  0.00    +0.000 A 
ATOM     16  C   UNL     1       9.238  15.423  18.411  0.00  0.00    +0.000 A 
BRANCH   6  18
ATOM     17  C   UNL     1      10.204  18.631  18.636  0.00  0.00    +0.000 C 
ATOM     18  O   UNL     1       9.393  17.751  17.857  0.00  0.00    +0.000 OA
ENDBRANCH   6  18
ENDBRANCH   1  16
BRANCH   4  19
ATOM     19  C   UNL     1       6.219  15.343  22.328  0.00  0.00    +0.000 A 
ATOM     20  C   UNL     1       5.892  15.944  23.557  0.00  0.00    +0.000 A 
ATOM     21  C   UNL     1       5.634  15.167  24.687  0.00  0.00    +0.000 A 
ATOM     22  C   UNL     1       5.665  13.775  24.598  0.00  0.00    +0.000 A 
ATOM     23  C   UNL     1       5.548  12.937  25.835  0.00  0.00    +0.000 C 
ATOM     24  C   UNL     1       5.895  13.172  23.356  0.00  0.00    +0.000 A 
ATOM     25  C   UNL     1       6.166  13.949  22.225  0.00  0.00    +0.000 A 
ENDBRANCH   4  19
BRANCH   3  26
ATOM     26  S   UNL     1       4.343  16.405  19.732  0.00  0.00    +0.000 S 
ATOM     27  O   UNL     1       3.881  17.034  20.956  0.00  0.00    +0.000 OA
ATOM     28  O   UNL     1       4.191  17.092  18.462  0.00  0.00    +0.000 OA
BRANCH  26  29
ATOM     29  C   UNL     1       3.462  14.866  19.569  0.00  0.00    +0.000 A 
ATOM     30  C   UNL     1       2.858  14.301  20.695  0.00  0.00    +0.000 A 
ATOM     31  C   UNL     1       2.093  13.140  20.560  0.00  0.00    +0.000 A 
ATOM     32  C   UNL     1       1.920  12.544  19.304  0.00  0.00    +0.000 A 
ATOM     33  C   UNL     1       1.132  11.275  19.157  0.00  0.00    +0.000 C 
ATOM     34  C   UNL     1       2.494  13.145  18.174  0.00  0.00    +0.000 A 
ATOM     35  C   UNL     1       3.259  14.308  18.302  0.00  0.00    +0.000 A 
ENDBRANCH  26  29
ENDBRANCH   3  26
TORSDOF 5
ENDMDL
