MODEL 1
REMARK VINA RESULT:      -7.4      0.000      0.000
REMARK  Name = 
REMARK  12 active torsions:
REMARK  status: ('A' for Active; 'I' for Inactive)
REMARK    1  A    between atoms: C_1  and  C_2
REMARK    2  A    between atoms: C_2  and  C_3
REMARK    3  A    between atoms: C_3  and  O_4
REMARK    4  A    between atoms: O_4  and  C_5
REMARK    5  A    between atoms: C_9  and  C_10
REMARK    6  A    between atoms: C_10  and  C_11
REMARK    7  A    between atoms: C_14  and  C_15
REMARK    8  A    between atoms: C_23  and  N_24
REMARK    9  A    between atoms: N_24  and  C_25
REMARK   10  A    between atoms: C_25  and  C_26
REMARK   11  A    between atoms: C_26  and  O_27
REMARK   12  A    between atoms: O_27  and  C_28
REMARK                            x       y       z     vdW  Elec       q    Type
REMARK                         _______ _______ _______ _____ _____    ______ ____
ROOT
ATOM      1  C   UNL     1       6.684   6.403  17.062  0.00  0.00    +0.000 A 
ATOM      2  C   UNL     1       6.749   4.969  16.798  0.00  0.00    +0.000 A 
ATOM      3  C   UNL     1       5.650   4.217  16.947  0.00  0.00    +0.000 A 
ATOM      4  N   UNL     1       4.444   4.796  17.338  0.00  0.00    +0.000 N 
ATOM      5  C   UNL     1       3.212   4.186  17.564  0.00  0.00    +0.000 A 
ATOM      6  C   UNL     1       2.318   5.211  17.824  0.00  0.00    +0.000 A 
ATOM      7  C   UNL     1       3.036   6.423  17.969  0.00  0.00    +0.000 A 
ATOM      8  C   UNL     1       4.336   6.168  17.590  0.00  0.00    +0.000 A 
ATOM      9  C   UNL     1       5.518   6.964  17.446  0.00  0.00    +0.000 A 
ENDROOT
BRANCH   7  10
ATOM     10  C   UNL     1       2.417   7.655  18.459  0.00  0.00    +0.000 A 
ATOM     11  N   UNL     1       2.233   8.721  17.607  0.00  0.00    +0.000 NA
ATOM     12  C   UNL     1       1.574   9.595  18.332  0.00  0.00    +0.000 A 
ATOM     13  C   UNL     1       1.093  10.893  17.950  0.00  0.00    +0.000 A 
ATOM     14  N   UNL     1       0.445  11.668  18.782  0.00  0.00    +0.000 NA
ATOM     15  C   UNL     1       0.235  11.187  20.063  0.00  0.00    +0.000 A 
ATOM     16  C   UNL     1       0.652   9.983  20.499  0.00  0.00    +0.000 A 
ATOM     17  N   UNL     1       1.335   9.162  19.613  0.00  0.00    +0.000 N 
ATOM     18  C   UNL     1       1.912   7.909  19.738  0.00  0.00    +0.000 A 
BRANCH  18  19
ATOM     19  N   UNL     1       1.894   7.222  20.917  0.00  0.00    +0.000 N 
ATOM     20  H   UNL     1       2.518   7.433  21.696  0.00  0.00    +0.000 HD
BRANCH  19  21
ATOM     21  C   UNL     1       1.176   5.958  21.083  0.00  0.00    +0.000 C 
BRANCH  21  22
ATOM     22  C   UNL     1       2.133   4.768  21.158  0.00  0.00    +0.000 C 
BRANCH  22  23
ATOM     23  O   UNL     1       1.442   3.565  20.811  0.00  0.00    +0.000 OA
ATOM     24  C   UNL     1       1.786   2.512  21.703  0.00  0.00    +0.000 C 
ENDBRANCH  22  23
ENDBRANCH  21  22
ENDBRANCH  19  21
ENDBRANCH  18  19
ENDBRANCH   7  10
BRANCH   5  25
ATOM     25  C   UNL     1       2.965   2.749  17.535  0.00  0.00    +0.000 C 
ATOM     26  C   UNL     1       3.651   1.870  18.555  0.00  0.00    +0.000 C 
ATOM     27  O   UNL     1       2.244   2.200  16.700  0.00  0.00    +0.000 OA
ENDBRANCH   5  25
BRANCH   1  28
ATOM     28  O   UNL     1       7.811   7.199  16.917  0.00  0.00    +0.000 OA
BRANCH  28  29
ATOM     29  C   UNL     1       8.285   7.889  18.074  0.00  0.00    +0.000 C 
BRANCH  29  31
ATOM     30  C   UNL     1       9.045  10.123  18.901  0.00  0.00    +0.000 C 
ATOM     31  C   UNL     1       8.229   9.393  17.846  0.00  0.00    +0.000 C 
ENDBRANCH  29  31
ENDBRANCH  28  29
ENDBRANCH   1  28
TORSDOF 9
ENDMDL
MODEL 2
REMARK VINA RESULT:      -7.4      2.513      6.993
REMARK  Name = 
REMARK  12 active torsions:
REMARK  status: ('A' for Active; 'I' for Inactive)
REMARK    1  A    between atoms: C_1  and  C_2
REMARK    2  A    between atoms: C_2  and  C_3
REMARK    3  A    between atoms: C_3  and  O_4
REMARK    4  A    between atoms: O_4  and  C_5
REMARK    5  A    between atoms: C_9  and  C_10
REMARK    6  A    between atoms: C_10  and  C_11
REMARK    7  A    between atoms: C_14  and  C_15
REMARK    8  A    between atoms: C_23  and  N_24
REMARK    9  A    between atoms: N_24  and  C_25
REMARK   10  A    between atoms: C_25  and  C_26
REMARK   11  A    between atoms: C_26  and  O_27
REMARK   12  A    between atoms: O_27  and  C_28
REMARK                            x       y       z     vdW  Elec       q    Type
REMARK                         _______ _______ _______ _____ _____    ______ ____
ROOT
ATOM      1  C   UNL     1       2.701   7.817  18.307  0.00  0.00    +0.000 A 
ATOM      2  C   UNL     1       2.054   7.271  19.496  0.00  0.00    +0.000 A 
ATOM      3  C   UNL     1       2.296   6.004  19.859  0.00  0.00    +0.000 A 
ATOM      4  N   UNL     1       3.169   5.210  19.117  0.00  0.00    +0.000 N 
ATOM      5  C   UNL     1       3.529   3.878  19.319  0.00  0.00    +0.000 A 
ATOM      6  C   UNL     1       4.504   3.597  18.377  0.00  0.00    +0.000 A 
ATOM      7  C   UNL     1       4.588   4.677  17.465  0.00  0.00    +0.000 A 
ATOM      8  C   UNL     1       3.817   5.697  17.977  0.00  0.00    +0.000 A 
ATOM      9  C   UNL     1       3.542   7.047  17.585  0.00  0.00    +0.000 A 
ENDROOT
BRANCH   7  10
ATOM     10  C   UNL     1       5.366   4.608  16.227  0.00  0.00    +0.000 A 
ATOM     11  N   UNL     1       4.967   3.771  15.208  0.00  0.00    +0.000 NA
ATOM     12  C   UNL     1       5.811   4.034  14.236  0.00  0.00    +0.000 A 
ATOM     13  C   UNL     1       5.859   3.467  12.918  0.00  0.00    +0.000 A 
ATOM     14  N   UNL     1       6.763   3.824  12.041  0.00  0.00    +0.000 NA
ATOM     15  C   UNL     1       7.686   4.778  12.433  0.00  0.00    +0.000 A 
ATOM     16  C   UNL     1       7.708   5.357  13.648  0.00  0.00    +0.000 A 
ATOM     17  N   UNL     1       6.745   4.981  14.575  0.00  0.00    +0.000 N 
ATOM     18  C   UNL     1       6.503   5.347  15.888  0.00  0.00    +0.000 A 
BRANCH  18  19
ATOM     19  N   UNL     1       7.297   6.243  16.545  0.00  0.00    +0.000 N 
ATOM     20  H   UNL     1       7.850   6.954  16.067  0.00  0.00    +0.000 HD
BRANCH  19  21
ATOM     21  C   UNL     1       7.640   6.103  17.960  0.00  0.00    +0.000 C 
BRANCH  21  22
ATOM     22  C   UNL     1       8.185   7.407  18.542  0.00  0.00    +0.000 C 
BRANCH  22  23
ATOM     23  O   UNL     1       7.997   8.473  17.608  0.00  0.00    +0.000 OA
ATOM     24  C   UNL     1       8.460   9.704  18.149  0.00  0.00    +0.000 C 
ENDBRANCH  22  23
ENDBRANCH  21  22
ENDBRANCH  19  21
ENDBRANCH  18  19
ENDBRANCH   7  10
BRANCH   5  25
ATOM     25  C   UNL     1       2.955   2.994  20.327  0.00  0.00    +0.000 C 
ATOM     26  C   UNL     1       1.473   2.700  20.281  0.00  0.00    +0.000 C 
ATOM     27  O   UNL     1       3.610   2.489  21.241  0.00  0.00    +0.000 OA
ENDBRANCH   5  25
BRANCH   1  28
ATOM     28  O   UNL     1       2.461   9.125  17.913  0.00  0.00    +0.000 OA
BRANCH  28  29
ATOM     29  C   UNL     1       1.129   9.623  18.050  0.00  0.00    +0.000 C 
BRANCH  29  31
ATOM     30  C   UNL     1       0.050  10.796  19.977  0.00  0.00    +0.000 C 
ATOM     31  C   UNL     1       1.127  10.882  18.907  0.00  0.00    +0.000 C 
ENDBRANCH  29  31
ENDBRANCH  28  29
ENDBRANCH   1  28
TORSDOF 9
ENDMDL
MODEL 3
REMARK VINA RESULT:      -6.9      2.649      6.785
REMARK  Name = 
REMARK  12 active torsions:
REMARK  status: ('A' for Active; 'I' for Inactive)
REMARK    1  A    between atoms: C_1  and  C_2
REMARK    2  A    between atoms: C_2  and  C_3
REMARK    3  A    between atoms: C_3  and  O_4
REMARK    4  A    between atoms: O_4  and  C_5
REMARK    5  A    between atoms: C_9  and  C_10
REMARK    6  A    between atoms: C_10  and  C_11
REMARK    7  A    between atoms: C_14  and  C_15
REMARK    8  A    between atoms: C_23  and  N_24
REMARK    9  A    between atoms: N_24  and  C_25
REMARK   10  A    between atoms: C_25  and  C_26
REMARK   11  A    between atoms: C_26  and  O_27
REMARK   12  A    between atoms: O_27  and  C_28
REMARK                            x       y       z     vdW  Elec       q    Type
REMARK                         _______ _______ _______ _____ _____    ______ ____
ROOT
ATOM      1  C   UNL     1       2.862   7.680  18.332  0.00  0.00    +0.000 A 
ATOM      2  C   UNL     1       2.249   7.141  19.542  0.00  0.00    +0.000 A 
ATOM      3  C   UNL     1       2.473   5.865  19.886  0.00  0.00    +0.000 A 
ATOM      4  N   UNL     1       3.295   5.056  19.104  0.00  0.00    +0.000 N 
ATOM      5  C   UNL     1       3.629   3.714  19.282  0.00  0.00    +0.000 A 
ATOM      6  C   UNL     1       4.558   3.416  18.299  0.00  0.00    +0.000 A 
ATOM      7  C   UNL     1       4.633   4.501  17.392  0.00  0.00    +0.000 A 
ATOM      8  C   UNL     1       3.909   5.536  17.942  0.00  0.00    +0.000 A 
ATOM      9  C   UNL     1       3.653   6.896  17.571  0.00  0.00    +0.000 A 
ENDROOT
BRANCH   7  10
ATOM     10  C   UNL     1       5.359   4.422  16.124  0.00  0.00    +0.000 A 
ATOM     11  N   UNL     1       4.796   3.772  15.047  0.00  0.00    +0.000 NA
ATOM     12  C   UNL     1       5.651   3.980  14.072  0.00  0.00    +0.000 A 
ATOM     13  C   UNL     1       5.570   3.548  12.705  0.00  0.00    +0.000 A 
ATOM     14  N   UNL     1       6.503   3.828  11.831  0.00  0.00    +0.000 NA
ATOM     15  C   UNL     1       7.586   4.566  12.274  0.00  0.00    +0.000 A 
ATOM     16  C   UNL     1       7.737   5.009  13.536  0.00  0.00    +0.000 A 
ATOM     17  N   UNL     1       6.744   4.714  14.461  0.00  0.00    +0.000 N 
ATOM     18  C   UNL     1       6.600   4.984  15.811  0.00  0.00    +0.000 A 
BRANCH  18  19
ATOM     19  N   UNL     1       7.553   5.661  16.517  0.00  0.00    +0.000 N 
ATOM     20  H   UNL     1       8.416   5.228  16.847  0.00  0.00    +0.000 HD
BRANCH  19  21
ATOM     21  C   UNL     1       7.315   6.983  17.097  0.00  0.00    +0.000 C 
BRANCH  21  22
ATOM     22  C   UNL     1       7.792   7.059  18.547  0.00  0.00    +0.000 C 
BRANCH  22  23
ATOM     23  O   UNL     1       7.317   5.925  19.277  0.00  0.00    +0.000 OA
ATOM     24  C   UNL     1       8.350   5.379  20.088  0.00  0.00    +0.000 C 
ENDBRANCH  22  23
ENDBRANCH  21  22
ENDBRANCH  19  21
ENDBRANCH  18  19
ENDBRANCH   7  10
BRANCH   5  25
ATOM     25  C   UNL     1       3.073   2.836  20.306  0.00  0.00    +0.000 C 
ATOM     26  C   UNL     1       1.604   2.487  20.249  0.00  0.00    +0.000 C 
ATOM     27  O   UNL     1       3.733   2.380  21.241  0.00  0.00    +0.000 OA
ENDBRANCH   5  25
BRANCH   1  28
ATOM     28  O   UNL     1       2.640   8.997  17.957  0.00  0.00    +0.000 OA
BRANCH  28  29
ATOM     29  C   UNL     1       1.284   9.439  17.867  0.00  0.00    +0.000 C 
BRANCH  29  31
ATOM     30  C   UNL     1       0.230  10.219  19.996  0.00  0.00    +0.000 C 
ATOM     31  C   UNL     1       1.059  10.629  18.790  0.00  0.00    +0.000 C 
ENDBRANCH  29  31
ENDBRANCH  28  29
ENDBRANCH   1  28
TORSDOF 9
ENDMDL
MODEL 4
REMARK VINA RESULT:      -6.8      3.067      7.500
REMARK  Name = 
REMARK  12 active torsions:
REMARK  status: ('A' for Active; 'I' for Inactive)
REMARK    1  A    between atoms: C_1  and  C_2
REMARK    2  A    between atoms: C_2  and  C_3
REMARK    3  A    between atoms: C_3  and  O_4
REMARK    4  A    between atoms: O_4  and  C_5
REMARK    5  A    between atoms: C_9  and  C_10
REMARK    6  A    between atoms: C_10  and  C_11
REMARK    7  A    between atoms: C_14  and  C_15
REMARK    8  A    between atoms: C_23  and  N_24
REMARK    9  A    between atoms: N_24  and  C_25
REMARK   10  A    between atoms: C_25  and  C_26
REMARK   11  A    between atoms: C_26  and  O_27
REMARK   12  A    between atoms: O_27  and  C_28
REMARK                            x       y       z     vdW  Elec       q    Type
REMARK                         _______ _______ _______ _____ _____    ______ ____
ROOT
ATOM      1  C   UNL     1      -1.285  10.324  17.674  0.00  0.00    +0.000 A 
ATOM      2  C   UNL     1      -1.906  11.046  18.781  0.00  0.00    +0.000 A 
ATOM      3  C   UNL     1      -1.405  10.920  20.017  0.00  0.00    +0.000 A 
ATOM      4  N   UNL     1      -0.290  10.117  20.251  0.00  0.00    +0.000 N 
ATOM      5  C   UNL     1       0.358   9.846  21.455  0.00  0.00    +0.000 A 
ATOM      6  C   UNL     1       1.469   9.085  21.130  0.00  0.00    +0.000 A 
ATOM      7  C   UNL     1       1.388   8.710  19.767  0.00  0.00    +0.000 A 
ATOM      8  C   UNL     1       0.341   9.416  19.217  0.00  0.00    +0.000 A 
ATOM      9  C   UNL     1      -0.210   9.541  17.900  0.00  0.00    +0.000 A 
ENDROOT
BRANCH   7  10
ATOM     10  C   UNL     1       2.289   7.728  19.162  0.00  0.00    +0.000 A 
ATOM     11  N   UNL     1       2.937   8.021  17.983  0.00  0.00    +0.000 NA
ATOM     12  C   UNL     1       3.723   6.986  17.790  0.00  0.00    +0.000 A 
ATOM     13  C   UNL     1       4.651   6.757  16.719  0.00  0.00    +0.000 A 
ATOM     14  N   UNL     1       5.378   5.671  16.649  0.00  0.00    +0.000 NA
ATOM     15  C   UNL     1       5.220   4.737  17.658  0.00  0.00    +0.000 A 
ATOM     16  C   UNL     1       4.374   4.877  18.696  0.00  0.00    +0.000 A 
ATOM     17  N   UNL     1       3.607   6.032  18.769  0.00  0.00    +0.000 N 
ATOM     18  C   UNL     1       2.645   6.472  19.662  0.00  0.00    +0.000 A 
BRANCH  18  19
ATOM     19  N   UNL     1       2.256   5.719  20.732  0.00  0.00    +0.000 N 
ATOM     20  H   UNL     1       2.755   5.713  21.622  0.00  0.00    +0.000 HD
BRANCH  19  21
ATOM     21  C   UNL     1       1.257   4.655  20.627  0.00  0.00    +0.000 C 
BRANCH  21  22
ATOM     22  C   UNL     1       1.807   3.311  21.105  0.00  0.00    +0.000 C 
BRANCH  22  23
ATOM     23  O   UNL     1       1.296   2.257  20.285  0.00  0.00    +0.000 OA
ATOM     24  C   UNL     1       1.550   2.521  18.910  0.00  0.00    +0.000 C 
ENDBRANCH  22  23
ENDBRANCH  21  22
ENDBRANCH  19  21
ENDBRANCH  18  19
ENDBRANCH   7  10
BRANCH   5  25
ATOM     25  C   UNL     1      -0.090  10.286  22.771  0.00  0.00    +0.000 C 
ATOM     26  C   UNL     1      -0.915  11.549  22.876  0.00  0.00    +0.000 C 
ATOM     27  O   UNL     1       0.191   9.698  23.817  0.00  0.00    +0.000 OA
ENDBRANCH   5  25
BRANCH   1  28
ATOM     28  O   UNL     1      -1.791  10.437  16.387  0.00  0.00    +0.000 OA
BRANCH  28  29
ATOM     29  C   UNL     1      -3.058  11.078  16.229  0.00  0.00    +0.000 C 
BRANCH  29  31
ATOM     30  C   UNL     1      -3.010   9.991  13.978  0.00  0.00    +0.000 C 
ATOM     31  C   UNL     1      -3.880  10.358  15.169  0.00  0.00    +0.000 C 
ENDBRANCH  29  31
ENDBRANCH  28  29
ENDBRANCH   1  28
TORSDOF 9
ENDMDL
MODEL 5
REMARK VINA RESULT:      -6.7      2.244      5.141
REMARK  Name = 
REMARK  12 active torsions:
REMARK  status: ('A' for Active; 'I' for Inactive)
REMARK    1  A    between atoms: C_1  and  C_2
REMARK    2  A    between atoms: C_2  and  C_3
REMARK    3  A    between atoms: C_3  and  O_4
REMARK    4  A    between atoms: O_4  and  C_5
REMARK    5  A    between atoms: C_9  and  C_10
REMARK    6  A    between atoms: C_10  and  C_11
REMARK    7  A    between atoms: C_14  and  C_15
REMARK    8  A    between atoms: C_23  and  N_24
REMARK    9  A    between atoms: N_24  and  C_25
REMARK   10  A    between atoms: C_25  and  C_26
REMARK   11  A    between atoms: C_26  and  O_27
REMARK   12  A    between atoms: O_27  and  C_28
REMARK                            x       y       z     vdW  Elec       q    Type
REMARK                         _______ _______ _______ _____ _____    ______ ____
ROOT
ATOM      1  C   UNL     1       2.617   4.813  20.464  0.00  0.00    +0.000 A 
ATOM      2  C   UNL     1       3.816   4.263  19.838  0.00  0.00    +0.000 A 
ATOM      3  C   UNL     1       4.413   4.935  18.844  0.00  0.00    +0.000 A 
ATOM      4  N   UNL     1       3.905   6.161  18.415  0.00  0.00    +0.000 N 
ATOM      5  C   UNL     1       4.367   6.991  17.395  0.00  0.00    +0.000 A 
ATOM      6  C   UNL     1       3.585   8.133  17.446  0.00  0.00    +0.000 A 
ATOM      7  C   UNL     1       2.513   7.917  18.346  0.00  0.00    +0.000 A 
ATOM      8  C   UNL     1       2.766   6.728  18.995  0.00  0.00    +0.000 A 
ATOM      9  C   UNL     1       2.122   5.996  20.045  0.00  0.00    +0.000 A 
ENDROOT
BRANCH   7  10
ATOM     10  C   UNL     1       1.385   8.842  18.469  0.00  0.00    +0.000 A 
ATOM     11  N   UNL     1       0.549   9.056  17.395  0.00  0.00    +0.000 NA
ATOM     12  C   UNL     1      -0.388   9.840  17.878  0.00  0.00    +0.000 A 
ATOM     13  C   UNL     1      -1.540  10.372  17.207  0.00  0.00    +0.000 A 
ATOM     14  N   UNL     1      -2.402  11.149  17.814  0.00  0.00    +0.000 NA
ATOM     15  C   UNL     1      -2.160  11.445  19.144  0.00  0.00    +0.000 A 
ATOM     16  C   UNL     1      -1.105  10.986  19.844  0.00  0.00    +0.000 A 
ATOM     17  N   UNL     1      -0.196  10.159  19.199  0.00  0.00    +0.000 N 
ATOM     18  C   UNL     1       0.980   9.551  19.603  0.00  0.00    +0.000 A 
BRANCH  18  19
ATOM     19  N   UNL     1       1.482   9.716  20.862  0.00  0.00    +0.000 N 
ATOM     20  H   UNL     1       2.254  10.348  21.077  0.00  0.00    +0.000 HD
BRANCH  19  21
ATOM     21  C   UNL     1       1.148   8.819  21.968  0.00  0.00    +0.000 C 
BRANCH  21  22
ATOM     22  C   UNL     1       0.512   9.572  23.137  0.00  0.00    +0.000 C 
BRANCH  22  23
ATOM     23  O   UNL     1      -0.903   9.658  22.948  0.00  0.00    +0.000 OA
ATOM     24  C   UNL     1      -1.368  10.974  23.222  0.00  0.00    +0.000 C 
ENDBRANCH  22  23
ENDBRANCH  21  22
ENDBRANCH  19  21
ENDBRANCH  18  19
ENDBRANCH   7  10
BRANCH   5  25
ATOM     25  C   UNL     1       5.453   6.672  16.475  0.00  0.00    +0.000 C 
ATOM     26  C   UNL     1       6.872   6.671  16.994  0.00  0.00    +0.000 C 
ATOM     27  O   UNL     1       5.281   6.429  15.279  0.00  0.00    +0.000 OA
ENDBRANCH   5  25
BRANCH   1  28
ATOM     28  O   UNL     1       1.983   4.131  21.491  0.00  0.00    +0.000 OA
BRANCH  28  29
ATOM     29  C   UNL     1       1.364   2.883  21.172  0.00  0.00    +0.000 C 
BRANCH  29  31
ATOM     30  C   UNL     1       0.966   2.188  18.803  0.00  0.00    +0.000 C 
ATOM     31  C   UNL     1       0.462   3.042  19.956  0.00  0.00    +0.000 C 
ENDBRANCH  29  31
ENDBRANCH  28  29
ENDBRANCH   1  28
TORSDOF 9
ENDMDL
MODEL 6
REMARK VINA RESULT:      -6.6      2.211      5.833
REMARK  Name = 
REMARK  12 active torsions:
REMARK  status: ('A' for Active; 'I' for Inactive)
REMARK    1  A    between atoms: C_1  and  C_2
REMARK    2  A    between atoms: C_2  and  C_3
REMARK    3  A    between atoms: C_3  and  O_4
REMARK    4  A    between atoms: O_4  and  C_5
REMARK    5  A    between atoms: C_9  and  C_10
REMARK    6  A    between atoms: C_10  and  C_11
REMARK    7  A    between atoms: C_14  and  C_15
REMARK    8  A    between atoms: C_23  and  N_24
REMARK    9  A    between atoms: N_24  and  C_25
REMARK   10  A    between atoms: C_25  and  C_26
REMARK   11  A    between atoms: C_26  and  O_27
REMARK   12  A    between atoms: O_27  and  C_28
REMARK                            x       y       z     vdW  Elec       q    Type
REMARK                         _______ _______ _______ _____ _____    ______ ____
ROOT
ATOM      1  C   UNL     1       1.776   3.629  18.090  0.00  0.00    +0.000 A 
ATOM      2  C   UNL     1       2.922   3.326  17.239  0.00  0.00    +0.000 A 
ATOM      3  C   UNL     1       3.823   4.283  16.977  0.00  0.00    +0.000 A 
ATOM      4  N   UNL     1       3.679   5.558  17.521  0.00  0.00    +0.000 N 
ATOM      5  C   UNL     1       4.489   6.680  17.351  0.00  0.00    +0.000 A 
ATOM      6  C   UNL     1       3.975   7.656  18.189  0.00  0.00    +0.000 A 
ATOM      7  C   UNL     1       2.734   7.210  18.706  0.00  0.00    +0.000 A 
ATOM      8  C   UNL     1       2.601   5.887  18.350  0.00  0.00    +0.000 A 
ATOM      9  C   UNL     1       1.633   4.864  18.612  0.00  0.00    +0.000 A 
ENDROOT
BRANCH   7  10
ATOM     10  C   UNL     1       1.828   8.086  19.451  0.00  0.00    +0.000 A 
ATOM     11  N   UNL     1       1.386   7.717  20.703  0.00  0.00    +0.000 NA
ATOM     12  C   UNL     1       0.695   8.756  21.112  0.00  0.00    +0.000 A 
ATOM     13  C   UNL     1       0.015   8.940  22.363  0.00  0.00    +0.000 A 
ATOM     14  N   UNL     1      -0.643  10.037  22.642  0.00  0.00    +0.000 NA
ATOM     15  C   UNL     1      -0.663  11.027  21.675  0.00  0.00    +0.000 A 
ATOM     16  C   UNL     1      -0.051  10.933  20.480  0.00  0.00    +0.000 A 
ATOM     17  N   UNL     1       0.650   9.770  20.189  0.00  0.00    +0.000 N 
ATOM     18  C   UNL     1       1.350   9.344  19.073  0.00  0.00    +0.000 A 
BRANCH  18  19
ATOM     19  N   UNL     1       1.450  10.110  17.948  0.00  0.00    +0.000 N 
ATOM     20  H   UNL     1       0.941   9.908  17.087  0.00  0.00    +0.000 HD
BRANCH  19  21
ATOM     21  C   UNL     1       2.487  11.128  17.776  0.00  0.00    +0.000 C 
BRANCH  21  22
ATOM     22  C   UNL     1       1.984  12.520  18.159  0.00  0.00    +0.000 C 
BRANCH  22  23
ATOM     23  O   UNL     1       3.079  13.440  18.195  0.00  0.00    +0.000 OA
ATOM     24  C   UNL     1       3.159  14.076  19.464  0.00  0.00    +0.000 C 
ENDBRANCH  22  23
ENDBRANCH  21  22
ENDBRANCH  19  21
ENDBRANCH  18  19
ENDBRANCH   7  10
BRANCH   5  25
ATOM     25  C   UNL     1       5.633   6.765  16.449  0.00  0.00    +0.000 C 
ATOM     26  C   UNL     1       7.015   6.934  17.037  0.00  0.00    +0.000 C 
ATOM     27  O   UNL     1       5.533   6.737  15.222  0.00  0.00    +0.000 OA
ENDBRANCH   5  25
BRANCH   1  28
ATOM     28  O   UNL     1       0.830   2.653  18.370  0.00  0.00    +0.000 OA
BRANCH  28  29
ATOM     29  C   UNL     1       0.494   2.434  19.741  0.00  0.00    +0.000 C 
BRANCH  29  31
ATOM     30  C   UNL     1       1.867   2.965  21.763  0.00  0.00    +0.000 C 
ATOM     31  C   UNL     1       1.743   2.076  20.535  0.00  0.00    +0.000 C 
ENDBRANCH  29  31
ENDBRANCH  28  29
ENDBRANCH   1  28
TORSDOF 9
ENDMDL
MODEL 7
REMARK VINA RESULT:      -6.5      1.828      2.585
REMARK  Name = 
REMARK  12 active torsions:
REMARK  status: ('A' for Active; 'I' for Inactive)
REMARK    1  A    between atoms: C_1  and  C_2
REMARK    2  A    between atoms: C_2  and  C_3
REMARK    3  A    between atoms: C_3  and  O_4
REMARK    4  A    between atoms: O_4  and  C_5
REMARK    5  A    between atoms: C_9  and  C_10
REMARK    6  A    between atoms: C_10  and  C_11
REMARK    7  A    between atoms: C_14  and  C_15
REMARK    8  A    between atoms: C_23  and  N_24
REMARK    9  A    between atoms: N_24  and  C_25
REMARK   10  A    between atoms: C_25  and  C_26
REMARK   11  A    between atoms: C_26  and  O_27
REMARK   12  A    between atoms: O_27  and  C_28
REMARK                            x       y       z     vdW  Elec       q    Type
REMARK                         _______ _______ _______ _____ _____    ______ ____
ROOT
ATOM      1  C   UNL     1       6.395   6.286  17.607  0.00  0.00    +0.000 A 
ATOM      2  C   UNL     1       6.248   4.837  17.512  0.00  0.00    +0.000 A 
ATOM      3  C   UNL     1       5.039   4.281  17.669  0.00  0.00    +0.000 A 
ATOM      4  N   UNL     1       3.920   5.078  17.907  0.00  0.00    +0.000 N 
ATOM      5  C   UNL     1       2.598   4.691  18.115  0.00  0.00    +0.000 A 
ATOM      6  C   UNL     1       1.863   5.862  18.195  0.00  0.00    +0.000 A 
ATOM      7  C   UNL     1       2.754   6.962  18.251  0.00  0.00    +0.000 A 
ATOM      8  C   UNL     1       4.015   6.471  17.994  0.00  0.00    +0.000 A 
ATOM      9  C   UNL     1       5.313   7.057  17.843  0.00  0.00    +0.000 A 
ENDROOT
BRANCH   7  10
ATOM     10  C   UNL     1       2.311   8.323  18.554  0.00  0.00    +0.000 A 
ATOM     11  N   UNL     1       2.597   9.352  17.683  0.00  0.00    +0.000 NA
ATOM     12  C   UNL     1       1.976  10.386  18.202  0.00  0.00    +0.000 A 
ATOM     13  C   UNL     1       1.909  11.730  17.703  0.00  0.00    +0.000 A 
ATOM     14  N   UNL     1       1.248  12.672  18.328  0.00  0.00    +0.000 NA
ATOM     15  C   UNL     1       0.607  12.323  19.503  0.00  0.00    +0.000 A 
ATOM     16  C   UNL     1       0.620  11.087  20.036  0.00  0.00    +0.000 A 
ATOM     17  N   UNL     1       1.318  10.089  19.369  0.00  0.00    +0.000 N 
ATOM     18  C   UNL     1       1.553   8.753  19.647  0.00  0.00    +0.000 A 
BRANCH  18  19
ATOM     19  N   UNL     1       1.073   8.156  20.777  0.00  0.00    +0.000 N 
ATOM     20  H   UNL     1       0.514   7.303  20.764  0.00  0.00    +0.000 HD
BRANCH  19  21
ATOM     21  C   UNL     1       1.085   8.817  22.083  0.00  0.00    +0.000 C 
BRANCH  21  22
ATOM     22  C   UNL     1      -0.327   8.976  22.649  0.00  0.00    +0.000 C 
BRANCH  22  23
ATOM     23  O   UNL     1      -0.374  10.103  23.529  0.00  0.00    +0.000 OA
ATOM     24  C   UNL     1      -1.347  11.042  23.092  0.00  0.00    +0.000 C 
ENDBRANCH  22  23
ENDBRANCH  21  22
ENDBRANCH  19  21
ENDBRANCH  18  19
ENDBRANCH   7  10
BRANCH   5  25
ATOM     25  C   UNL     1       2.130   3.314  18.232  0.00  0.00    +0.000 C 
ATOM     26  C   UNL     1       1.722   2.796  19.592  0.00  0.00    +0.000 C 
ATOM     27  O   UNL     1       2.075   2.532  17.282  0.00  0.00    +0.000 OA
ENDBRANCH   5  25
BRANCH   1  28
ATOM     28  O   UNL     1       7.639   6.880  17.451  0.00  0.00    +0.000 OA
BRANCH  28  29
ATOM     29  C   UNL     1       7.697   8.307  17.481  0.00  0.00    +0.000 C 
BRANCH  29  31
ATOM     30  C   UNL     1       9.034  10.229  18.361  0.00  0.00    +0.000 C 
ATOM     31  C   UNL     1       8.663   8.768  18.564  0.00  0.00    +0.000 C 
ENDBRANCH  29  31
ENDBRANCH  28  29
ENDBRANCH   1  28
TORSDOF 9
ENDMDL
MODEL 8
REMARK VINA RESULT:      -6.5      2.372      4.018
REMARK  Name = 
REMARK  12 active torsions:
REMARK  status: ('A' for Active; 'I' for Inactive)
REMARK    1  A    between atoms: C_1  and  C_2
REMARK    2  A    between atoms: C_2  and  C_3
REMARK    3  A    between atoms: C_3  and  O_4
REMARK    4  A    between atoms: O_4  and  C_5
REMARK    5  A    between atoms: C_9  and  C_10
REMARK    6  A    between atoms: C_10  and  C_11
REMARK    7  A    between atoms: C_14  and  C_15
REMARK    8  A    between atoms: C_23  and  N_24
REMARK    9  A    between atoms: N_24  and  C_25
REMARK   10  A    between atoms: C_25  and  C_26
REMARK   11  A    between atoms: C_26  and  O_27
REMARK   12  A    between atoms: O_27  and  C_28
REMARK                            x       y       z     vdW  Elec       q    Type
REMARK                         _______ _______ _______ _____ _____    ______ ____
ROOT
ATOM      1  C   UNL     1       4.743   5.315  16.897  0.00  0.00    +0.000 A 
ATOM      2  C   UNL     1       4.649   3.961  17.434  0.00  0.00    +0.000 A 
ATOM      3  C   UNL     1       3.839   3.716  18.473  0.00  0.00    +0.000 A 
ATOM      4  N   UNL     1       3.076   4.740  19.033  0.00  0.00    +0.000 N 
ATOM      5  C   UNL     1       2.201   4.688  20.116  0.00  0.00    +0.000 A 
ATOM      6  C   UNL     1       1.616   5.941  20.197  0.00  0.00    +0.000 A 
ATOM      7  C   UNL     1       2.284   6.819  19.309  0.00  0.00    +0.000 A 
ATOM      8  C   UNL     1       3.129   6.048  18.541  0.00  0.00    +0.000 A 
ATOM      9  C   UNL     1       4.010   6.308  17.442  0.00  0.00    +0.000 A 
ENDROOT
BRANCH   7  10
ATOM     10  C   UNL     1       2.057   8.265  19.306  0.00  0.00    +0.000 A 
ATOM     11  N   UNL     1       2.377   9.012  18.194  0.00  0.00    +0.000 NA
ATOM     12  C   UNL     1       1.955  10.219  18.493  0.00  0.00    +0.000 A 
ATOM     13  C   UNL     1       2.009  11.408  17.690  0.00  0.00    +0.000 A 
ATOM     14  N   UNL     1       1.547  12.557  18.117  0.00  0.00    +0.000 NA
ATOM     15  C   UNL     1       0.997  12.586  19.387  0.00  0.00    +0.000 A 
ATOM     16  C   UNL     1       0.908  11.517  20.200  0.00  0.00    +0.000 A 
ATOM     17  N   UNL     1       1.394  10.300  19.743  0.00  0.00    +0.000 N 
ATOM     18  C   UNL     1       1.483   9.043  20.317  0.00  0.00    +0.000 A 
BRANCH  18  19
ATOM     19  N   UNL     1       1.056   8.799  21.590  0.00  0.00    +0.000 N 
ATOM     20  H   UNL     1       1.681   8.510  22.343  0.00  0.00    +0.000 HD
BRANCH  19  21
ATOM     21  C   UNL     1      -0.360   8.668  21.936  0.00  0.00    +0.000 C 
BRANCH  21  22
ATOM     22  C   UNL     1      -0.700   9.417  23.224  0.00  0.00    +0.000 C 
BRANCH  22  23
ATOM     23  O   UNL     1      -0.273  10.778  23.123  0.00  0.00    +0.000 OA
ATOM     24  C   UNL     1      -1.393  11.653  23.058  0.00  0.00    +0.000 C 
ENDBRANCH  22  23
ENDBRANCH  21  22
ENDBRANCH  19  21
ENDBRANCH  18  19
ENDBRANCH   7  10
BRANCH   5  25
ATOM     25  C   UNL     1       1.986   3.527  20.972  0.00  0.00    +0.000 C 
ATOM     26  C   UNL     1       1.137   2.388  20.456  0.00  0.00    +0.000 C 
ATOM     27  O   UNL     1       2.439   3.431  22.114  0.00  0.00    +0.000 OA
ENDBRANCH   5  25
BRANCH   1  28
ATOM     28  O   UNL     1       5.580   5.591  15.825  0.00  0.00    +0.000 OA
BRANCH  28  29
ATOM     29  C   UNL     1       6.223   4.486  15.188  0.00  0.00    +0.000 C 
BRANCH  29  31
ATOM     30  C   UNL     1       6.457   3.757  12.807  0.00  0.00    +0.000 C 
ATOM     31  C   UNL     1       5.477   4.107  13.917  0.00  0.00    +0.000 C 
ENDBRANCH  29  31
ENDBRANCH  28  29
ENDBRANCH   1  28
TORSDOF 9
ENDMDL
MODEL 9
REMARK VINA RESULT:      -6.5      3.471      7.789
REMARK  Name = 
REMARK  12 active torsions:
REMARK  status: ('A' for Active; 'I' for Inactive)
REMARK    1  A    between atoms: C_1  and  C_2
REMARK    2  A    between atoms: C_2  and  C_3
REMARK    3  A    between atoms: C_3  and  O_4
REMARK    4  A    between atoms: O_4  and  C_5
REMARK    5  A    between atoms: C_9  and  C_10
REMARK    6  A    between atoms: C_10  and  C_11
REMARK    7  A    between atoms: C_14  and  C_15
REMARK    8  A    between atoms: C_23  and  N_24
REMARK    9  A    between atoms: N_24  and  C_25
REMARK   10  A    between atoms: C_25  and  C_26
REMARK   11  A    between atoms: C_26  and  O_27
REMARK   12  A    between atoms: O_27  and  C_28
REMARK                            x       y       z     vdW  Elec       q    Type
REMARK                         _______ _______ _______ _____ _____    ______ ____
ROOT
ATOM      1  C   UNL     1      -2.194  10.121  17.359  0.00  0.00    +0.000 A 
ATOM      2  C   UNL     1      -2.725  11.102  18.300  0.00  0.00    +0.000 A 
ATOM      3  C   UNL     1      -2.014  11.431  19.387  0.00  0.00    +0.000 A 
ATOM      4  N   UNL     1      -0.766  10.854  19.617  0.00  0.00    +0.000 N 
ATOM      5  C   UNL     1       0.106  11.049  20.687  0.00  0.00    +0.000 A 
ATOM      6  C   UNL     1       1.250  10.330  20.386  0.00  0.00    +0.000 A 
ATOM      7  C   UNL     1       1.003   9.527  19.245  0.00  0.00    +0.000 A 
ATOM      8  C   UNL     1      -0.216   9.917  18.735  0.00  0.00    +0.000 A 
ATOM      9  C   UNL     1      -0.989   9.557  17.584  0.00  0.00    +0.000 A 
ENDROOT
BRANCH   7  10
ATOM     10  C   UNL     1       1.930   8.490  18.792  0.00  0.00    +0.000 A 
ATOM     11  N   UNL     1       2.586   8.628  17.589  0.00  0.00    +0.000 NA
ATOM     12  C   UNL     1       3.395   7.594  17.550  0.00  0.00    +0.000 A 
ATOM     13  C   UNL     1       4.339   7.236  16.529  0.00  0.00    +0.000 A 
ATOM     14  N   UNL     1       5.089   6.167  16.619  0.00  0.00    +0.000 NA
ATOM     15  C   UNL     1       4.939   5.381  17.749  0.00  0.00    +0.000 A 
ATOM     16  C   UNL     1       4.080   5.648  18.750  0.00  0.00    +0.000 A 
ATOM     17  N   UNL     1       3.288   6.785  18.653  0.00  0.00    +0.000 N 
ATOM     18  C   UNL     1       2.307   7.325  19.467  0.00  0.00    +0.000 A 
BRANCH  18  19
ATOM     19  N   UNL     1       1.922   6.722  20.630  0.00  0.00    +0.000 N 
ATOM     20  H   UNL     1       2.224   7.041  21.551  0.00  0.00    +0.000 HD
BRANCH  19  21
ATOM     21  C   UNL     1       1.266   5.414  20.661  0.00  0.00    +0.000 C 
BRANCH  21  22
ATOM     22  C   UNL     1       2.133   4.362  21.353  0.00  0.00    +0.000 C 
BRANCH  22  23
ATOM     23  O   UNL     1       1.483   3.089  21.307  0.00  0.00    +0.000 OA
ATOM     24  C   UNL     1       0.948   2.844  20.012  0.00  0.00    +0.000 C 
ENDBRANCH  22  23
ENDBRANCH  21  22
ENDBRANCH  19  21
ENDBRANCH  18  19
ENDBRANCH   7  10
BRANCH   5  25
ATOM     25  C   UNL     1      -0.181  11.849  21.872  0.00  0.00    +0.000 C 
ATOM     26  C   UNL     1      -1.061  11.263  22.953  0.00  0.00    +0.000 C 
ATOM     27  O   UNL     1       0.235  12.998  22.034  0.00  0.00    +0.000 OA
ENDBRANCH   5  25
BRANCH   1  28
ATOM     28  O   UNL     1      -2.916   9.764  16.230  0.00  0.00    +0.000 OA
BRANCH  28  29
ATOM     29  C   UNL     1      -2.923  10.680  15.134  0.00  0.00    +0.000 C 
BRANCH  29  31
ATOM     30  C   UNL     1      -4.421   9.677  13.401  0.00  0.00    +0.000 C 
ATOM     31  C   UNL     1      -2.979   9.919  13.816  0.00  0.00    +0.000 C 
ENDBRANCH  29  31
ENDBRANCH  28  29
ENDBRANCH   1  28
TORSDOF 9
ENDMDL
