MODEL 1
REMARK VINA RESULT:      -8.2      0.000      0.000
REMARK  Name = 
REMARK  5 active torsions:
REMARK  status: ('A' for Active; 'I' for Inactive)
REMARK    1  A    between atoms: C_1  and  C_2
REMARK    2  A    between atoms: C_5  and  N_6
REMARK    3  A    between atoms: C_7  and  C_9
REMARK    4  A    between atoms: C_17  and  S_18
REMARK    5  A    between atoms: S_18  and  N_21
REMARK                            x       y       z     vdW  Elec       q    Type
REMARK                         _______ _______ _______ _____ _____    ______ ____
ROOT
ATOM      1  C   UNL     1       0.130   9.166  22.002  0.00  0.00    +0.000 C 
ATOM      2  C   UNL     1       0.890   8.575  20.848  0.00  0.00    +0.000 A 
ATOM      3  C   UNL     1       1.242   7.222  20.965  0.00  0.00    +0.000 A 
ATOM      4  C   UNL     1       2.012   6.584  19.995  0.00  0.00    +0.000 A 
ATOM      5  C   UNL     1       2.458   7.272  18.870  0.00  0.00    +0.000 A 
ATOM      6  C   UNL     1       2.055   8.600  18.694  0.00  0.00    +0.000 A 
ATOM      7  C   UNL     1       1.314   9.271  19.695  0.00  0.00    +0.000 A 
ENDROOT
BRANCH   5   8
ATOM      8  N   UNL     1       3.330   6.689  17.919  0.00  0.00    +0.000 N 
ATOM      9  C   UNL     1       4.402   5.864  18.232  0.00  0.00    +0.000 C 
ATOM     10  O   UNL     1       4.723   5.528  19.372  0.00  0.00    +0.000 OA
ATOM     11  H   UNL     1       3.243   7.003  16.957  0.00  0.00    +0.000 HD
BRANCH   9  12
ATOM     12  C   UNL     1       5.274   5.381  17.126  0.00  0.00    +0.000 A 
ATOM     13  C   UNL     1       4.817   4.290  16.362  0.00  0.00    +0.000 A 
ATOM     14  C   UNL     1       5.580   3.780  15.311  0.00  0.00    +0.000 A 
ATOM     15  C   UNL     1       6.811   4.356  15.006  0.00  0.00    +0.000 A 
ATOM     16  C   UNL     1       7.278   5.434  15.761  0.00  0.00    +0.000 A 
ATOM     17  C   UNL     1       6.513   5.936  16.816  0.00  0.00    +0.000 A 
ATOM     18  F   UNL     1       7.009   6.960  17.528  0.00  0.00    +0.000 F 
ENDBRANCH   9  12
ENDBRANCH   5   8
BRANCH   7  19
ATOM     19  S   UNL     1       0.890  10.992  19.370  0.00  0.00    +0.000 S 
ATOM     20  O   UNL     1       0.907  11.680  20.647  0.00  0.00    +0.000 OA
ATOM     21  O   UNL     1       1.702  11.481  18.278  0.00  0.00    +0.000 OA
BRANCH  19  22
ATOM     22  N   UNL     1      -0.731  10.925  18.825  0.00  0.00    +0.000 NA
ATOM     23  C   UNL     1      -1.525  12.162  18.910  0.00  0.00    +0.000 C 
ATOM     24  C   UNL     1      -3.010  11.936  19.169  0.00  0.00    +0.000 C 
ATOM     25  C   UNL     1      -3.813  11.633  17.912  0.00  0.00    +0.000 C 
ATOM     26  C   UNL     1      -3.545  10.242  17.368  0.00  0.00    +0.000 C 
ATOM     27  C   UNL     1      -2.125  10.092  16.839  0.00  0.00    +0.000 C 
ATOM     28  C   UNL     1      -1.080   9.820  17.910  0.00  0.00    +0.000 C 
ENDBRANCH  19  22
ENDBRANCH   7  19
TORSDOF 4
ENDMDL
MODEL 2
REMARK VINA RESULT:      -8.1      4.960      7.525
REMARK  Name = 
REMARK  5 active torsions:
REMARK  status: ('A' for Active; 'I' for Inactive)
REMARK    1  A    between atoms: C_1  and  C_2
REMARK    2  A    between atoms: C_5  and  N_6
REMARK    3  A    between atoms: C_7  and  C_9
REMARK    4  A    between atoms: C_17  and  S_18
REMARK    5  A    between atoms: S_18  and  N_21
REMARK                            x       y       z     vdW  Elec       q    Type
REMARK                         _______ _______ _______ _____ _____    ______ ____
ROOT
ATOM      1  C   UNL     1       6.041   4.229  19.117  0.00  0.00    +0.000 C 
ATOM      2  C   UNL     1       6.664   5.509  18.636  0.00  0.00    +0.000 A 
ATOM      3  C   UNL     1       7.845   5.905  19.283  0.00  0.00    +0.000 A 
ATOM      4  C   UNL     1       8.473   7.110  18.976  0.00  0.00    +0.000 A 
ATOM      5  C   UNL     1       7.948   7.965  18.011  0.00  0.00    +0.000 A 
ATOM      6  C   UNL     1       6.815   7.555  17.299  0.00  0.00    +0.000 A 
ATOM      7  C   UNL     1       6.142   6.357  17.635  0.00  0.00    +0.000 A 
ENDROOT
BRANCH   5   8
ATOM      8  N   UNL     1       8.497   9.244  17.750  0.00  0.00    +0.000 N 
ATOM      9  C   UNL     1       9.021  10.091  18.716  0.00  0.00    +0.000 C 
ATOM     10  O   UNL     1       9.083   9.835  19.919  0.00  0.00    +0.000 OA
ATOM     11  H   UNL     1       8.376   9.616  16.812  0.00  0.00    +0.000 HD
BRANCH   9  12
ATOM     12  C   UNL     1       9.499  11.437  18.298  0.00  0.00    +0.000 A 
ATOM     13  C   UNL     1       8.533  12.377  17.891  0.00  0.00    +0.000 A 
ATOM     14  C   UNL     1       8.904  13.658  17.482  0.00  0.00    +0.000 A 
ATOM     15  C   UNL     1      10.249  14.020  17.478  0.00  0.00    +0.000 A 
ATOM     16  C   UNL     1      11.218  13.096  17.874  0.00  0.00    +0.000 A 
ATOM     17  C   UNL     1      10.840  11.813  18.276  0.00  0.00    +0.000 A 
ATOM     18  F   UNL     1      11.805  10.949  18.628  0.00  0.00    +0.000 F 
ENDBRANCH   9  12
ENDBRANCH   5   8
BRANCH   7  19
ATOM     19  S   UNL     1       4.672   5.958  16.673  0.00  0.00    +0.000 S 
ATOM     20  O   UNL     1       4.155   7.210  16.154  0.00  0.00    +0.000 OA
ATOM     21  O   UNL     1       4.979   4.874  15.767  0.00  0.00    +0.000 OA
BRANCH  19  22
ATOM     22  N   UNL     1       3.563   5.368  17.835  0.00  0.00    +0.000 NA
ATOM     23  C   UNL     1       3.042   6.329  18.822  0.00  0.00    +0.000 C 
ATOM     24  C   UNL     1       2.739   5.722  20.187  0.00  0.00    +0.000 C 
ATOM     25  C   UNL     1       1.373   5.055  20.273  0.00  0.00    +0.000 C 
ATOM     26  C   UNL     1       1.314   3.743  19.512  0.00  0.00    +0.000 C 
ATOM     27  C   UNL     1       1.438   3.941  18.007  0.00  0.00    +0.000 C 
ATOM     28  C   UNL     1       2.865   4.108  17.509  0.00  0.00    +0.000 C 
ENDBRANCH  19  22
ENDBRANCH   7  19
TORSDOF 4
ENDMDL
MODEL 3
REMARK VINA RESULT:      -8.1      5.090      7.869
REMARK  Name = 
REMARK  5 active torsions:
REMARK  status: ('A' for Active; 'I' for Inactive)
REMARK    1  A    between atoms: C_1  and  C_2
REMARK    2  A    between atoms: C_5  and  N_6
REMARK    3  A    between atoms: C_7  and  C_9
REMARK    4  A    between atoms: C_17  and  S_18
REMARK    5  A    between atoms: S_18  and  N_21
REMARK                            x       y       z     vdW  Elec       q    Type
REMARK                         _______ _______ _______ _____ _____    ______ ____
ROOT
ATOM      1  C   UNL     1       6.466   4.371  18.832  0.00  0.00    +0.000 C 
ATOM      2  C   UNL     1       6.999   5.711  18.407  0.00  0.00    +0.000 A 
ATOM      3  C   UNL     1       8.033   6.244  19.192  0.00  0.00    +0.000 A 
ATOM      4  C   UNL     1       8.557   7.510  18.942  0.00  0.00    +0.000 A 
ATOM      5  C   UNL     1       8.070   8.293  17.899  0.00  0.00    +0.000 A 
ATOM      6  C   UNL     1       7.093   7.751  17.056  0.00  0.00    +0.000 A 
ATOM      7  C   UNL     1       6.521   6.486  17.329  0.00  0.00    +0.000 A 
ENDROOT
BRANCH   5   8
ATOM      8  N   UNL     1       8.500   9.624  17.682  0.00  0.00    +0.000 N 
ATOM      9  C   UNL     1       9.084  10.432  18.648  0.00  0.00    +0.000 C 
ATOM     10  O   UNL     1       9.309  10.092  19.810  0.00  0.00    +0.000 OA
ATOM     11  H   UNL     1       8.243  10.055  16.799  0.00  0.00    +0.000 HD
BRANCH   9  12
ATOM     12  C   UNL     1       9.422  11.837  18.290  0.00  0.00    +0.000 A 
ATOM     13  C   UNL     1       8.424  12.815  18.466  0.00  0.00    +0.000 A 
ATOM     14  C   UNL     1       8.665  14.152  18.150  0.00  0.00    +0.000 A 
ATOM     15  C   UNL     1       9.910  14.533  17.656  0.00  0.00    +0.000 A 
ATOM     16  C   UNL     1      10.906  13.572  17.472  0.00  0.00    +0.000 A 
ATOM     17  C   UNL     1      10.657  12.234  17.784  0.00  0.00    +0.000 A 
ATOM     18  F   UNL     1      11.635  11.340  17.571  0.00  0.00    +0.000 F 
ENDBRANCH   9  12
ENDBRANCH   5   8
BRANCH   7  19
ATOM     19  S   UNL     1       5.243   5.915  16.194  0.00  0.00    +0.000 S 
ATOM     20  O   UNL     1       4.871   7.050  15.371  0.00  0.00    +0.000 OA
ATOM     21  O   UNL     1       5.678   4.685  15.571  0.00  0.00    +0.000 OA
BRANCH  19  22
ATOM     22  N   UNL     1       3.919   5.543  17.213  0.00  0.00    +0.000 NA
ATOM     23  C   UNL     1       3.513   4.130  17.304  0.00  0.00    +0.000 C 
ATOM     24  C   UNL     1       2.019   3.922  17.527  0.00  0.00    +0.000 C 
ATOM     25  C   UNL     1       1.595   4.027  18.985  0.00  0.00    +0.000 C 
ATOM     26  C   UNL     1       1.622   5.455  19.500  0.00  0.00    +0.000 C 
ATOM     27  C   UNL     1       3.036   6.015  19.576  0.00  0.00    +0.000 C 
ATOM     28  C   UNL     1       3.579   6.535  18.253  0.00  0.00    +0.000 C 
ENDBRANCH  19  22
ENDBRANCH   7  19
TORSDOF 4
ENDMDL
MODEL 4
REMARK VINA RESULT:      -8.0      0.188      1.188
REMARK  Name = 
REMARK  5 active torsions:
REMARK  status: ('A' for Active; 'I' for Inactive)
REMARK    1  A    between atoms: C_1  and  C_2
REMARK    2  A    between atoms: C_5  and  N_6
REMARK    3  A    between atoms: C_7  and  C_9
REMARK    4  A    between atoms: C_17  and  S_18
REMARK    5  A    between atoms: S_18  and  N_21
REMARK                            x       y       z     vdW  Elec       q    Type
REMARK                         _______ _______ _______ _____ _____    ______ ____
ROOT
ATOM      1  C   UNL     1       0.247   9.388  21.912  0.00  0.00    +0.000 C 
ATOM      2  C   UNL     1       0.969   8.736  20.767  0.00  0.00    +0.000 A 
ATOM      3  C   UNL     1       1.262   7.372  20.915  0.00  0.00    +0.000 A 
ATOM      4  C   UNL     1       1.993   6.677  19.954  0.00  0.00    +0.000 A 
ATOM      5  C   UNL     1       2.459   7.316  18.808  0.00  0.00    +0.000 A 
ATOM      6  C   UNL     1       2.113   8.656  18.603  0.00  0.00    +0.000 A 
ATOM      7  C   UNL     1       1.412   9.384  19.594  0.00  0.00    +0.000 A 
ENDROOT
BRANCH   5   8
ATOM      8  N   UNL     1       3.295   6.671  17.865  0.00  0.00    +0.000 N 
ATOM      9  C   UNL     1       4.414   5.915  18.188  0.00  0.00    +0.000 C 
ATOM     10  O   UNL     1       4.813   5.702  19.333  0.00  0.00    +0.000 OA
ATOM     11  H   UNL     1       3.140   6.888  16.885  0.00  0.00    +0.000 HD
BRANCH   9  12
ATOM     12  C   UNL     1       5.237   5.355  17.081  0.00  0.00    +0.000 A 
ATOM     13  C   UNL     1       4.751   4.212  16.418  0.00  0.00    +0.000 A 
ATOM     14  C   UNL     1       5.468   3.629  15.373  0.00  0.00    +0.000 A 
ATOM     15  C   UNL     1       6.681   4.183  14.972  0.00  0.00    +0.000 A 
ATOM     16  C   UNL     1       7.177   5.313  15.626  0.00  0.00    +0.000 A 
ATOM     17  C   UNL     1       6.458   5.889  16.675  0.00  0.00    +0.000 A 
ATOM     18  F   UNL     1       6.981   6.961  17.290  0.00  0.00    +0.000 F 
ENDBRANCH   9  12
ENDBRANCH   5   8
BRANCH   7  19
ATOM     19  S   UNL     1       1.062  11.113  19.229  0.00  0.00    +0.000 S 
ATOM     20  O   UNL     1       1.041  11.817  20.497  0.00  0.00    +0.000 OA
ATOM     21  O   UNL     1       1.941  11.561  18.171  0.00  0.00    +0.000 OA
BRANCH  19  22
ATOM     22  N   UNL     1      -0.532  11.092  18.608  0.00  0.00    +0.000 NA
ATOM     23  C   UNL     1      -1.047   9.804  18.112  0.00  0.00    +0.000 C 
ATOM     24  C   UNL     1      -2.026   9.927  16.950  0.00  0.00    +0.000 C 
ATOM     25  C   UNL     1      -3.458  10.213  17.382  0.00  0.00    +0.000 C 
ATOM     26  C   UNL     1      -3.646  11.633  17.883  0.00  0.00    +0.000 C 
ATOM     27  C   UNL     1      -2.901  11.889  19.187  0.00  0.00    +0.000 C 
ATOM     28  C   UNL     1      -1.421  12.197  19.017  0.00  0.00    +0.000 C 
ENDBRANCH  19  22
ENDBRANCH   7  19
TORSDOF 4
ENDMDL
MODEL 5
REMARK VINA RESULT:      -8.0      2.778      3.993
REMARK  Name = 
REMARK  5 active torsions:
REMARK  status: ('A' for Active; 'I' for Inactive)
REMARK    1  A    between atoms: C_1  and  C_2
REMARK    2  A    between atoms: C_5  and  N_6
REMARK    3  A    between atoms: C_7  and  C_9
REMARK    4  A    between atoms: C_17  and  S_18
REMARK    5  A    between atoms: S_18  and  N_21
REMARK                            x       y       z     vdW  Elec       q    Type
REMARK                         _______ _______ _______ _____ _____    ______ ____
ROOT
ATOM      1  C   UNL     1      -0.864  11.530  22.706  0.00  0.00    +0.000 C 
ATOM      2  C   UNL     1      -0.182  10.507  21.840  0.00  0.00    +0.000 A 
ATOM      3  C   UNL     1       0.550   9.516  22.510  0.00  0.00    +0.000 A 
ATOM      4  C   UNL     1       1.286   8.559  21.815  0.00  0.00    +0.000 A 
ATOM      5  C   UNL     1       1.317   8.554  20.423  0.00  0.00    +0.000 A 
ATOM      6  C   UNL     1       0.533   9.485  19.732  0.00  0.00    +0.000 A 
ATOM      7  C   UNL     1      -0.180  10.491  20.429  0.00  0.00    +0.000 A 
ENDROOT
BRANCH   5   8
ATOM      8  N   UNL     1       2.137   7.668  19.684  0.00  0.00    +0.000 N 
ATOM      9  C   UNL     1       2.138   6.287  19.829  0.00  0.00    +0.000 C 
ATOM     10  O   UNL     1       1.420   5.660  20.608  0.00  0.00    +0.000 OA
ATOM     11  H   UNL     1       2.865   8.081  19.108  0.00  0.00    +0.000 HD
BRANCH   9  12
ATOM     12  C   UNL     1       3.108   5.489  19.031  0.00  0.00    +0.000 A 
ATOM     13  C   UNL     1       4.454   5.491  19.445  0.00  0.00    +0.000 A 
ATOM     14  C   UNL     1       5.422   4.769  18.747  0.00  0.00    +0.000 A 
ATOM     15  C   UNL     1       5.058   4.031  17.623  0.00  0.00    +0.000 A 
ATOM     16  C   UNL     1       3.728   4.026  17.198  0.00  0.00    +0.000 A 
ATOM     17  C   UNL     1       2.764   4.755  17.898  0.00  0.00    +0.000 A 
ATOM     18  F   UNL     1       1.502   4.740  17.442  0.00  0.00    +0.000 F 
ENDBRANCH   9  12
ENDBRANCH   5   8
BRANCH   7  19
ATOM     19  S   UNL     1      -1.119  11.656  19.426  0.00  0.00    +0.000 S 
ATOM     20  O   UNL     1      -1.183  11.105  18.086  0.00  0.00    +0.000 OA
ATOM     21  O   UNL     1      -2.339  12.002  20.122  0.00  0.00    +0.000 OA
BRANCH  19  22
ATOM     22  N   UNL     1      -0.132  13.053  19.379  0.00  0.00    +0.000 NA
ATOM     23  C   UNL     1       1.139  12.958  18.642  0.00  0.00    +0.000 C 
ATOM     24  C   UNL     1       2.261  13.818  19.215  0.00  0.00    +0.000 C 
ATOM     25  C   UNL     1       2.222  15.267  18.750  0.00  0.00    +0.000 C 
ATOM     26  C   UNL     1       1.092  16.055  19.387  0.00  0.00    +0.000 C 
ATOM     27  C   UNL     1      -0.279  15.575  18.928  0.00  0.00    +0.000 C 
ATOM     28  C   UNL     1      -0.792  14.344  19.661  0.00  0.00    +0.000 C 
ENDBRANCH  19  22
ENDBRANCH   7  19
TORSDOF 4
ENDMDL
MODEL 6
REMARK VINA RESULT:      -8.0      4.888      7.543
REMARK  Name = 
REMARK  5 active torsions:
REMARK  status: ('A' for Active; 'I' for Inactive)
REMARK    1  A    between atoms: C_1  and  C_2
REMARK    2  A    between atoms: C_5  and  N_6
REMARK    3  A    between atoms: C_7  and  C_9
REMARK    4  A    between atoms: C_17  and  S_18
REMARK    5  A    between atoms: S_18  and  N_21
REMARK                            x       y       z     vdW  Elec       q    Type
REMARK                         _______ _______ _______ _____ _____    ______ ____
ROOT
ATOM      1  C   UNL     1       6.031   4.263  18.991  0.00  0.00    +0.000 C 
ATOM      2  C   UNL     1       6.656   5.557  18.550  0.00  0.00    +0.000 A 
ATOM      3  C   UNL     1       7.849   5.921  19.194  0.00  0.00    +0.000 A 
ATOM      4  C   UNL     1       8.481   7.132  18.924  0.00  0.00    +0.000 A 
ATOM      5  C   UNL     1       7.947   8.028  18.000  0.00  0.00    +0.000 A 
ATOM      6  C   UNL     1       6.801   7.652  17.291  0.00  0.00    +0.000 A 
ATOM      7  C   UNL     1       6.125   6.446  17.591  0.00  0.00    +0.000 A 
ENDROOT
BRANCH   5   8
ATOM      8  N   UNL     1       8.500   9.312  17.780  0.00  0.00    +0.000 N 
ATOM      9  C   UNL     1       9.038  10.121  18.771  0.00  0.00    +0.000 C 
ATOM     10  O   UNL     1       9.111   9.821  19.963  0.00  0.00    +0.000 OA
ATOM     11  H   UNL     1       8.373   9.718  16.858  0.00  0.00    +0.000 HD
BRANCH   9  12
ATOM     12  C   UNL     1       9.520  11.479  18.397  0.00  0.00    +0.000 A 
ATOM     13  C   UNL     1      10.803  11.861  18.834  0.00  0.00    +0.000 A 
ATOM     14  C   UNL     1      11.322  13.119  18.525  0.00  0.00    +0.000 A 
ATOM     15  C   UNL     1      10.566  14.013  17.771  0.00  0.00    +0.000 A 
ATOM     16  C   UNL     1       9.290  13.648  17.337  0.00  0.00    +0.000 A 
ATOM     17  C   UNL     1       8.773  12.390  17.654  0.00  0.00    +0.000 A 
ATOM     18  F   UNL     1       7.534  12.088  17.235  0.00  0.00    +0.000 F 
ENDBRANCH   9  12
ENDBRANCH   5   8
BRANCH   7  19
ATOM     19  S   UNL     1       4.637   6.094  16.637  0.00  0.00    +0.000 S 
ATOM     20  O   UNL     1       4.111   7.369  16.190  0.00  0.00    +0.000 OA
ATOM     21  O   UNL     1       4.928   5.056  15.672  0.00  0.00    +0.000 OA
BRANCH  19  22
ATOM     22  N   UNL     1       3.550   5.445  17.788  0.00  0.00    +0.000 NA
ATOM     23  C   UNL     1       3.036   6.359  18.823  0.00  0.00    +0.000 C 
ATOM     24  C   UNL     1       2.757   5.691  20.165  0.00  0.00    +0.000 C 
ATOM     25  C   UNL     1       1.398   5.010  20.241  0.00  0.00    +0.000 C 
ATOM     26  C   UNL     1       1.337   3.732  19.426  0.00  0.00    +0.000 C 
ATOM     27  C   UNL     1       1.438   3.995  17.929  0.00  0.00    +0.000 C 
ATOM     28  C   UNL     1       2.857   4.195  17.418  0.00  0.00    +0.000 C 
ENDBRANCH  19  22
ENDBRANCH   7  19
TORSDOF 4
ENDMDL
MODEL 7
REMARK VINA RESULT:      -7.9      1.382      1.628
REMARK  Name = 
REMARK  5 active torsions:
REMARK  status: ('A' for Active; 'I' for Inactive)
REMARK    1  A    between atoms: C_1  and  C_2
REMARK    2  A    between atoms: C_5  and  N_6
REMARK    3  A    between atoms: C_7  and  C_9
REMARK    4  A    between atoms: C_17  and  S_18
REMARK    5  A    between atoms: S_18  and  N_21
REMARK                            x       y       z     vdW  Elec       q    Type
REMARK                         _______ _______ _______ _____ _____    ______ ____
ROOT
ATOM      1  C   UNL     1      -0.344   9.655  22.255  0.00  0.00    +0.000 C 
ATOM      2  C   UNL     1       0.495   9.024  21.179  0.00  0.00    +0.000 A 
ATOM      3  C   UNL     1       0.900   7.700  21.406  0.00  0.00    +0.000 A 
ATOM      4  C   UNL     1       1.741   7.034  20.517  0.00  0.00    +0.000 A 
ATOM      5  C   UNL     1       2.209   7.665  19.367  0.00  0.00    +0.000 A 
ATOM      6  C   UNL     1       1.757   8.958  19.082  0.00  0.00    +0.000 A 
ATOM      7  C   UNL     1       0.941   9.660  20.001  0.00  0.00    +0.000 A 
ENDROOT
BRANCH   5   8
ATOM      8  N   UNL     1       3.149   7.060  18.499  0.00  0.00    +0.000 N 
ATOM      9  C   UNL     1       2.990   5.815  17.906  0.00  0.00    +0.000 C 
ATOM     10  O   UNL     1       2.009   5.085  18.053  0.00  0.00    +0.000 OA
ATOM     11  H   UNL     1       4.055   7.511  18.412  0.00  0.00    +0.000 HD
BRANCH   9  12
ATOM     12  C   UNL     1       4.098   5.278  17.070  0.00  0.00    +0.000 A 
ATOM     13  C   UNL     1       4.949   6.206  16.439  0.00  0.00    +0.000 A 
ATOM     14  C   UNL     1       6.009   5.779  15.637  0.00  0.00    +0.000 A 
ATOM     15  C   UNL     1       6.235   4.417  15.457  0.00  0.00    +0.000 A 
ATOM     16  C   UNL     1       5.394   3.487  16.072  0.00  0.00    +0.000 A 
ATOM     17  C   UNL     1       4.332   3.920  16.869  0.00  0.00    +0.000 A 
ATOM     18  F   UNL     1       3.536   2.993  17.424  0.00  0.00    +0.000 F 
ENDBRANCH   9  12
ENDBRANCH   5   8
BRANCH   7  19
ATOM     19  S   UNL     1       0.458  11.333  19.538  0.00  0.00    +0.000 S 
ATOM     20  O   UNL     1       0.348  12.096  20.767  0.00  0.00    +0.000 OA
ATOM     21  O   UNL     1       1.323  11.798  18.476  0.00  0.00    +0.000 OA
BRANCH  19  22
ATOM     22  N   UNL     1      -1.113  11.146  18.887  0.00  0.00    +0.000 NA
ATOM     23  C   UNL     1      -2.048  12.274  19.044  0.00  0.00    +0.000 C 
ATOM     24  C   UNL     1      -3.509  11.861  19.184  0.00  0.00    +0.000 C 
ATOM     25  C   UNL     1      -4.205  11.606  17.855  0.00  0.00    +0.000 C 
ATOM     26  C   UNL     1      -3.751  10.318  17.194  0.00  0.00    +0.000 C 
ATOM     27  C   UNL     1      -2.297  10.380  16.744  0.00  0.00    +0.000 C 
ATOM     28  C   UNL     1      -1.285  10.112  17.847  0.00  0.00    +0.000 C 
ENDBRANCH  19  22
ENDBRANCH   7  19
TORSDOF 4
ENDMDL
MODEL 8
REMARK VINA RESULT:      -7.8      2.714      3.992
REMARK  Name = 
REMARK  5 active torsions:
REMARK  status: ('A' for Active; 'I' for Inactive)
REMARK    1  A    between atoms: C_1  and  C_2
REMARK    2  A    between atoms: C_5  and  N_6
REMARK    3  A    between atoms: C_7  and  C_9
REMARK    4  A    between atoms: C_17  and  S_18
REMARK    5  A    between atoms: S_18  and  N_21
REMARK                            x       y       z     vdW  Elec       q    Type
REMARK                         _______ _______ _______ _____ _____    ______ ____
ROOT
ATOM      1  C   UNL     1      -0.908  11.700  22.652  0.00  0.00    +0.000 C 
ATOM      2  C   UNL     1      -0.237  10.623  21.846  0.00  0.00    +0.000 A 
ATOM      3  C   UNL     1       0.449   9.640  22.574  0.00  0.00    +0.000 A 
ATOM      4  C   UNL     1       1.172   8.634  21.936  0.00  0.00    +0.000 A 
ATOM      5  C   UNL     1       1.236   8.571  20.546  0.00  0.00    +0.000 A 
ATOM      6  C   UNL     1       0.496   9.495  19.800  0.00  0.00    +0.000 A 
ATOM      7  C   UNL     1      -0.202  10.548  20.437  0.00  0.00    +0.000 A 
ENDROOT
BRANCH   5   8
ATOM      8  N   UNL     1       2.046   7.631  19.865  0.00  0.00    +0.000 N 
ATOM      9  C   UNL     1       2.369   7.697  18.516  0.00  0.00    +0.000 C 
ATOM     10  O   UNL     1       2.000   8.584  17.747  0.00  0.00    +0.000 OA
ATOM     11  H   UNL     1       2.296   6.785  20.368  0.00  0.00    +0.000 HD
BRANCH   9  12
ATOM     12  C   UNL     1       3.175   6.595  17.923  0.00  0.00    +0.000 A 
ATOM     13  C   UNL     1       4.396   6.935  17.310  0.00  0.00    +0.000 A 
ATOM     14  C   UNL     1       5.205   5.957  16.730  0.00  0.00    +0.000 A 
ATOM     15  C   UNL     1       4.806   4.623  16.758  0.00  0.00    +0.000 A 
ATOM     16  C   UNL     1       3.594   4.274  17.357  0.00  0.00    +0.000 A 
ATOM     17  C   UNL     1       2.786   5.258  17.931  0.00  0.00    +0.000 A 
ATOM     18  F   UNL     1       1.619   4.881  18.477  0.00  0.00    +0.000 F 
ENDBRANCH   9  12
ENDBRANCH   5   8
BRANCH   7  19
ATOM     19  S   UNL     1      -1.082  11.698  19.365  0.00  0.00    +0.000 S 
ATOM     20  O   UNL     1      -1.111  11.105  18.042  0.00  0.00    +0.000 OA
ATOM     21  O   UNL     1      -2.318  12.091  20.006  0.00  0.00    +0.000 OA
BRANCH  19  22
ATOM     22  N   UNL     1      -0.065  13.074  19.308  0.00  0.00    +0.000 NA
ATOM     23  C   UNL     1       1.207  12.943  18.578  0.00  0.00    +0.000 C 
ATOM     24  C   UNL     1       2.344  13.785  19.148  0.00  0.00    +0.000 C 
ATOM     25  C   UNL     1       2.338  15.230  18.666  0.00  0.00    +0.000 C 
ATOM     26  C   UNL     1       1.222  16.049  19.288  0.00  0.00    +0.000 C 
ATOM     27  C   UNL     1      -0.156  15.593  18.828  0.00  0.00    +0.000 C 
ATOM     28  C   UNL     1      -0.698  14.381  19.572  0.00  0.00    +0.000 C 
ENDBRANCH  19  22
ENDBRANCH   7  19
TORSDOF 4
ENDMDL
MODEL 9
REMARK VINA RESULT:      -7.8      2.651      3.765
REMARK  Name = 
REMARK  5 active torsions:
REMARK  status: ('A' for Active; 'I' for Inactive)
REMARK    1  A    between atoms: C_1  and  C_2
REMARK    2  A    between atoms: C_5  and  N_6
REMARK    3  A    between atoms: C_7  and  C_9
REMARK    4  A    between atoms: C_17  and  S_18
REMARK    5  A    between atoms: S_18  and  N_21
REMARK                            x       y       z     vdW  Elec       q    Type
REMARK                         _______ _______ _______ _____ _____    ______ ____
ROOT
ATOM      1  C   UNL     1      -0.735  11.704  22.393  0.00  0.00    +0.000 C 
ATOM      2  C   UNL     1      -0.090  10.582  21.628  0.00  0.00    +0.000 A 
ATOM      3  C   UNL     1       0.648   9.659  22.386  0.00  0.00    +0.000 A 
ATOM      4  C   UNL     1       1.352   8.620  21.782  0.00  0.00    +0.000 A 
ATOM      5  C   UNL     1       1.347   8.462  20.398  0.00  0.00    +0.000 A 
ATOM      6  C   UNL     1       0.556   9.323  19.630  0.00  0.00    +0.000 A 
ATOM      7  C   UNL     1      -0.125  10.410  20.228  0.00  0.00    +0.000 A 
ENDROOT
BRANCH   5   8
ATOM      8  N   UNL     1       2.136   7.486  19.742  0.00  0.00    +0.000 N 
ATOM      9  C   UNL     1       2.526   7.551  18.411  0.00  0.00    +0.000 C 
ATOM     10  O   UNL     1       2.243   8.466  17.639  0.00  0.00    +0.000 OA
ATOM     11  H   UNL     1       2.314   6.622  20.244  0.00  0.00    +0.000 HD
BRANCH   9  12
ATOM     12  C   UNL     1       3.297   6.413  17.841  0.00  0.00    +0.000 A 
ATOM     13  C   UNL     1       4.562   6.692  17.289  0.00  0.00    +0.000 A 
ATOM     14  C   UNL     1       5.343   5.677  16.734  0.00  0.00    +0.000 A 
ATOM     15  C   UNL     1       4.871   4.367  16.724  0.00  0.00    +0.000 A 
ATOM     16  C   UNL     1       3.615   4.079  17.263  0.00  0.00    +0.000 A 
ATOM     17  C   UNL     1       2.835   5.099  17.812  0.00  0.00    +0.000 A 
ATOM     18  F   UNL     1       1.626   4.781  18.299  0.00  0.00    +0.000 F 
ENDBRANCH   9  12
ENDBRANCH   5   8
BRANCH   7  19
ATOM     19  S   UNL     1      -1.076  11.472  19.127  0.00  0.00    +0.000 S 
ATOM     20  O   UNL     1      -1.123  10.810  17.837  0.00  0.00    +0.000 OA
ATOM     21  O   UNL     1      -2.306  11.856  19.785  0.00  0.00    +0.000 OA
BRANCH  19  22
ATOM     22  N   UNL     1      -0.111  12.876  18.968  0.00  0.00    +0.000 NA
ATOM     23  C   UNL     1      -0.617  14.117  19.580  0.00  0.00    +0.000 C 
ATOM     24  C   UNL     1      -0.224  15.388  18.834  0.00  0.00    +0.000 C 
ATOM     25  C   UNL     1       1.163  15.904  19.189  0.00  0.00    +0.000 C 
ATOM     26  C   UNL     1       2.273  15.045  18.610  0.00  0.00    +0.000 C 
ATOM     27  C   UNL     1       2.318  13.658  19.238  0.00  0.00    +0.000 C 
ATOM     28  C   UNL     1       1.318  12.670  18.657  0.00  0.00    +0.000 C 
ENDBRANCH  19  22
ENDBRANCH   7  19
TORSDOF 4
ENDMDL
