MODEL 1
REMARK VINA RESULT:      -6.8      0.000      0.000
REMARK  Name = 
REMARK  5 active torsions:
REMARK  status: ('A' for Active; 'I' for Inactive)
REMARK    1  A    between atoms: C_1  and  O_2
REMARK    2  A    between atoms: O_2  and  C_3
REMARK    3  A    between atoms: C_6  and  N_7
REMARK    4  A    between atoms: C_8  and  S_9
REMARK    5  A    between atoms: C_12  and  C_13
REMARK                            x       y       z     vdW  Elec       q    Type
REMARK                         _______ _______ _______ _____ _____    ______ ____
ROOT
ATOM      1  N   UNL     1       3.098   4.196  18.538  0.00  0.00    +0.000 N 
ATOM      2  C   UNL     1       2.431   2.972  18.441  0.00  0.00    +0.000 A 
ATOM      3  N   UNL     1       3.201   2.085  17.857  0.00  0.00    +0.000 NA
ATOM      4  N   UNL     1       4.390   2.676  17.561  0.00  0.00    +0.000 NA
ATOM      5  C   UNL     1       4.363   3.925  17.997  0.00  0.00    +0.000 A 
ENDROOT
BRANCH   1   9
ATOM      6  C   UNL     1       1.754   7.949  20.012  0.00  0.00    +0.000 A 
ATOM      7  C   UNL     1       1.708   6.818  20.827  0.00  0.00    +0.000 A 
ATOM      8  C   UNL     1       2.158   5.578  20.356  0.00  0.00    +0.000 A 
ATOM      9  C   UNL     1       2.595   5.442  19.033  0.00  0.00    +0.000 A 
ATOM     10  C   UNL     1       2.564   6.569  18.200  0.00  0.00    +0.000 A 
ATOM     11  C   UNL     1       2.182   7.820  18.695  0.00  0.00    +0.000 A 
BRANCH   6  13
ATOM     12  C   UNL     1       1.044   9.041  21.978  0.00  0.00    +0.000 C 
ATOM     13  O   UNL     1       1.324   9.113  20.584  0.00  0.00    +0.000 OA
ENDBRANCH   6  13
ENDBRANCH   1   9
BRANCH   5  14
ATOM     14  C   UNL     1       5.522   4.814  17.946  0.00  0.00    +0.000 A 
ATOM     15  C   UNL     1       5.792   5.609  16.839  0.00  0.00    +0.000 A 
ATOM     16  N   UNL     1       6.801   6.519  16.814  0.00  0.00    +0.000 NA
ATOM     17  C   UNL     1       7.544   6.594  17.940  0.00  0.00    +0.000 A 
ATOM     18  C   UNL     1       7.308   5.780  19.030  0.00  0.00    +0.000 A 
ATOM     19  N   UNL     1       6.316   4.862  19.045  0.00  0.00    +0.000 NA
ENDBRANCH   5  14
BRANCH   2  20
ATOM     20  S   UNL     1       0.768   2.640  18.800  0.00  0.00    +0.000 S 
ATOM     21  H   UNL     1       0.903   1.623  19.659  0.00  0.00    +0.000 HD
ENDBRANCH   2  20
TORSDOF 4
ENDMDL
MODEL 2
REMARK VINA RESULT:      -6.8      1.282      1.348
REMARK  Name = 
REMARK  5 active torsions:
REMARK  status: ('A' for Active; 'I' for Inactive)
REMARK    1  A    between atoms: C_1  and  O_2
REMARK    2  A    between atoms: O_2  and  C_3
REMARK    3  A    between atoms: C_6  and  N_7
REMARK    4  A    between atoms: C_8  and  S_9
REMARK    5  A    between atoms: C_12  and  C_13
REMARK                            x       y       z     vdW  Elec       q    Type
REMARK                         _______ _______ _______ _____ _____    ______ ____
ROOT
ATOM      1  N   UNL     1       3.344   4.634  19.528  0.00  0.00    +0.000 N 
ATOM      2  C   UNL     1       2.724   3.471  19.995  0.00  0.00    +0.000 A 
ATOM      3  N   UNL     1       3.556   2.459  19.927  0.00  0.00    +0.000 NA
ATOM      4  N   UNL     1       4.740   2.908  19.432  0.00  0.00    +0.000 NA
ATOM      5  C   UNL     1       4.648   4.212  19.226  0.00  0.00    +0.000 A 
ENDROOT
BRANCH   1   9
ATOM      6  C   UNL     1       1.794   8.555  19.000  0.00  0.00    +0.000 A 
ATOM      7  C   UNL     1       1.789   7.963  20.262  0.00  0.00    +0.000 A 
ATOM      8  C   UNL     1       2.307   6.675  20.451  0.00  0.00    +0.000 A 
ATOM      9  C   UNL     1       2.773   5.935  19.359  0.00  0.00    +0.000 A 
ATOM     10  C   UNL     1       2.701   6.511  18.082  0.00  0.00    +0.000 A 
ATOM     11  C   UNL     1       2.250   7.823  17.908  0.00  0.00    +0.000 A 
BRANCH   6  13
ATOM     12  C   UNL     1       0.008  10.008  19.510  0.00  0.00    +0.000 C 
ATOM     13  O   UNL     1       1.298   9.827  18.937  0.00  0.00    +0.000 OA
ENDBRANCH   6  13
ENDBRANCH   1   9
BRANCH   5  14
ATOM     14  C   UNL     1       5.778   5.037  18.805  0.00  0.00    +0.000 A 
ATOM     15  C   UNL     1       5.818   5.649  17.558  0.00  0.00    +0.000 A 
ATOM     16  N   UNL     1       6.808   6.505  17.189  0.00  0.00    +0.000 NA
ATOM     17  C   UNL     1       7.769   6.715  18.116  0.00  0.00    +0.000 A 
ATOM     18  C   UNL     1       7.758   6.081  19.342  0.00  0.00    +0.000 A 
ATOM     19  N   UNL     1       6.782   5.216  19.698  0.00  0.00    +0.000 NA
ENDBRANCH   5  14
BRANCH   2  20
ATOM     20  S   UNL     1       1.055   3.253  20.407  0.00  0.00    +0.000 S 
ATOM     21  H   UNL     1       0.506   3.220  19.187  0.00  0.00    +0.000 HD
ENDBRANCH   2  20
TORSDOF 4
ENDMDL
MODEL 3
REMARK VINA RESULT:      -6.7      2.947      5.359
REMARK  Name = 
REMARK  5 active torsions:
REMARK  status: ('A' for Active; 'I' for Inactive)
REMARK    1  A    between atoms: C_1  and  O_2
REMARK    2  A    between atoms: O_2  and  C_3
REMARK    3  A    between atoms: C_6  and  N_7
REMARK    4  A    between atoms: C_8  and  S_9
REMARK    5  A    between atoms: C_12  and  C_13
REMARK                            x       y       z     vdW  Elec       q    Type
REMARK                         _______ _______ _______ _____ _____    ______ ____
ROOT
ATOM      1  N   UNL     1       3.554   4.808  19.332  0.00  0.00    +0.000 N 
ATOM      2  C   UNL     1       3.291   3.677  20.111  0.00  0.00    +0.000 A 
ATOM      3  N   UNL     1       2.347   3.941  20.982  0.00  0.00    +0.000 NA
ATOM      4  N   UNL     1       1.948   5.229  20.809  0.00  0.00    +0.000 NA
ATOM      5  C   UNL     1       2.629   5.752  19.801  0.00  0.00    +0.000 A 
ENDROOT
BRANCH   1   9
ATOM      6  C   UNL     1       6.499   5.461  16.340  0.00  0.00    +0.000 A 
ATOM      7  C   UNL     1       5.334   4.760  16.035  0.00  0.00    +0.000 A 
ATOM      8  C   UNL     1       4.350   4.547  17.010  0.00  0.00    +0.000 A 
ATOM      9  C   UNL     1       4.558   4.976  18.326  0.00  0.00    +0.000 A 
ATOM     10  C   UNL     1       5.768   5.612  18.638  0.00  0.00    +0.000 A 
ATOM     11  C   UNL     1       6.715   5.885  17.646  0.00  0.00    +0.000 A 
BRANCH   6  13
ATOM     12  C   UNL     1       7.091   4.891  14.129  0.00  0.00    +0.000 C 
ATOM     13  O   UNL     1       7.373   5.642  15.304  0.00  0.00    +0.000 OA
ENDBRANCH   6  13
ENDBRANCH   1   9
BRANCH   5  14
ATOM     14  C   UNL     1       2.368   7.088  19.269  0.00  0.00    +0.000 A 
ATOM     15  C   UNL     1       2.695   7.436  17.964  0.00  0.00    +0.000 A 
ATOM     16  N   UNL     1       2.366   8.636  17.417  0.00  0.00    +0.000 NA
ATOM     17  C   UNL     1       1.705   9.485  18.234  0.00  0.00    +0.000 A 
ATOM     18  C   UNL     1       1.411   9.163  19.544  0.00  0.00    +0.000 A 
ATOM     19  N   UNL     1       1.757   7.976  20.091  0.00  0.00    +0.000 NA
ENDBRANCH   5  14
BRANCH   2  20
ATOM     20  S   UNL     1       4.176   2.187  20.148  0.00  0.00    +0.000 S 
ATOM     21  H   UNL     1       4.342   1.970  18.838  0.00  0.00    +0.000 HD
ENDBRANCH   2  20
TORSDOF 4
ENDMDL
MODEL 4
REMARK VINA RESULT:      -6.7      2.987      5.388
REMARK  Name = 
REMARK  5 active torsions:
REMARK  status: ('A' for Active; 'I' for Inactive)
REMARK    1  A    between atoms: C_1  and  O_2
REMARK    2  A    between atoms: O_2  and  C_3
REMARK    3  A    between atoms: C_6  and  N_7
REMARK    4  A    between atoms: C_8  and  S_9
REMARK    5  A    between atoms: C_12  and  C_13
REMARK                            x       y       z     vdW  Elec       q    Type
REMARK                         _______ _______ _______ _____ _____    ______ ____
ROOT
ATOM      1  N   UNL     1       3.539   4.875  19.291  0.00  0.00    +0.000 N 
ATOM      2  C   UNL     1       3.314   3.728  20.057  0.00  0.00    +0.000 A 
ATOM      3  N   UNL     1       2.393   3.963  20.961  0.00  0.00    +0.000 NA
ATOM      4  N   UNL     1       1.972   5.249  20.822  0.00  0.00    +0.000 NA
ATOM      5  C   UNL     1       2.615   5.798  19.804  0.00  0.00    +0.000 A 
ENDROOT
BRANCH   1   9
ATOM      6  C   UNL     1       6.457   5.315  16.234  0.00  0.00    +0.000 A 
ATOM      7  C   UNL     1       6.672   5.872  17.493  0.00  0.00    +0.000 A 
ATOM      8  C   UNL     1       5.722   5.725  18.513  0.00  0.00    +0.000 A 
ATOM      9  C   UNL     1       4.509   5.075  18.258  0.00  0.00    +0.000 A 
ATOM     10  C   UNL     1       4.271   4.587  16.966  0.00  0.00    +0.000 A 
ATOM     11  C   UNL     1       5.251   4.673  15.971  0.00  0.00    +0.000 A 
BRANCH   6  13
ATOM     12  C   UNL     1       7.225   4.937  14.036  0.00  0.00    +0.000 C 
ATOM     13  O   UNL     1       7.464   5.488  15.326  0.00  0.00    +0.000 OA
ENDBRANCH   6  13
ENDBRANCH   1   9
BRANCH   5  14
ATOM     14  C   UNL     1       2.320   7.139  19.303  0.00  0.00    +0.000 A 
ATOM     15  C   UNL     1       2.593   7.511  17.993  0.00  0.00    +0.000 A 
ATOM     16  N   UNL     1       2.230   8.715  17.477  0.00  0.00    +0.000 NA
ATOM     17  C   UNL     1       1.592   9.544  18.333  0.00  0.00    +0.000 A 
ATOM     18  C   UNL     1       1.351   9.198  19.648  0.00  0.00    +0.000 A 
ATOM     19  N   UNL     1       1.731   8.007  20.162  0.00  0.00    +0.000 NA
ENDBRANCH   5  14
BRANCH   2  20
ATOM     20  S   UNL     1       4.221   2.251  20.041  0.00  0.00    +0.000 S 
ATOM     21  H   UNL     1       3.678   1.621  21.090  0.00  0.00    +0.000 HD
ENDBRANCH   2  20
TORSDOF 4
ENDMDL
MODEL 5
REMARK VINA RESULT:      -6.7      0.612      1.293
REMARK  Name = 
REMARK  5 active torsions:
REMARK  status: ('A' for Active; 'I' for Inactive)
REMARK    1  A    between atoms: C_1  and  O_2
REMARK    2  A    between atoms: O_2  and  C_3
REMARK    3  A    between atoms: C_6  and  N_7
REMARK    4  A    between atoms: C_8  and  S_9
REMARK    5  A    between atoms: C_12  and  C_13
REMARK                            x       y       z     vdW  Elec       q    Type
REMARK                         _______ _______ _______ _____ _____    ______ ____
ROOT
ATOM      1  N   UNL     1       3.124   4.381  18.567  0.00  0.00    +0.000 N 
ATOM      2  C   UNL     1       2.415   3.179  18.499  0.00  0.00    +0.000 A 
ATOM      3  N   UNL     1       3.159   2.249  17.949  0.00  0.00    +0.000 NA
ATOM      4  N   UNL     1       4.370   2.788  17.647  0.00  0.00    +0.000 NA
ATOM      5  C   UNL     1       4.384   4.050  18.047  0.00  0.00    +0.000 A 
ENDROOT
BRANCH   1   9
ATOM      6  C   UNL     1       1.603   8.116  19.909  0.00  0.00    +0.000 A 
ATOM      7  C   UNL     1       2.144   7.998  18.630  0.00  0.00    +0.000 A 
ATOM      8  C   UNL     1       2.640   6.770  18.172  0.00  0.00    +0.000 A 
ATOM      9  C   UNL     1       2.662   5.658  19.021  0.00  0.00    +0.000 A 
ATOM     10  C   UNL     1       2.185   5.808  20.331  0.00  0.00    +0.000 A 
ATOM     11  C   UNL     1       1.626   7.016  20.760  0.00  0.00    +0.000 A 
BRANCH   6  13
ATOM     12  C   UNL     1       0.996  10.267  19.157  0.00  0.00    +0.000 C 
ATOM     13  O   UNL     1       1.116   9.350  20.238  0.00  0.00    +0.000 OA
ENDBRANCH   6  13
ENDBRANCH   1   9
BRANCH   5  14
ATOM     14  C   UNL     1       5.575   4.896  17.982  0.00  0.00    +0.000 A 
ATOM     15  C   UNL     1       5.861   5.678  16.870  0.00  0.00    +0.000 A 
ATOM     16  N   UNL     1       6.903   6.550  16.832  0.00  0.00    +0.000 NA
ATOM     17  C   UNL     1       7.660   6.600  17.951  0.00  0.00    +0.000 A 
ATOM     18  C   UNL     1       7.405   5.798  19.046  0.00  0.00    +0.000 A 
ATOM     19  N   UNL     1       6.380   4.918  19.072  0.00  0.00    +0.000 NA
ENDBRANCH   5  14
BRANCH   2  20
ATOM     20  S   UNL     1       0.738   2.916  18.851  0.00  0.00    +0.000 S 
ATOM     21  H   UNL     1       0.285   2.582  17.638  0.00  0.00    +0.000 HD
ENDBRANCH   2  20
TORSDOF 4
ENDMDL
MODEL 6
REMARK VINA RESULT:      -6.5      2.884      5.371
REMARK  Name = 
REMARK  5 active torsions:
REMARK  status: ('A' for Active; 'I' for Inactive)
REMARK    1  A    between atoms: C_1  and  O_2
REMARK    2  A    between atoms: O_2  and  C_3
REMARK    3  A    between atoms: C_6  and  N_7
REMARK    4  A    between atoms: C_8  and  S_9
REMARK    5  A    between atoms: C_12  and  C_13
REMARK                            x       y       z     vdW  Elec       q    Type
REMARK                         _______ _______ _______ _____ _____    ______ ____
ROOT
ATOM      1  N   UNL     1       3.622   4.434  19.511  0.00  0.00    +0.000 N 
ATOM      2  C   UNL     1       3.449   3.275  20.274  0.00  0.00    +0.000 A 
ATOM      3  N   UNL     1       2.493   3.455  21.154  0.00  0.00    +0.000 NA
ATOM      4  N   UNL     1       1.999   4.712  21.003  0.00  0.00    +0.000 NA
ATOM      5  C   UNL     1       2.631   5.300  19.999  0.00  0.00    +0.000 A 
ENDROOT
BRANCH   1   9
ATOM      6  C   UNL     1       6.488   5.349  16.511  0.00  0.00    +0.000 A 
ATOM      7  C   UNL     1       5.385   4.553  16.207  0.00  0.00    +0.000 A 
ATOM      8  C   UNL     1       4.428   4.252  17.185  0.00  0.00    +0.000 A 
ATOM      9  C   UNL     1       4.604   4.691  18.502  0.00  0.00    +0.000 A 
ATOM     10  C   UNL     1       5.757   5.426  18.813  0.00  0.00    +0.000 A 
ATOM     11  C   UNL     1       6.673   5.784  17.819  0.00  0.00    +0.000 A 
BRANCH   6  13
ATOM     12  C   UNL     1       7.061   4.909  14.266  0.00  0.00    +0.000 C 
ATOM     13  O   UNL     1       7.340   5.608  15.473  0.00  0.00    +0.000 OA
ENDBRANCH   6  13
ENDBRANCH   1   9
BRANCH   5  14
ATOM     14  C   UNL     1       2.268   6.620  19.489  0.00  0.00    +0.000 A 
ATOM     15  C   UNL     1       1.775   7.619  20.319  0.00  0.00    +0.000 A 
ATOM     16  N   UNL     1       1.533   8.884  19.885  0.00  0.00    +0.000 NA
ATOM     17  C   UNL     1       1.791   9.109  18.578  0.00  0.00    +0.000 A 
ATOM     18  C   UNL     1       2.244   8.112  17.737  0.00  0.00    +0.000 A 
ATOM     19  N   UNL     1       2.465   6.850  18.167  0.00  0.00    +0.000 NA
ENDBRANCH   5  14
BRANCH   2  20
ATOM     20  S   UNL     1       4.443   1.856  20.283  0.00  0.00    +0.000 S 
ATOM     21  H   UNL     1       4.790   1.810  21.575  0.00  0.00    +0.000 HD
ENDBRANCH   2  20
TORSDOF 4
ENDMDL
MODEL 7
REMARK VINA RESULT:      -6.5      2.928      5.402
REMARK  Name = 
REMARK  5 active torsions:
REMARK  status: ('A' for Active; 'I' for Inactive)
REMARK    1  A    between atoms: C_1  and  O_2
REMARK    2  A    between atoms: O_2  and  C_3
REMARK    3  A    between atoms: C_6  and  N_7
REMARK    4  A    between atoms: C_8  and  S_9
REMARK    5  A    between atoms: C_12  and  C_13
REMARK                            x       y       z     vdW  Elec       q    Type
REMARK                         _______ _______ _______ _____ _____    ______ ____
ROOT
ATOM      1  N   UNL     1       3.551   4.593  19.411  0.00  0.00    +0.000 N 
ATOM      2  C   UNL     1       3.394   3.421  20.157  0.00  0.00    +0.000 A 
ATOM      3  N   UNL     1       2.469   3.591  21.072  0.00  0.00    +0.000 NA
ATOM      4  N   UNL     1       1.981   4.856  20.960  0.00  0.00    +0.000 NA
ATOM      5  C   UNL     1       2.585   5.457  19.948  0.00  0.00    +0.000 A 
ENDROOT
BRANCH   1   9
ATOM      6  C   UNL     1       6.415   5.239  16.339  0.00  0.00    +0.000 A 
ATOM      7  C   UNL     1       6.622   5.767  17.613  0.00  0.00    +0.000 A 
ATOM      8  C   UNL     1       5.691   5.551  18.637  0.00  0.00    +0.000 A 
ATOM      9  C   UNL     1       4.502   4.862  18.375  0.00  0.00    +0.000 A 
ATOM     10  C   UNL     1       4.269   4.403  17.071  0.00  0.00    +0.000 A 
ATOM     11  C   UNL     1       5.233   4.558  16.070  0.00  0.00    +0.000 A 
BRANCH   6  13
ATOM     12  C   UNL     1       7.193   4.920  14.136  0.00  0.00    +0.000 C 
ATOM     13  O   UNL     1       7.405   5.480  15.427  0.00  0.00    +0.000 OA
ENDBRANCH   6  13
ENDBRANCH   1   9
BRANCH   5  14
ATOM     14  C   UNL     1       2.217   6.789  19.474  0.00  0.00    +0.000 A 
ATOM     15  C   UNL     1       1.705   7.758  20.329  0.00  0.00    +0.000 A 
ATOM     16  N   UNL     1       1.457   9.034  19.932  0.00  0.00    +0.000 NA
ATOM     17  C   UNL     1       1.729   9.302  18.636  0.00  0.00    +0.000 A 
ATOM     18  C   UNL     1       2.200   8.336  17.770  0.00  0.00    +0.000 A 
ATOM     19  N   UNL     1       2.427   7.063  18.163  0.00  0.00    +0.000 NA
ENDBRANCH   5  14
BRANCH   2  20
ATOM     20  S   UNL     1       4.375   1.994  20.107  0.00  0.00    +0.000 S 
ATOM     21  H   UNL     1       3.443   1.066  19.862  0.00  0.00    +0.000 HD
ENDBRANCH   2  20
TORSDOF 4
ENDMDL
MODEL 8
REMARK VINA RESULT:      -6.5      0.657      1.099
REMARK  Name = 
REMARK  5 active torsions:
REMARK  status: ('A' for Active; 'I' for Inactive)
REMARK    1  A    between atoms: C_1  and  O_2
REMARK    2  A    between atoms: O_2  and  C_3
REMARK    3  A    between atoms: C_6  and  N_7
REMARK    4  A    between atoms: C_8  and  S_9
REMARK    5  A    between atoms: C_12  and  C_13
REMARK                            x       y       z     vdW  Elec       q    Type
REMARK                         _______ _______ _______ _____ _____    ______ ____
ROOT
ATOM      1  N   UNL     1       3.081   4.396  18.653  0.00  0.00    +0.000 N 
ATOM      2  C   UNL     1       2.443   3.160  18.512  0.00  0.00    +0.000 A 
ATOM      3  N   UNL     1       3.255   2.296  17.952  0.00  0.00    +0.000 NA
ATOM      4  N   UNL     1       4.444   2.913  17.716  0.00  0.00    +0.000 NA
ATOM      5  C   UNL     1       4.374   4.156  18.165  0.00  0.00    +0.000 A 
ENDROOT
BRANCH   1   9
ATOM      6  C   UNL     1       1.601   8.103  20.111  0.00  0.00    +0.000 A 
ATOM      7  C   UNL     1       1.539   6.961  20.908  0.00  0.00    +0.000 A 
ATOM      8  C   UNL     1       2.033   5.735  20.443  0.00  0.00    +0.000 A 
ATOM      9  C   UNL     1       2.533   5.625  19.141  0.00  0.00    +0.000 A 
ATOM     10  C   UNL     1       2.519   6.763  18.321  0.00  0.00    +0.000 A 
ATOM     11  C   UNL     1       2.091   8.000  18.814  0.00  0.00    +0.000 A 
BRANCH   6  13
ATOM     12  C   UNL     1       1.116   9.272  22.101  0.00  0.00    +0.000 C 
ATOM     13  O   UNL     1       1.124   9.251  20.678  0.00  0.00    +0.000 OA
ENDBRANCH   6  13
ENDBRANCH   1   9
BRANCH   5  14
ATOM     14  C   UNL     1       5.517   5.067  18.176  0.00  0.00    +0.000 A 
ATOM     15  C   UNL     1       6.363   5.171  19.274  0.00  0.00    +0.000 A 
ATOM     16  N   UNL     1       7.490   5.931  19.266  0.00  0.00    +0.000 NA
ATOM     17  C   UNL     1       7.733   6.597  18.115  0.00  0.00    +0.000 A 
ATOM     18  C   UNL     1       6.877   6.530  17.034  0.00  0.00    +0.000 A 
ATOM     19  N   UNL     1       5.747   5.789  17.052  0.00  0.00    +0.000 NA
ENDBRANCH   5  14
BRANCH   2  20
ATOM     20  S   UNL     1       0.773   2.793  18.794  0.00  0.00    +0.000 S 
ATOM     21  H   UNL     1       0.397   2.416  17.566  0.00  0.00    +0.000 HD
ENDBRANCH   2  20
TORSDOF 4
ENDMDL
MODEL 9
REMARK VINA RESULT:      -6.4      1.302      1.613
REMARK  Name = 
REMARK  5 active torsions:
REMARK  status: ('A' for Active; 'I' for Inactive)
REMARK    1  A    between atoms: C_1  and  O_2
REMARK    2  A    between atoms: O_2  and  C_3
REMARK    3  A    between atoms: C_6  and  N_7
REMARK    4  A    between atoms: C_8  and  S_9
REMARK    5  A    between atoms: C_12  and  C_13
REMARK                            x       y       z     vdW  Elec       q    Type
REMARK                         _______ _______ _______ _____ _____    ______ ____
ROOT
ATOM      1  N   UNL     1       3.200   4.914  19.353  0.00  0.00    +0.000 N 
ATOM      2  C   UNL     1       2.609   3.701  19.719  0.00  0.00    +0.000 A 
ATOM      3  N   UNL     1       3.461   2.718  19.555  0.00  0.00    +0.000 NA
ATOM      4  N   UNL     1       4.631   3.234  19.093  0.00  0.00    +0.000 NA
ATOM      5  C   UNL     1       4.510   4.549  19.005  0.00  0.00    +0.000 A 
ENDROOT
BRANCH   1   9
ATOM      6  C   UNL     1       1.564   8.832  19.184  0.00  0.00    +0.000 A 
ATOM      7  C   UNL     1       1.607   8.142  20.395  0.00  0.00    +0.000 A 
ATOM      8  C   UNL     1       2.154   6.854  20.465  0.00  0.00    +0.000 A 
ATOM      9  C   UNL     1       2.601   6.213  19.304  0.00  0.00    +0.000 A 
ATOM     10  C   UNL     1       2.480   6.886  18.080  0.00  0.00    +0.000 A 
ATOM     11  C   UNL     1       2.000   8.199  18.025  0.00  0.00    +0.000 A 
BRANCH   6  13
ATOM     12  C   UNL     1       0.820  10.608  20.545  0.00  0.00    +0.000 C 
ATOM     13  O   UNL     1       1.043  10.094  19.237  0.00  0.00    +0.000 OA
ENDBRANCH   6  13
ENDBRANCH   1   9
BRANCH   5  14
ATOM     14  C   UNL     1       5.619   5.432  18.651  0.00  0.00    +0.000 A 
ATOM     15  C   UNL     1       6.777   5.499  19.416  0.00  0.00    +0.000 A 
ATOM     16  N   UNL     1       7.862   6.232  19.048  0.00  0.00    +0.000 NA
ATOM     17  C   UNL     1       7.736   6.911  17.886  0.00  0.00    +0.000 A 
ATOM     18  C   UNL     1       6.575   6.881  17.140  0.00  0.00    +0.000 A 
ATOM     19  N   UNL     1       5.492   6.167  17.519  0.00  0.00    +0.000 NA
ENDBRANCH   5  14
BRANCH   2  20
ATOM     20  S   UNL     1       0.948   3.412  20.121  0.00  0.00    +0.000 S 
ATOM     21  H   UNL     1       1.019   2.148  20.552  0.00  0.00    +0.000 HD
ENDBRANCH   2  20
TORSDOF 4
ENDMDL
