MODEL 1
REMARK VINA RESULT:      -8.1      0.000      0.000
REMARK  Name = 
REMARK  5 active torsions:
REMARK  status: ('A' for Active; 'I' for Inactive)
REMARK    1  A    between atoms: C_8  and  C_9
REMARK    2  A    between atoms: C_13  and  O_14
REMARK    3  A    between atoms: O_14  and  C_15
REMARK    4  A    between atoms: C_15  and  C_16
REMARK    5  A    between atoms: C_19  and  C_20
REMARK                            x       y       z     vdW  Elec       q    Type
REMARK                         _______ _______ _______ _____ _____    ______ ____
ROOT
ATOM      1  C   UNL     1       2.659   4.463  18.026  0.00  0.00    +0.000 C 
ATOM      2  O   UNL     1       1.728   4.301  17.240  0.00  0.00    +0.000 OA
ATOM      3  N   UNL     1       2.497   4.422  19.400  0.00  0.00    +0.000 N 
ATOM      4  C   UNL     1       1.260   4.205  20.125  0.00  0.00    +0.000 C 
ATOM      5  C   UNL     1       1.595   5.446  20.970  0.00  0.00    +0.000 C 
ATOM      6  C   UNL     1       3.001   5.419  20.347  0.00  0.00    +0.000 C 
ENDROOT
BRANCH   1  14
ATOM      7  O   UNL     1       7.637   5.287  13.391  0.00  0.00    +0.000 OA
ATOM      8  C   UNL     1       7.182   5.189  14.521  0.00  0.00    +0.000 C 
ATOM      9  N   UNL     1       6.013   5.744  14.954  0.00  0.00    +0.000 N 
ATOM     10  C   UNL     1       5.635   5.203  16.239  0.00  0.00    +0.000 C 
ATOM     11  C   UNL     1       6.962   4.642  16.718  0.00  0.00    +0.000 C 
ATOM     12  O   UNL     1       7.749   4.464  15.528  0.00  0.00    +0.000 OA
ATOM     13  C   UNL     1       4.473   4.189  16.169  0.00  0.00    +0.000 C 
ATOM     14  C   UNL     1       4.139   4.637  17.630  0.00  0.00    +0.000 C 
ATOM     15  C   UNL     1       4.725   6.019  17.193  0.00  0.00    +0.000 C 
ATOM     16  H   UNL     1       5.424   6.184  14.262  0.00  0.00    +0.000 HD
ENDBRANCH   1  14
BRANCH   5  17
ATOM     17  O   UNL     1       0.810   6.640  20.724  0.00  0.00    +0.000 OA
BRANCH  17  18
ATOM     18  C   UNL     1       1.517   7.870  20.877  0.00  0.00    +0.000 C 
BRANCH  18  19
ATOM     19  C   UNL     1       0.619   8.969  21.380  0.00  0.00    +0.000 A 
ATOM     20  C   UNL     1      -0.043   8.878  22.609  0.00  0.00    +0.000 A 
ATOM     21  C   UNL     1      -0.814   9.946  23.078  0.00  0.00    +0.000 A 
ATOM     22  C   UNL     1      -0.929  11.137  22.338  0.00  0.00    +0.000 A 
ATOM     23  C   UNL     1      -0.255  11.229  21.116  0.00  0.00    +0.000 A 
ATOM     24 CL   UNL     1      -0.318  12.650  20.137  0.00  0.00    +0.000 Cl
ATOM     25  C   UNL     1       0.512  10.157  20.645  0.00  0.00    +0.000 A 
BRANCH  22  26
ATOM     26  C   UNL     1      -1.750  12.279  22.871  0.00  0.00    +0.000 C 
ATOM     27  F   UNL     1      -2.546  12.853  21.922  0.00  0.00    +0.000 F 
ATOM     28  F   UNL     1      -2.596  11.907  23.871  0.00  0.00    +0.000 F 
ATOM     29  F   UNL     1      -0.993  13.297  23.366  0.00  0.00    +0.000 F 
ENDBRANCH  22  26
ENDBRANCH  18  19
ENDBRANCH  17  18
ENDBRANCH   5  17
TORSDOF 5
ENDMDL
MODEL 2
REMARK VINA RESULT:      -8.1      7.080     10.008
REMARK  Name = 
REMARK  5 active torsions:
REMARK  status: ('A' for Active; 'I' for Inactive)
REMARK    1  A    between atoms: C_8  and  C_9
REMARK    2  A    between atoms: C_13  and  O_14
REMARK    3  A    between atoms: O_14  and  C_15
REMARK    4  A    between atoms: C_15  and  C_16
REMARK    5  A    between atoms: C_19  and  C_20
REMARK                            x       y       z     vdW  Elec       q    Type
REMARK                         _______ _______ _______ _____ _____    ______ ____
ROOT
ATOM      1  C   UNL     1       1.565  11.911  19.962  0.00  0.00    +0.000 C 
ATOM      2  O   UNL     1       1.303  11.774  21.156  0.00  0.00    +0.000 OA
ATOM      3  N   UNL     1       1.148  11.014  18.995  0.00  0.00    +0.000 N 
ATOM      4  C   UNL     1       0.378   9.803  19.204  0.00  0.00    +0.000 C 
ATOM      5  C   UNL     1       1.421   9.052  18.360  0.00  0.00    +0.000 C 
ATOM      6  C   UNL     1       1.998  10.421  17.961  0.00  0.00    +0.000 C 
ENDROOT
BRANCH   1  14
ATOM      7  O   UNL     1       1.678  18.268  17.409  0.00  0.00    +0.000 OA
ATOM      8  C   UNL     1       2.174  17.211  17.768  0.00  0.00    +0.000 C 
ATOM      9  N   UNL     1       1.812  16.504  18.877  0.00  0.00    +0.000 N 
ATOM     10  C   UNL     1       2.390  15.180  18.851  0.00  0.00    +0.000 C 
ATOM     11  C   UNL     1       3.515  15.375  17.851  0.00  0.00    +0.000 C 
ATOM     12  O   UNL     1       3.145  16.536  17.087  0.00  0.00    +0.000 OA
ATOM     13  C   UNL     1       1.378  14.068  18.503  0.00  0.00    +0.000 C 
ATOM     14  C   UNL     1       2.295  13.120  19.344  0.00  0.00    +0.000 C 
ATOM     15  C   UNL     1       2.626  14.404  20.172  0.00  0.00    +0.000 C 
ATOM     16  H   UNL     1       1.002  16.823  19.388  0.00  0.00    +0.000 HD
ENDBRANCH   1  14
BRANCH   5  17
ATOM     17  O   UNL     1       2.321   8.162  19.067  0.00  0.00    +0.000 OA
BRANCH  17  18
ATOM     18  C   UNL     1       2.101   6.771  18.837  0.00  0.00    +0.000 C 
BRANCH  18  19
ATOM     19  C   UNL     1       3.280   6.125  18.158  0.00  0.00    +0.000 A 
ATOM     20  C   UNL     1       3.192   4.860  17.567  0.00  0.00    +0.000 A 
ATOM     21  C   UNL     1       4.286   4.320  16.885  0.00  0.00    +0.000 A 
ATOM     22  C   UNL     1       5.490   5.038  16.762  0.00  0.00    +0.000 A 
ATOM     23  C   UNL     1       5.570   6.308  17.342  0.00  0.00    +0.000 A 
ATOM     24 CL   UNL     1       6.994   7.278  17.237  0.00  0.00    +0.000 Cl
ATOM     25  C   UNL     1       4.475   6.845  18.030  0.00  0.00    +0.000 A 
BRANCH  22  26
ATOM     26  C   UNL     1       6.648   4.444  16.008  0.00  0.00    +0.000 C 
ATOM     27  F   UNL     1       7.098   5.248  15.000  0.00  0.00    +0.000 F 
ATOM     28  F   UNL     1       7.735   4.213  16.795  0.00  0.00    +0.000 F 
ATOM     29  F   UNL     1       6.346   3.258  15.411  0.00  0.00    +0.000 F 
ENDBRANCH  22  26
ENDBRANCH  18  19
ENDBRANCH  17  18
ENDBRANCH   5  17
TORSDOF 5
ENDMDL
MODEL 3
REMARK VINA RESULT:      -8.0      6.276     11.145
REMARK  Name = 
REMARK  5 active torsions:
REMARK  status: ('A' for Active; 'I' for Inactive)
REMARK    1  A    between atoms: C_8  and  C_9
REMARK    2  A    between atoms: C_13  and  O_14
REMARK    3  A    between atoms: O_14  and  C_15
REMARK    4  A    between atoms: C_15  and  C_16
REMARK    5  A    between atoms: C_19  and  C_20
REMARK                            x       y       z     vdW  Elec       q    Type
REMARK                         _______ _______ _______ _____ _____    ______ ____
ROOT
ATOM      1  C   UNL     1      -2.125  12.136  20.000  0.00  0.00    +0.000 C 
ATOM      2  O   UNL     1      -2.721  11.741  19.000  0.00  0.00    +0.000 OA
ATOM      3  N   UNL     1      -0.752  12.044  20.142  0.00  0.00    +0.000 N 
ATOM      4  C   UNL     1       0.186  11.481  19.190  0.00  0.00    +0.000 C 
ATOM      5  C   UNL     1       0.780  10.652  20.341  0.00  0.00    +0.000 C 
ATOM      6  C   UNL     1      -0.051  11.510  21.310  0.00  0.00    +0.000 C 
ENDROOT
BRANCH   1  14
ATOM      7  O   UNL     1      -7.326  13.271  24.314  0.00  0.00    +0.000 OA
ATOM      8  C   UNL     1      -6.198  13.433  23.874  0.00  0.00    +0.000 C 
ATOM      9  N   UNL     1      -5.378  12.444  23.414  0.00  0.00    +0.000 N 
ATOM     10  C   UNL     1      -4.246  13.004  22.711  0.00  0.00    +0.000 C 
ATOM     11  C   UNL     1      -4.252  14.426  23.240  0.00  0.00    +0.000 C 
ATOM     12  O   UNL     1      -5.587  14.645  23.725  0.00  0.00    +0.000 OA
ATOM     13  C   UNL     1      -4.339  12.866  21.177  0.00  0.00    +0.000 C 
ATOM     14  C   UNL     1      -2.775  12.870  21.191  0.00  0.00    +0.000 C 
ATOM     15  C   UNL     1      -2.924  12.202  22.597  0.00  0.00    +0.000 C 
ATOM     16  H   UNL     1      -5.769  11.517  23.334  0.00  0.00    +0.000 HD
ENDBRANCH   1  14
BRANCH   5  17
ATOM     17  O   UNL     1       0.495   9.230  20.342  0.00  0.00    +0.000 OA
BRANCH  17  18
ATOM     18  C   UNL     1       1.490   8.414  20.959  0.00  0.00    +0.000 C 
BRANCH  18  19
ATOM     19  C   UNL     1       1.859   7.237  20.094  0.00  0.00    +0.000 A 
ATOM     20  C   UNL     1       2.494   7.398  18.858  0.00  0.00    +0.000 A 
ATOM     21  C   UNL     1       2.885   6.282  18.114  0.00  0.00    +0.000 A 
ATOM     22  C   UNL     1       2.667   4.978  18.594  0.00  0.00    +0.000 A 
ATOM     23  C   UNL     1       2.044   4.821  19.836  0.00  0.00    +0.000 A 
ATOM     24 CL   UNL     1       1.742   3.266  20.522  0.00  0.00    +0.000 Cl
ATOM     25  C   UNL     1       1.648   5.940  20.578  0.00  0.00    +0.000 A 
BRANCH  22  26
ATOM     26  C   UNL     1       3.112   3.791  17.782  0.00  0.00    +0.000 C 
ATOM     27  F   UNL     1       3.817   4.142  16.666  0.00  0.00    +0.000 F 
ATOM     28  F   UNL     1       3.931   2.950  18.472  0.00  0.00    +0.000 F 
ATOM     29  F   UNL     1       2.077   3.034  17.328  0.00  0.00    +0.000 F 
ENDBRANCH  22  26
ENDBRANCH  18  19
ENDBRANCH  17  18
ENDBRANCH   5  17
TORSDOF 5
ENDMDL
MODEL 4
REMARK VINA RESULT:      -8.0      6.693     10.311
REMARK  Name = 
REMARK  5 active torsions:
REMARK  status: ('A' for Active; 'I' for Inactive)
REMARK    1  A    between atoms: C_8  and  C_9
REMARK    2  A    between atoms: C_13  and  O_14
REMARK    3  A    between atoms: O_14  and  C_15
REMARK    4  A    between atoms: C_15  and  C_16
REMARK    5  A    between atoms: C_19  and  C_20
REMARK                            x       y       z     vdW  Elec       q    Type
REMARK                         _______ _______ _______ _____ _____    ______ ____
ROOT
ATOM      1  C   UNL     1      -1.651  10.185  17.797  0.00  0.00    +0.000 C 
ATOM      2  O   UNL     1      -1.529   9.480  16.798  0.00  0.00    +0.000 OA
ATOM      3  N   UNL     1      -0.583  10.533  18.606  0.00  0.00    +0.000 N 
ATOM      4  C   UNL     1       0.802  10.138  18.437  0.00  0.00    +0.000 C 
ATOM      5  C   UNL     1       0.810   9.713  19.915  0.00  0.00    +0.000 C 
ATOM      6  C   UNL     1      -0.548  10.420  20.065  0.00  0.00    +0.000 C 
ENDROOT
BRANCH   1  14
ATOM      7  O   UNL     1      -7.532  13.471  16.549  0.00  0.00    +0.000 OA
ATOM      8  C   UNL     1      -6.694  12.932  17.256  0.00  0.00    +0.000 C 
ATOM      9  N   UNL     1      -6.013  11.791  16.947  0.00  0.00    +0.000 N 
ATOM     10  C   UNL     1      -4.909  11.592  17.858  0.00  0.00    +0.000 C 
ATOM     11  C   UNL     1      -5.326  12.479  19.017  0.00  0.00    +0.000 C 
ATOM     12  O   UNL     1      -6.263  13.416  18.458  0.00  0.00    +0.000 OA
ATOM     13  C   UNL     1      -3.530  11.909  17.242  0.00  0.00    +0.000 C 
ATOM     14  C   UNL     1      -2.958  10.864  18.254  0.00  0.00    +0.000 C 
ATOM     15  C   UNL     1      -4.351  10.167  18.108  0.00  0.00    +0.000 C 
ATOM     16  H   UNL     1      -6.133  11.415  16.018  0.00  0.00    +0.000 HD
ENDBRANCH   1  14
BRANCH   5  17
ATOM     17  O   UNL     1       0.822   8.289  20.190  0.00  0.00    +0.000 OA
BRANCH  17  18
ATOM     18  C   UNL     1       2.119   7.702  20.286  0.00  0.00    +0.000 C 
BRANCH  18  19
ATOM     19  C   UNL     1       2.121   6.274  19.807  0.00  0.00    +0.000 A 
ATOM     20  C   UNL     1       2.401   5.941  18.477  0.00  0.00    +0.000 A 
ATOM     21  C   UNL     1       2.463   4.602  18.082  0.00  0.00    +0.000 A 
ATOM     22  C   UNL     1       2.263   3.562  19.009  0.00  0.00    +0.000 A 
ATOM     23  C   UNL     1       1.996   3.900  20.340  0.00  0.00    +0.000 A 
ATOM     24 CL   UNL     1       1.749   2.702  21.559  0.00  0.00    +0.000 Cl
ATOM     25  C   UNL     1       1.929   5.241  20.733  0.00  0.00    +0.000 A 
BRANCH  22  26
ATOM     26  C   UNL     1       2.351   2.128  18.564  0.00  0.00    +0.000 C 
ATOM     27  F   UNL     1       1.281   1.379  18.960  0.00  0.00    +0.000 F 
ATOM     28  F   UNL     1       2.402   1.992  17.210  0.00  0.00    +0.000 F 
ATOM     29  F   UNL     1       3.442   1.481  19.058  0.00  0.00    +0.000 F 
ENDBRANCH  22  26
ENDBRANCH  18  19
ENDBRANCH  17  18
ENDBRANCH   5  17
TORSDOF 5
ENDMDL
MODEL 5
REMARK VINA RESULT:      -7.9      3.299      4.140
REMARK  Name = 
REMARK  5 active torsions:
REMARK  status: ('A' for Active; 'I' for Inactive)
REMARK    1  A    between atoms: C_8  and  C_9
REMARK    2  A    between atoms: C_13  and  O_14
REMARK    3  A    between atoms: O_14  and  C_15
REMARK    4  A    between atoms: C_15  and  C_16
REMARK    5  A    between atoms: C_19  and  C_20
REMARK                            x       y       z     vdW  Elec       q    Type
REMARK                         _______ _______ _______ _____ _____    ______ ____
ROOT
ATOM      1  C   UNL     1       2.058   5.901  19.642  0.00  0.00    +0.000 C 
ATOM      2  O   UNL     1       1.268   5.287  20.357  0.00  0.00    +0.000 OA
ATOM      3  N   UNL     1       2.281   7.261  19.764  0.00  0.00    +0.000 N 
ATOM      4  C   UNL     1       1.645   8.167  20.702  0.00  0.00    +0.000 C 
ATOM      5  C   UNL     1       1.339   9.100  19.517  0.00  0.00    +0.000 C 
ATOM      6  C   UNL     1       2.276   8.227  18.664  0.00  0.00    +0.000 C 
ENDROOT
BRANCH   1  14
ATOM      7  O   UNL     1       8.242   4.230  17.210  0.00  0.00    +0.000 OA
ATOM      8  C   UNL     1       7.020   4.256  17.204  0.00  0.00    +0.000 C 
ATOM      9  N   UNL     1       6.221   4.111  18.300  0.00  0.00    +0.000 N 
ATOM     10  C   UNL     1       4.857   4.474  17.990  0.00  0.00    +0.000 C 
ATOM     11  C   UNL     1       4.869   4.374  16.475  0.00  0.00    +0.000 C 
ATOM     12  O   UNL     1       6.252   4.483  16.100  0.00  0.00    +0.000 OA
ATOM     13  C   UNL     1       4.434   5.844  18.561  0.00  0.00    +0.000 C 
ATOM     14  C   UNL     1       2.982   5.263  18.584  0.00  0.00    +0.000 C 
ATOM     15  C   UNL     1       3.685   3.887  18.817  0.00  0.00    +0.000 C 
ATOM     16  H   UNL     1       6.671   4.083  19.203  0.00  0.00    +0.000 HD
ENDBRANCH   1  14
BRANCH   5  17
ATOM     17  O   UNL     1      -0.040   9.173  19.078  0.00  0.00    +0.000 OA
BRANCH  17  18
ATOM     18  C   UNL     1      -0.336  10.253  18.193  0.00  0.00    +0.000 C 
BRANCH  18  19
ATOM     19  C   UNL     1      -1.790  10.642  18.256  0.00  0.00    +0.000 A 
ATOM     20  C   UNL     1      -2.775   9.939  17.553  0.00  0.00    +0.000 A 
ATOM     21  C   UNL     1      -4.122  10.284  17.689  0.00  0.00    +0.000 A 
ATOM     22  C   UNL     1      -4.521  11.330  18.542  0.00  0.00    +0.000 A 
ATOM     23  C   UNL     1      -3.534  12.021  19.252  0.00  0.00    +0.000 A 
ATOM     24 CL   UNL     1      -3.917  13.310  20.336  0.00  0.00    +0.000 Cl
ATOM     25  C   UNL     1      -2.185  11.678  19.112  0.00  0.00    +0.000 A 
BRANCH  22  26
ATOM     26  C   UNL     1      -5.979  11.671  18.685  0.00  0.00    +0.000 C 
ATOM     27  F   UNL     1      -6.793  10.851  17.958  0.00  0.00    +0.000 F 
ATOM     28  F   UNL     1      -6.426  11.575  19.967  0.00  0.00    +0.000 F 
ATOM     29  F   UNL     1      -6.276  12.932  18.267  0.00  0.00    +0.000 F 
ENDBRANCH  22  26
ENDBRANCH  18  19
ENDBRANCH  17  18
ENDBRANCH   5  17
TORSDOF 5
ENDMDL
MODEL 6
REMARK VINA RESULT:      -7.9      5.958     10.581
REMARK  Name = 
REMARK  5 active torsions:
REMARK  status: ('A' for Active; 'I' for Inactive)
REMARK    1  A    between atoms: C_8  and  C_9
REMARK    2  A    between atoms: C_13  and  O_14
REMARK    3  A    between atoms: O_14  and  C_15
REMARK    4  A    between atoms: C_15  and  C_16
REMARK    5  A    between atoms: C_19  and  C_20
REMARK                            x       y       z     vdW  Elec       q    Type
REMARK                         _______ _______ _______ _____ _____    ______ ____
ROOT
ATOM      1  C   UNL     1      -1.553  12.116  19.448  0.00  0.00    +0.000 C 
ATOM      2  O   UNL     1      -2.048  12.233  18.329  0.00  0.00    +0.000 OA
ATOM      3  N   UNL     1      -0.194  11.959  19.655  0.00  0.00    +0.000 N 
ATOM      4  C   UNL     1       0.840  11.894  18.640  0.00  0.00    +0.000 C 
ATOM      5  C   UNL     1       1.365  10.621  19.325  0.00  0.00    +0.000 C 
ATOM      6  C   UNL     1       0.426  10.938  20.502  0.00  0.00    +0.000 C 
ENDROOT
BRANCH   1  14
ATOM      7  O   UNL     1      -4.069  15.669  24.739  0.00  0.00    +0.000 OA
ATOM      8  C   UNL     1      -3.882  14.664  24.069  0.00  0.00    +0.000 C 
ATOM      9  N   UNL     1      -3.901  14.606  22.706  0.00  0.00    +0.000 N 
ATOM     10  C   UNL     1      -3.366  13.348  22.240  0.00  0.00    +0.000 C 
ATOM     11  C   UNL     1      -3.494  12.498  23.492  0.00  0.00    +0.000 C 
ATOM     12  O   UNL     1      -3.574  13.436  24.579  0.00  0.00    +0.000 OA
ATOM     13  C   UNL     1      -1.943  13.457  21.654  0.00  0.00    +0.000 C 
ATOM     14  C   UNL     1      -2.326  12.218  20.779  0.00  0.00    +0.000 C 
ATOM     15  C   UNL     1      -3.779  12.789  20.854  0.00  0.00    +0.000 C 
ATOM     16  H   UNL     1      -3.972  15.480  22.205  0.00  0.00    +0.000 HD
ENDBRANCH   1  14
BRANCH   5  17
ATOM     17  O   UNL     1       1.132   9.363  18.644  0.00  0.00    +0.000 OA
BRANCH  17  18
ATOM     18  C   UNL     1       2.303   8.593  18.378  0.00  0.00    +0.000 C 
BRANCH  18  19
ATOM     19  C   UNL     1       2.184   7.193  18.921  0.00  0.00    +0.000 A 
ATOM     20  C   UNL     1       1.862   6.944  20.260  0.00  0.00    +0.000 A 
ATOM     21  C   UNL     1       1.691   5.634  20.714  0.00  0.00    +0.000 A 
ATOM     22  C   UNL     1       1.823   4.540  19.839  0.00  0.00    +0.000 A 
ATOM     23  C   UNL     1       2.133   4.794  18.499  0.00  0.00    +0.000 A 
ATOM     24 CL   UNL     1       2.302   3.525  17.340  0.00  0.00    +0.000 Cl
ATOM     25  C   UNL     1       2.308   6.106  18.046  0.00  0.00    +0.000 A 
BRANCH  22  26
ATOM     26  C   UNL     1       1.618   3.139  20.348  0.00  0.00    +0.000 C 
ATOM     27  F   UNL     1       2.732   2.360  20.229  0.00  0.00    +0.000 F 
ATOM     28  F   UNL     1       1.289   3.094  21.668  0.00  0.00    +0.000 F 
ATOM     29  F   UNL     1       0.638   2.467  19.683  0.00  0.00    +0.000 F 
ENDBRANCH  22  26
ENDBRANCH  18  19
ENDBRANCH  17  18
ENDBRANCH   5  17
TORSDOF 5
ENDMDL
MODEL 7
REMARK VINA RESULT:      -7.9      6.755      9.857
REMARK  Name = 
REMARK  5 active torsions:
REMARK  status: ('A' for Active; 'I' for Inactive)
REMARK    1  A    between atoms: C_8  and  C_9
REMARK    2  A    between atoms: C_13  and  O_14
REMARK    3  A    between atoms: O_14  and  C_15
REMARK    4  A    between atoms: C_15  and  C_16
REMARK    5  A    between atoms: C_19  and  C_20
REMARK                            x       y       z     vdW  Elec       q    Type
REMARK                         _______ _______ _______ _____ _____    ______ ____
ROOT
ATOM      1  C   UNL     1       1.276  12.084  20.260  0.00  0.00    +0.000 C 
ATOM      2  O   UNL     1       0.890  11.695  21.360  0.00  0.00    +0.000 OA
ATOM      3  N   UNL     1       1.005  11.405  19.086  0.00  0.00    +0.000 N 
ATOM      4  C   UNL     1       0.263  10.166  18.947  0.00  0.00    +0.000 C 
ATOM      5  C   UNL     1       1.422   9.624  18.093  0.00  0.00    +0.000 C 
ATOM      6  C   UNL     1       1.986  11.055  18.057  0.00  0.00    +0.000 C 
ENDROOT
BRANCH   1  14
ATOM      7  O   UNL     1       1.490  18.626  18.236  0.00  0.00    +0.000 OA
ATOM      8  C   UNL     1       1.957  17.592  18.690  0.00  0.00    +0.000 C 
ATOM      9  N   UNL     1       1.329  16.758  19.567  0.00  0.00    +0.000 N 
ATOM     10  C   UNL     1       2.034  15.502  19.673  0.00  0.00    +0.000 C 
ATOM     11  C   UNL     1       3.400  15.890  19.135  0.00  0.00    +0.000 C 
ATOM     12  O   UNL     1       3.174  17.075  18.351  0.00  0.00    +0.000 OA
ATOM     13  C   UNL     1       1.339  14.335  18.940  0.00  0.00    +0.000 C 
ATOM     14  C   UNL     1       2.024  13.407  19.995  0.00  0.00    +0.000 C 
ATOM     15  C   UNL     1       1.901  14.637  20.953  0.00  0.00    +0.000 C 
ATOM     16  H   UNL     1       0.362  16.953  19.782  0.00  0.00    +0.000 HD
ENDBRANCH   1  14
BRANCH   5  17
ATOM     17  O   UNL     1       2.271   8.619  18.700  0.00  0.00    +0.000 OA
BRANCH  17  18
ATOM     18  C   UNL     1       3.090   7.888  17.788  0.00  0.00    +0.000 C 
BRANCH  18  19
ATOM     19  C   UNL     1       3.076   6.411  18.087  0.00  0.00    +0.000 A 
ATOM     20  C   UNL     1       3.781   5.491  17.303  0.00  0.00    +0.000 A 
ATOM     21  C   UNL     1       3.803   4.138  17.650  0.00  0.00    +0.000 A 
ATOM     22  C   UNL     1       3.134   3.672  18.797  0.00  0.00    +0.000 A 
ATOM     23  C   UNL     1       2.441   4.597  19.585  0.00  0.00    +0.000 A 
ATOM     24 CL   UNL     1       1.600   4.133  21.019  0.00  0.00    +0.000 Cl
ATOM     25  C   UNL     1       2.416   5.951  19.234  0.00  0.00    +0.000 A 
BRANCH  22  26
ATOM     26  C   UNL     1       3.186   2.213  19.159  0.00  0.00    +0.000 C 
ATOM     27  F   UNL     1       3.738   1.439  18.178  0.00  0.00    +0.000 F 
ATOM     28  F   UNL     1       3.931   1.966  20.271  0.00  0.00    +0.000 F 
ATOM     29  F   UNL     1       1.958   1.675  19.390  0.00  0.00    +0.000 F 
ENDBRANCH  22  26
ENDBRANCH  18  19
ENDBRANCH  17  18
ENDBRANCH   5  17
TORSDOF 5
ENDMDL
MODEL 8
REMARK VINA RESULT:      -7.9      1.568      2.157
REMARK  Name = 
REMARK  5 active torsions:
REMARK  status: ('A' for Active; 'I' for Inactive)
REMARK    1  A    between atoms: C_8  and  C_9
REMARK    2  A    between atoms: C_13  and  O_14
REMARK    3  A    between atoms: O_14  and  C_15
REMARK    4  A    between atoms: C_15  and  C_16
REMARK    5  A    between atoms: C_19  and  C_20
REMARK                            x       y       z     vdW  Elec       q    Type
REMARK                         _______ _______ _______ _____ _____    ______ ____
ROOT
ATOM      1  C   UNL     1       2.646   4.476  18.027  0.00  0.00    +0.000 C 
ATOM      2  O   UNL     1       1.712   4.339  17.240  0.00  0.00    +0.000 OA
ATOM      3  N   UNL     1       2.486   4.427  19.400  0.00  0.00    +0.000 N 
ATOM      4  C   UNL     1       1.245   4.228  20.125  0.00  0.00    +0.000 C 
ATOM      5  C   UNL     1       1.605   5.455  20.981  0.00  0.00    +0.000 C 
ATOM      6  C   UNL     1       3.010   5.405  20.355  0.00  0.00    +0.000 C 
ENDROOT
BRANCH   1  14
ATOM      7  O   UNL     1       7.630   5.305  13.399  0.00  0.00    +0.000 OA
ATOM      8  C   UNL     1       7.176   5.187  14.527  0.00  0.00    +0.000 C 
ATOM      9  N   UNL     1       6.023   5.758  14.980  0.00  0.00    +0.000 N 
ATOM     10  C   UNL     1       5.635   5.191  16.251  0.00  0.00    +0.000 C 
ATOM     11  C   UNL     1       6.949   4.583  16.709  0.00  0.00    +0.000 C 
ATOM     12  O   UNL     1       7.728   4.419  15.511  0.00  0.00    +0.000 OA
ATOM     13  C   UNL     1       4.448   4.210  16.156  0.00  0.00    +0.000 C 
ATOM     14  C   UNL     1       4.130   4.624  17.630  0.00  0.00    +0.000 C 
ATOM     15  C   UNL     1       4.749   6.002  17.230  0.00  0.00    +0.000 C 
ATOM     16  H   UNL     1       5.443   6.233  14.303  0.00  0.00    +0.000 HD
ENDBRANCH   1  14
BRANCH   5  17
ATOM     17  O   UNL     1       0.845   6.666  20.745  0.00  0.00    +0.000 OA
BRANCH  17  18
ATOM     18  C   UNL     1       1.501   7.875  21.123  0.00  0.00    +0.000 C 
BRANCH  18  19
ATOM     19  C   UNL     1       0.806   9.086  20.558  0.00  0.00    +0.000 A 
ATOM     20  C   UNL     1       0.885   9.418  19.201  0.00  0.00    +0.000 A 
ATOM     21  C   UNL     1       0.172  10.509  18.697  0.00  0.00    +0.000 A 
ATOM     22  C   UNL     1      -0.651  11.286  19.533  0.00  0.00    +0.000 A 
ATOM     23  C   UNL     1      -0.737  10.944  20.886  0.00  0.00    +0.000 A 
ATOM     24 CL   UNL     1      -1.729  11.822  21.994  0.00  0.00    +0.000 Cl
ATOM     25  C   UNL     1      -0.019   9.854  21.391  0.00  0.00    +0.000 A 
BRANCH  22  26
ATOM     26  C   UNL     1      -1.423  12.445  18.964  0.00  0.00    +0.000 C 
ATOM     27  F   UNL     1      -2.775  12.301  19.092  0.00  0.00    +0.000 F 
ATOM     28  F   UNL     1      -1.130  13.629  19.568  0.00  0.00    +0.000 F 
ATOM     29  F   UNL     1      -1.208  12.629  17.632  0.00  0.00    +0.000 F 
ENDBRANCH  22  26
ENDBRANCH  18  19
ENDBRANCH  17  18
ENDBRANCH   5  17
TORSDOF 5
ENDMDL
MODEL 9
REMARK VINA RESULT:      -7.9      6.705      9.657
REMARK  Name = 
REMARK  5 active torsions:
REMARK  status: ('A' for Active; 'I' for Inactive)
REMARK    1  A    between atoms: C_8  and  C_9
REMARK    2  A    between atoms: C_13  and  O_14
REMARK    3  A    between atoms: O_14  and  C_15
REMARK    4  A    between atoms: C_15  and  C_16
REMARK    5  A    between atoms: C_19  and  C_20
REMARK                            x       y       z     vdW  Elec       q    Type
REMARK                         _______ _______ _______ _____ _____    ______ ____
ROOT
ATOM      1  C   UNL     1       0.853  12.679  20.603  0.00  0.00    +0.000 C 
ATOM      2  O   UNL     1       0.590  12.602  21.801  0.00  0.00    +0.000 OA
ATOM      3  N   UNL     1       0.370  11.781  19.668  0.00  0.00    +0.000 N 
ATOM      4  C   UNL     1      -0.483  10.635  19.922  0.00  0.00    +0.000 C 
ATOM      5  C   UNL     1       0.501   9.783  19.101  0.00  0.00    +0.000 C 
ATOM      6  C   UNL     1       1.170  11.094  18.653  0.00  0.00    +0.000 C 
ENDROOT
BRANCH   1  14
ATOM      7  O   UNL     1       1.324  18.631  17.241  0.00  0.00    +0.000 OA
ATOM      8  C   UNL     1       1.765  17.646  17.814  0.00  0.00    +0.000 C 
ATOM      9  N   UNL     1       1.241  17.087  18.943  0.00  0.00    +0.000 N 
ATOM     10  C   UNL     1       1.822  15.787  19.187  0.00  0.00    +0.000 C 
ATOM     11  C   UNL     1       3.086  15.874  18.351  0.00  0.00    +0.000 C 
ATOM     12  O   UNL     1       2.832  16.910  17.387  0.00  0.00    +0.000 OA
ATOM     13  C   UNL     1       0.882  14.612  18.848  0.00  0.00    +0.000 C 
ATOM     14  C   UNL     1       1.664  13.812  19.940  0.00  0.00    +0.000 C 
ATOM     15  C   UNL     1       1.857  15.205  20.624  0.00  0.00    +0.000 C 
ATOM     16  H   UNL     1       0.360  17.451  19.276  0.00  0.00    +0.000 HD
ENDBRANCH   1  14
BRANCH   5  17
ATOM     17  O   UNL     1       1.340   8.857  19.836  0.00  0.00    +0.000 OA
BRANCH  17  18
ATOM     18  C   UNL     1       2.284   8.138  19.045  0.00  0.00    +0.000 C 
BRANCH  18  19
ATOM     19  C   UNL     1       2.173   6.651  19.260  0.00  0.00    +0.000 A 
ATOM     20  C   UNL     1       1.736   6.110  20.473  0.00  0.00    +0.000 A 
ATOM     21  C   UNL     1       1.578   4.729  20.616  0.00  0.00    +0.000 A 
ATOM     22  C   UNL     1       1.838   3.855  19.544  0.00  0.00    +0.000 A 
ATOM     23  C   UNL     1       2.262   4.401  18.328  0.00  0.00    +0.000 A 
ATOM     24 CL   UNL     1       2.594   3.419  16.947  0.00  0.00    +0.000 Cl
ATOM     25  C   UNL     1       2.425   5.784  18.189  0.00  0.00    +0.000 A 
BRANCH  22  26
ATOM     26  C   UNL     1       1.644   2.373  19.716  0.00  0.00    +0.000 C 
ATOM     27  F   UNL     1       1.358   2.018  21.003  0.00  0.00    +0.000 F 
ATOM     28  F   UNL     1       0.617   1.879  18.971  0.00  0.00    +0.000 F 
ATOM     29  F   UNL     1       2.746   1.647  19.381  0.00  0.00    +0.000 F 
ENDBRANCH  22  26
ENDBRANCH  18  19
ENDBRANCH  17  18
ENDBRANCH   5  17
TORSDOF 5
ENDMDL
