MODEL 1
REMARK VINA RESULT:      -7.3      0.000      0.000
REMARK  Name = 
REMARK  6 active torsions:
REMARK  status: ('A' for Active; 'I' for Inactive)
REMARK    1  A    between atoms: C_1  and  N_2
REMARK    2  A    between atoms: N_2  and  C_3
REMARK    3  A    between atoms: N_2  and  C_4
REMARK    4  A    between atoms: C_7  and  C_8
REMARK    5  A    between atoms: C_8  and  C_9
REMARK    6  A    between atoms: N_12  and  C_13
REMARK                            x       y       z     vdW  Elec       q    Type
REMARK                         _______ _______ _______ _____ _____    ______ ____
ROOT
ATOM      1  C   UNL     1       0.596  10.279  19.359  0.00  0.00    +0.000 C 
ATOM      2  C   UNL     1       0.632  11.521  20.253  0.00  0.00    +0.000 C 
ATOM      3  O   UNL     1       1.640  12.008  20.757  0.00  0.00    +0.000 OA
ATOM      4  N   UNL     1      -0.697  11.832  20.600  0.00  0.00    +0.000 N 
ATOM      5  C   UNL     1      -1.038  11.518  21.983  0.00  0.00    +0.000 C 
ATOM      6  C   UNL     1      -1.522  11.297  19.599  0.00  0.00    +0.000 A 
ATOM      7  C   UNL     1      -2.736  11.835  19.205  0.00  0.00    +0.000 A 
ATOM      8  C   UNL     1      -3.198  11.506  17.930  0.00  0.00    +0.000 A 
ATOM      9  C   UNL     1      -2.474  10.598  17.122  0.00  0.00    +0.000 A 
ATOM     10 BR   UNL     1      -3.039  10.326  15.335  0.00  0.00    +0.000 Br
ATOM     11  C   UNL     1      -1.280  10.007  17.568  0.00  0.00    +0.000 A 
ATOM     12  C   UNL     1      -0.794  10.395  18.809  0.00  0.00    +0.000 A 
ENDROOT
BRANCH   1  13
ATOM     13  C   UNL     1       0.922   9.201  20.409  0.00  0.00    +0.000 C 
BRANCH  13  17
ATOM     14  C   UNL     1       2.634   5.460  19.077  0.00  0.00    +0.000 A 
ATOM     15  C   UNL     1       2.003   5.585  20.328  0.00  0.00    +0.000 A 
ATOM     16  C   UNL     1       1.512   6.803  20.800  0.00  0.00    +0.000 A 
ATOM     17  C   UNL     1       1.618   7.943  20.013  0.00  0.00    +0.000 A 
ATOM     18  C   UNL     1       2.208   7.845  18.751  0.00  0.00    +0.000 A 
ATOM     19  C   UNL     1       2.699   6.622  18.292  0.00  0.00    +0.000 A 
BRANCH  14  21
ATOM     20  C   UNL     1       2.319   3.444  17.708  0.00  0.00    +0.000 C 
ATOM     21  N   UNL     1       3.136   4.238  18.617  0.00  0.00    +0.000 N 
ATOM     22  C   UNL     1       4.037   3.500  19.499  0.00  0.00    +0.000 C 
ENDBRANCH  14  21
ENDBRANCH  13  17
ENDBRANCH   1  13
TORSDOF 3
ENDMDL
MODEL 2
REMARK VINA RESULT:      -7.1      0.937      1.401
REMARK  Name = 
REMARK  6 active torsions:
REMARK  status: ('A' for Active; 'I' for Inactive)
REMARK    1  A    between atoms: C_1  and  N_2
REMARK    2  A    between atoms: N_2  and  C_3
REMARK    3  A    between atoms: N_2  and  C_4
REMARK    4  A    between atoms: C_7  and  C_8
REMARK    5  A    between atoms: C_8  and  C_9
REMARK    6  A    between atoms: N_12  and  C_13
REMARK                            x       y       z     vdW  Elec       q    Type
REMARK                         _______ _______ _______ _____ _____    ______ ____
ROOT
ATOM      1  C   UNL     1       0.604  10.374  18.774  0.00  0.00    +0.000 C 
ATOM      2  C   UNL     1       0.627  11.589  19.704  0.00  0.00    +0.000 C 
ATOM      3  O   UNL     1       1.637  12.132  20.143  0.00  0.00    +0.000 OA
ATOM      4  N   UNL     1      -0.688  11.795  20.164  0.00  0.00    +0.000 N 
ATOM      5  C   UNL     1      -0.893  11.419  21.558  0.00  0.00    +0.000 C 
ATOM      6  C   UNL     1      -1.552  11.232  19.214  0.00  0.00    +0.000 A 
ATOM      7  C   UNL     1      -2.829  11.694  18.936  0.00  0.00    +0.000 A 
ATOM      8  C   UNL     1      -3.369  11.369  17.691  0.00  0.00    +0.000 A 
ATOM      9  C   UNL     1      -2.652  10.537  16.798  0.00  0.00    +0.000 A 
ATOM     10 BR   UNL     1      -3.340  10.276  15.053  0.00  0.00    +0.000 Br
ATOM     11  C   UNL     1      -1.389  10.020  17.128  0.00  0.00    +0.000 A 
ATOM     12  C   UNL     1      -0.831  10.406  18.340  0.00  0.00    +0.000 A 
ENDROOT
BRANCH   1  13
ATOM     13  C   UNL     1       1.087   9.292  19.758  0.00  0.00    +0.000 C 
BRANCH  13  17
ATOM     14  C   UNL     1       3.640   6.026  18.529  0.00  0.00    +0.000 A 
ATOM     15  C   UNL     1       3.440   7.158  17.717  0.00  0.00    +0.000 A 
ATOM     16  C   UNL     1       2.561   8.184  18.070  0.00  0.00    +0.000 A 
ATOM     17  C   UNL     1       1.866   8.118  19.271  0.00  0.00    +0.000 A 
ATOM     18  C   UNL     1       2.070   7.024  20.115  0.00  0.00    +0.000 A 
ATOM     19  C   UNL     1       2.948   6.003  19.750  0.00  0.00    +0.000 A 
BRANCH  14  21
ATOM     20  C   UNL     1       4.589   4.611  16.758  0.00  0.00    +0.000 C 
ATOM     21  N   UNL     1       4.511   4.995  18.162  0.00  0.00    +0.000 N 
ATOM     22  C   UNL     1       4.765   3.941  19.142  0.00  0.00    +0.000 C 
ENDBRANCH  14  21
ENDBRANCH  13  17
ENDBRANCH   1  13
TORSDOF 3
ENDMDL
MODEL 3
REMARK VINA RESULT:      -7.1      1.172      1.367
REMARK  Name = 
REMARK  6 active torsions:
REMARK  status: ('A' for Active; 'I' for Inactive)
REMARK    1  A    between atoms: C_1  and  N_2
REMARK    2  A    between atoms: N_2  and  C_3
REMARK    3  A    between atoms: N_2  and  C_4
REMARK    4  A    between atoms: C_7  and  C_8
REMARK    5  A    between atoms: C_8  and  C_9
REMARK    6  A    between atoms: N_12  and  C_13
REMARK                            x       y       z     vdW  Elec       q    Type
REMARK                         _______ _______ _______ _____ _____    ______ ____
ROOT
ATOM      1  C   UNL     1      -0.194  11.134  18.712  0.00  0.00    +0.000 C 
ATOM      2  C   UNL     1      -0.508  12.398  19.515  0.00  0.00    +0.000 C 
ATOM      3  O   UNL     1       0.324  13.156  20.006  0.00  0.00    +0.000 OA
ATOM      4  N   UNL     1      -1.886  12.384  19.806  0.00  0.00    +0.000 N 
ATOM      5  C   UNL     1      -2.194  12.084  21.200  0.00  0.00    +0.000 C 
ATOM      6  C   UNL     1      -2.508  11.595  18.827  0.00  0.00    +0.000 A 
ATOM      7  C   UNL     1      -3.801  11.782  18.367  0.00  0.00    +0.000 A 
ATOM      8  C   UNL     1      -4.112  11.265  17.108  0.00  0.00    +0.000 A 
ATOM      9  C   UNL     1      -3.150  10.520  16.385  0.00  0.00    +0.000 A 
ATOM     10 BR   UNL     1      -3.554  10.000  14.610  0.00  0.00    +0.000 Br
ATOM     11  C   UNL     1      -1.866  10.281  16.902  0.00  0.00    +0.000 A 
ATOM     12  C   UNL     1      -1.545  10.858  18.123  0.00  0.00    +0.000 A 
ENDROOT
BRANCH   1  13
ATOM     13  C   UNL     1       0.348  10.242  19.845  0.00  0.00    +0.000 C 
BRANCH  13  17
ATOM     14  C   UNL     1       2.747   6.792  18.827  0.00  0.00    +0.000 A 
ATOM     15  C   UNL     1       2.172   6.947  20.102  0.00  0.00    +0.000 A 
ATOM     16  C   UNL     1       1.458   8.089  20.465  0.00  0.00    +0.000 A 
ATOM     17  C   UNL     1       1.275   9.114  19.545  0.00  0.00    +0.000 A 
ATOM     18  C   UNL     1       1.803   8.975  18.259  0.00  0.00    +0.000 A 
ATOM     19  C   UNL     1       2.519   7.829  17.909  0.00  0.00    +0.000 A 
BRANCH  14  21
ATOM     20  C   UNL     1       2.781   4.565  17.788  0.00  0.00    +0.000 C 
ATOM     21  N   UNL     1       3.473   5.649  18.474  0.00  0.00    +0.000 N 
ATOM     22  C   UNL     1       4.597   5.271  19.327  0.00  0.00    +0.000 C 
ENDBRANCH  14  21
ENDBRANCH  13  17
ENDBRANCH   1  13
TORSDOF 3
ENDMDL
MODEL 4
REMARK VINA RESULT:      -6.9      3.330      7.810
REMARK  Name = 
REMARK  6 active torsions:
REMARK  status: ('A' for Active; 'I' for Inactive)
REMARK    1  A    between atoms: C_1  and  N_2
REMARK    2  A    between atoms: N_2  and  C_3
REMARK    3  A    between atoms: N_2  and  C_4
REMARK    4  A    between atoms: C_7  and  C_8
REMARK    5  A    between atoms: C_8  and  C_9
REMARK    6  A    between atoms: N_12  and  C_13
REMARK                            x       y       z     vdW  Elec       q    Type
REMARK                         _______ _______ _______ _____ _____    ______ ____
ROOT
ATOM      1  C   UNL     1       4.147   6.013  18.895  0.00  0.00    +0.000 C 
ATOM      2  C   UNL     1       5.319   5.519  18.043  0.00  0.00    +0.000 C 
ATOM      3  O   UNL     1       6.354   6.143  17.823  0.00  0.00    +0.000 OA
ATOM      4  N   UNL     1       4.889   4.365  17.360  0.00  0.00    +0.000 N 
ATOM      5  C   UNL     1       4.654   4.573  15.936  0.00  0.00    +0.000 C 
ATOM      6  C   UNL     1       3.842   3.807  18.108  0.00  0.00    +0.000 A 
ATOM      7  C   UNL     1       3.549   2.454  18.170  0.00  0.00    +0.000 A 
ATOM      8  C   UNL     1       2.829   2.006  19.279  0.00  0.00    +0.000 A 
ATOM      9  C   UNL     1       2.365   2.927  20.247  0.00  0.00    +0.000 A 
ATOM     10 BR   UNL     1       1.556   2.255  21.822  0.00  0.00    +0.000 Br
ATOM     11  C   UNL     1       2.611   4.305  20.129  0.00  0.00    +0.000 A 
ATOM     12  C   UNL     1       3.387   4.732  19.060  0.00  0.00    +0.000 A 
ENDROOT
BRANCH   1  13
ATOM     13  C   UNL     1       3.606   7.116  17.966  0.00  0.00    +0.000 C 
BRANCH  13  17
ATOM     14  C   UNL     1       0.634   9.928  19.366  0.00  0.00    +0.000 A 
ATOM     15  C   UNL     1       1.087   8.864  20.168  0.00  0.00    +0.000 A 
ATOM     16  C   UNL     1       1.990   7.908  19.701  0.00  0.00    +0.000 A 
ATOM     17  C   UNL     1       2.492   8.002  18.409  0.00  0.00    +0.000 A 
ATOM     18  C   UNL     1       2.090   9.067  17.600  0.00  0.00    +0.000 A 
ATOM     19  C   UNL     1       1.182  10.014  18.076  0.00  0.00    +0.000 A 
BRANCH  14  21
ATOM     20  C   UNL     1      -0.572  10.919  21.263  0.00  0.00    +0.000 C 
ATOM     21  N   UNL     1      -0.282  10.874  19.835  0.00  0.00    +0.000 N 
ATOM     22  C   UNL     1      -1.362  11.276  18.937  0.00  0.00    +0.000 C 
ENDBRANCH  14  21
ENDBRANCH  13  17
ENDBRANCH   1  13
TORSDOF 3
ENDMDL
MODEL 5
REMARK VINA RESULT:      -6.9      3.288      7.808
REMARK  Name = 
REMARK  6 active torsions:
REMARK  status: ('A' for Active; 'I' for Inactive)
REMARK    1  A    between atoms: C_1  and  N_2
REMARK    2  A    between atoms: N_2  and  C_3
REMARK    3  A    between atoms: N_2  and  C_4
REMARK    4  A    between atoms: C_7  and  C_8
REMARK    5  A    between atoms: C_8  and  C_9
REMARK    6  A    between atoms: N_12  and  C_13
REMARK                            x       y       z     vdW  Elec       q    Type
REMARK                         _______ _______ _______ _____ _____    ______ ____
ROOT
ATOM      1  C   UNL     1       3.979   6.144  18.901  0.00  0.00    +0.000 C 
ATOM      2  C   UNL     1       5.189   5.711  18.071  0.00  0.00    +0.000 C 
ATOM      3  O   UNL     1       6.187   6.393  17.855  0.00  0.00    +0.000 OA
ATOM      4  N   UNL     1       4.839   4.524  17.398  0.00  0.00    +0.000 N 
ATOM      5  C   UNL     1       4.610   4.699  15.968  0.00  0.00    +0.000 C 
ATOM      6  C   UNL     1       3.817   3.914  18.141  0.00  0.00    +0.000 A 
ATOM      7  C   UNL     1       3.606   2.546  18.217  0.00  0.00    +0.000 A 
ATOM      8  C   UNL     1       2.900   2.070  19.323  0.00  0.00    +0.000 A 
ATOM      9  C   UNL     1       2.368   2.973  20.273  0.00  0.00    +0.000 A 
ATOM     10 BR   UNL     1       1.582   2.274  21.847  0.00  0.00    +0.000 Br
ATOM     11  C   UNL     1       2.533   4.361  20.140  0.00  0.00    +0.000 A 
ATOM     12  C   UNL     1       3.295   4.821  19.074  0.00  0.00    +0.000 A 
ENDROOT
BRANCH   1  13
ATOM     13  C   UNL     1       3.384   7.200  17.951  0.00  0.00    +0.000 C 
BRANCH  13  17
ATOM     14  C   UNL     1       0.281   9.865  19.353  0.00  0.00    +0.000 A 
ATOM     15  C   UNL     1       0.720   9.874  18.017  0.00  0.00    +0.000 A 
ATOM     16  C   UNL     1       1.771   9.071  17.570  0.00  0.00    +0.000 A 
ATOM     17  C   UNL     1       2.405   8.206  18.452  0.00  0.00    +0.000 A 
ATOM     18  C   UNL     1       1.969   8.148  19.778  0.00  0.00    +0.000 A 
ATOM     19  C   UNL     1       0.921   8.959  20.214  0.00  0.00    +0.000 A 
BRANCH  14  21
ATOM     20  C   UNL     1      -1.590  11.361  18.807  0.00  0.00    +0.000 C 
ATOM     21  N   UNL     1      -0.763  10.682  19.798  0.00  0.00    +0.000 N 
ATOM     22  C   UNL     1      -0.595  11.359  21.082  0.00  0.00    +0.000 C 
ENDBRANCH  14  21
ENDBRANCH  13  17
ENDBRANCH   1  13
TORSDOF 3
ENDMDL
MODEL 6
REMARK VINA RESULT:      -6.9      4.052      8.067
REMARK  Name = 
REMARK  6 active torsions:
REMARK  status: ('A' for Active; 'I' for Inactive)
REMARK    1  A    between atoms: C_1  and  N_2
REMARK    2  A    between atoms: N_2  and  C_3
REMARK    3  A    between atoms: N_2  and  C_4
REMARK    4  A    between atoms: C_7  and  C_8
REMARK    5  A    between atoms: C_8  and  C_9
REMARK    6  A    between atoms: N_12  and  C_13
REMARK                            x       y       z     vdW  Elec       q    Type
REMARK                         _______ _______ _______ _____ _____    ______ ____
ROOT
ATOM      1  C   UNL     1       4.235   5.722  17.088  0.00  0.00    +0.000 C 
ATOM      2  C   UNL     1       4.568   4.230  17.155  0.00  0.00    +0.000 C 
ATOM      3  O   UNL     1       4.010   3.344  16.513  0.00  0.00    +0.000 OA
ATOM      4  N   UNL     1       5.424   4.036  18.257  0.00  0.00    +0.000 N 
ATOM      5  C   UNL     1       4.786   3.386  19.396  0.00  0.00    +0.000 C 
ATOM      6  C   UNL     1       6.073   5.257  18.496  0.00  0.00    +0.000 A 
ATOM      7  C   UNL     1       7.350   5.382  19.020  0.00  0.00    +0.000 A 
ATOM      8  C   UNL     1       8.032   6.572  18.762  0.00  0.00    +0.000 A 
ATOM      9  C   UNL     1       7.395   7.621  18.056  0.00  0.00    +0.000 A 
ATOM     10 BR   UNL     1       8.418   9.138  17.571  0.00  0.00    +0.000 Br
ATOM     11  C   UNL     1       6.074   7.500  17.595  0.00  0.00    +0.000 A 
ATOM     12  C   UNL     1       5.429   6.287  17.797  0.00  0.00    +0.000 A 
ENDROOT
BRANCH   1  13
ATOM     13  C   UNL     1       2.862   5.707  17.785  0.00  0.00    +0.000 C 
BRANCH  13  17
ATOM     14  C   UNL     1       1.246   8.936  20.164  0.00  0.00    +0.000 A 
ATOM     15  C   UNL     1       1.558   9.101  18.802  0.00  0.00    +0.000 A 
ATOM     16  C   UNL     1       2.148   8.089  18.043  0.00  0.00    +0.000 A 
ATOM     17  C   UNL     1       2.425   6.859  18.625  0.00  0.00    +0.000 A 
ATOM     18  C   UNL     1       2.094   6.652  19.966  0.00  0.00    +0.000 A 
ATOM     19  C   UNL     1       1.509   7.673  20.716  0.00  0.00    +0.000 A 
BRANCH  14  21
ATOM     20  C   UNL     1       0.896  11.342  20.520  0.00  0.00    +0.000 C 
ATOM     21  N   UNL     1       0.668   9.960  20.922  0.00  0.00    +0.000 N 
ATOM     22  C   UNL     1       0.473   9.718  22.350  0.00  0.00    +0.000 C 
ENDBRANCH  14  21
ENDBRANCH  13  17
ENDBRANCH   1  13
TORSDOF 3
ENDMDL
MODEL 7
REMARK VINA RESULT:      -6.8      1.075      1.639
REMARK  Name = 
REMARK  6 active torsions:
REMARK  status: ('A' for Active; 'I' for Inactive)
REMARK    1  A    between atoms: C_1  and  N_2
REMARK    2  A    between atoms: N_2  and  C_3
REMARK    3  A    between atoms: N_2  and  C_4
REMARK    4  A    between atoms: C_7  and  C_8
REMARK    5  A    between atoms: C_8  and  C_9
REMARK    6  A    between atoms: N_12  and  C_13
REMARK                            x       y       z     vdW  Elec       q    Type
REMARK                         _______ _______ _______ _____ _____    ______ ____
ROOT
ATOM      1  C   UNL     1       0.091  11.331  18.890  0.00  0.00    +0.000 C 
ATOM      2  C   UNL     1      -0.254  12.552  19.745  0.00  0.00    +0.000 C 
ATOM      3  O   UNL     1       0.557  13.331  20.238  0.00  0.00    +0.000 OA
ATOM      4  N   UNL     1      -1.620  12.463  20.077  0.00  0.00    +0.000 N 
ATOM      5  C   UNL     1      -1.871  12.102  21.467  0.00  0.00    +0.000 C 
ATOM      6  C   UNL     1      -2.236  11.680  19.089  0.00  0.00    +0.000 A 
ATOM      7  C   UNL     1      -3.550  11.822  18.674  0.00  0.00    +0.000 A 
ATOM      8  C   UNL     1      -3.877  11.335  17.408  0.00  0.00    +0.000 A 
ATOM      9  C   UNL     1      -2.905  10.660  16.631  0.00  0.00    +0.000 A 
ATOM     10 BR   UNL     1      -3.340  10.182  14.852  0.00  0.00    +0.000 Br
ATOM     11  C   UNL     1      -1.596  10.463  17.101  0.00  0.00    +0.000 A 
ATOM     12  C   UNL     1      -1.263  11.012  18.332  0.00  0.00    +0.000 A 
ENDROOT
BRANCH   1  13
ATOM     13  C   UNL     1       0.709  10.428  19.974  0.00  0.00    +0.000 C 
BRANCH  13  17
ATOM     14  C   UNL     1       2.583   6.634  19.084  0.00  0.00    +0.000 A 
ATOM     15  C   UNL     1       2.440   7.639  18.110  0.00  0.00    +0.000 A 
ATOM     16  C   UNL     1       1.772   8.837  18.365  0.00  0.00    +0.000 A 
ATOM     17  C   UNL     1       1.241   9.080  19.625  0.00  0.00    +0.000 A 
ATOM     18  C   UNL     1       1.398   8.117  20.625  0.00  0.00    +0.000 A 
ATOM     19  C   UNL     1       2.064   6.921  20.357  0.00  0.00    +0.000 A 
BRANCH  14  21
ATOM     20  C   UNL     1       4.173   5.374  17.697  0.00  0.00    +0.000 C 
ATOM     21  N   UNL     1       3.242   5.429  18.818  0.00  0.00    +0.000 N 
ATOM     22  C   UNL     1       2.546   4.188  19.150  0.00  0.00    +0.000 C 
ENDBRANCH  14  21
ENDBRANCH  13  17
ENDBRANCH   1  13
TORSDOF 3
ENDMDL
MODEL 8
REMARK VINA RESULT:      -6.6      6.492      8.970
REMARK  Name = 
REMARK  6 active torsions:
REMARK  status: ('A' for Active; 'I' for Inactive)
REMARK    1  A    between atoms: C_1  and  N_2
REMARK    2  A    between atoms: N_2  and  C_3
REMARK    3  A    between atoms: N_2  and  C_4
REMARK    4  A    between atoms: C_7  and  C_8
REMARK    5  A    between atoms: C_8  and  C_9
REMARK    6  A    between atoms: N_12  and  C_13
REMARK                            x       y       z     vdW  Elec       q    Type
REMARK                         _______ _______ _______ _____ _____    ______ ____
ROOT
ATOM      1  C   UNL     1       6.215   5.708  17.986  0.00  0.00    +0.000 C 
ATOM      2  C   UNL     1       6.792   4.573  17.137  0.00  0.00    +0.000 C 
ATOM      3  O   UNL     1       7.987   4.340  16.973  0.00  0.00    +0.000 OA
ATOM      4  N   UNL     1       5.734   4.027  16.384  0.00  0.00    +0.000 N 
ATOM      5  C   UNL     1       5.775   4.372  14.968  0.00  0.00    +0.000 C 
ATOM      6  C   UNL     1       4.547   4.304  17.078  0.00  0.00    +0.000 A 
ATOM      7  C   UNL     1       3.417   3.502  17.062  0.00  0.00    +0.000 A 
ATOM      8  C   UNL     1       2.526   3.631  18.129  0.00  0.00    +0.000 A 
ATOM      9  C   UNL     1       2.753   4.601  19.134  0.00  0.00    +0.000 A 
ATOM     10 BR   UNL     1       1.622   4.614  20.652  0.00  0.00    +0.000 Br
ATOM     11  C   UNL     1       3.868   5.454  19.094  0.00  0.00    +0.000 A 
ATOM     12  C   UNL     1       4.784   5.271  18.066  0.00  0.00    +0.000 A 
ENDROOT
BRANCH   1  13
ATOM     13  C   UNL     1       6.606   6.908  17.104  0.00  0.00    +0.000 C 
BRANCH  13  17
ATOM     14  C   UNL     1       9.017  10.030  18.876  0.00  0.00    +0.000 A 
ATOM     15  C   UNL     1       8.128  10.289  17.816  0.00  0.00    +0.000 A 
ATOM     16  C   UNL     1       7.400   9.277  17.188  0.00  0.00    +0.000 A 
ATOM     17  C   UNL     1       7.523   7.963  17.623  0.00  0.00    +0.000 A 
ATOM     18  C   UNL     1       8.370   7.679  18.695  0.00  0.00    +0.000 A 
ATOM     19  C   UNL     1       9.097   8.698  19.313  0.00  0.00    +0.000 A 
BRANCH  14  21
ATOM     20  C   UNL     1       9.442  11.401  20.871  0.00  0.00    +0.000 C 
ATOM     21  N   UNL     1       9.754  11.047  19.492  0.00  0.00    +0.000 N 
ATOM     22  C   UNL     1      10.270  12.119  18.643  0.00  0.00    +0.000 C 
ENDBRANCH  14  21
ENDBRANCH  13  17
ENDBRANCH   1  13
TORSDOF 3
ENDMDL
MODEL 9
REMARK VINA RESULT:      -6.6      4.013      7.959
REMARK  Name = 
REMARK  6 active torsions:
REMARK  status: ('A' for Active; 'I' for Inactive)
REMARK    1  A    between atoms: C_1  and  N_2
REMARK    2  A    between atoms: N_2  and  C_3
REMARK    3  A    between atoms: N_2  and  C_4
REMARK    4  A    between atoms: C_7  and  C_8
REMARK    5  A    between atoms: C_8  and  C_9
REMARK    6  A    between atoms: N_12  and  C_13
REMARK                            x       y       z     vdW  Elec       q    Type
REMARK                         _______ _______ _______ _____ _____    ______ ____
ROOT
ATOM      1  C   UNL     1       3.866   4.786  17.285  0.00  0.00    +0.000 C 
ATOM      2  C   UNL     1       4.203   3.346  17.676  0.00  0.00    +0.000 C 
ATOM      3  O   UNL     1       3.709   2.337  17.179  0.00  0.00    +0.000 OA
ATOM      4  N   UNL     1       4.963   3.395  18.861  0.00  0.00    +0.000 N 
ATOM      5  C   UNL     1       4.234   2.967  20.050  0.00  0.00    +0.000 C 
ATOM      6  C   UNL     1       5.580   4.654  18.905  0.00  0.00    +0.000 A 
ATOM      7  C   UNL     1       6.806   4.912  19.497  0.00  0.00    +0.000 A 
ATOM      8  C   UNL     1       7.499   6.043  19.064  0.00  0.00    +0.000 A 
ATOM      9  C   UNL     1       6.917   6.915  18.114  0.00  0.00    +0.000 A 
ATOM     10 BR   UNL     1       7.967   8.331  17.422  0.00  0.00    +0.000 Br
ATOM     11  C   UNL     1       5.642   6.674  17.578  0.00  0.00    +0.000 A 
ATOM     12  C   UNL     1       4.991   5.509  17.963  0.00  0.00    +0.000 A 
ENDROOT
BRANCH   1  13
ATOM     13  C   UNL     1       2.438   4.876  17.855  0.00  0.00    +0.000 C 
BRANCH  13  17
ATOM     14  C   UNL     1       1.576   8.374  20.246  0.00  0.00    +0.000 A 
ATOM     15  C   UNL     1       1.647   7.087  20.811  0.00  0.00    +0.000 A 
ATOM     16  C   UNL     1       1.851   5.943  20.038  0.00  0.00    +0.000 A 
ATOM     17  C   UNL     1       2.017   6.055  18.664  0.00  0.00    +0.000 A 
ATOM     18  C   UNL     1       1.988   7.323  18.077  0.00  0.00    +0.000 A 
ATOM     19  C   UNL     1       1.778   8.459  18.859  0.00  0.00    +0.000 A 
BRANCH  14  21
ATOM     20  C   UNL     1       0.967   9.347  22.419  0.00  0.00    +0.000 C 
ATOM     21  N   UNL     1       1.357   9.515  21.024  0.00  0.00    +0.000 N 
ATOM     22  C   UNL     1       0.861  10.712  20.348  0.00  0.00    +0.000 C 
ENDBRANCH  14  21
ENDBRANCH  13  17
ENDBRANCH   1  13
TORSDOF 3
ENDMDL
