MODEL 1
REMARK VINA RESULT:      -6.7      0.000      0.000
REMARK  Name = 
REMARK  8 active torsions:
REMARK  status: ('A' for Active; 'I' for Inactive)
REMARK    1  A    between atoms: C_1  and  C_2
REMARK    2  A    between atoms: C_2  and  C_3
REMARK    3  A    between atoms: C_2  and  C_4
REMARK    4  A    between atoms: C_2  and  C_5
REMARK    5  A    between atoms: C_5  and  O_7
REMARK    6  A    between atoms: O_7  and  C_8
REMARK    7  A    between atoms: C_13  and  S_14
REMARK    8  A    between atoms: S_14  and  N_15
REMARK                            x       y       z     vdW  Elec       q    Type
REMARK                         _______ _______ _______ _____ _____    ______ ____
ROOT
ATOM      1  C   UNL     1       2.569   6.596  18.873  0.00  0.00    +0.000 A 
ATOM      2  C   UNL     1       2.567   7.498  17.810  0.00  0.00    +0.000 A 
ATOM      3  C   UNL     1       2.053   8.781  17.981  0.00  0.00    +0.000 A 
ATOM      4  C   UNL     1       1.504   9.156  19.221  0.00  0.00    +0.000 A 
ATOM      5  N   UNL     1       0.963  10.396  19.505  0.00  0.00    +0.000 NA
ATOM      6  C   UNL     1       0.532  10.392  20.749  0.00  0.00    +0.000 A 
ATOM      7  S   UNL     1       0.723   8.952  21.638  0.00  0.00    +0.000 S 
ATOM      8  C   UNL     1       1.480   8.222  20.265  0.00  0.00    +0.000 A 
ATOM      9  C   UNL     1       2.008   6.921  20.113  0.00  0.00    +0.000 A 
ENDROOT
BRANCH   6  10
ATOM     10  S   UNL     1      -0.228  11.793  21.535  0.00  0.00    +0.000 S 
ATOM     11  O   UNL     1       0.804  12.797  21.646  0.00  0.00    +0.000 OA
ATOM     12  O   UNL     1      -1.480  12.011  20.847  0.00  0.00    +0.000 OA
BRANCH  10  13
ATOM     13  N   UNL     1      -0.614  11.306  23.114  0.00  0.00    +0.000 NA
ATOM     14  H   UNL     1      -1.270  10.524  23.092  0.00  0.00    +0.000 HD
ATOM     15  H   UNL     1      -0.970  12.096  23.651  0.00  0.00    +0.000 HD
ENDBRANCH  10  13
ENDBRANCH   6  10
BRANCH   1  16
ATOM     16  O   UNL     1       3.034   5.281  18.678  0.00  0.00    +0.000 OA
BRANCH  16  17
ATOM     17  C   UNL     1       2.061   4.311  18.413  0.00  0.00    +0.000 C 
ATOM     18  O   UNL     1       1.277   4.342  17.475  0.00  0.00    +0.000 OA
BRANCH  17  20
ATOM     19  C   UNL     1       1.741   1.863  18.811  0.00  0.00    +0.000 C 
ATOM     20  C   UNL     1       2.094   3.206  19.475  0.00  0.00    +0.000 C 
ATOM     21  C   UNL     1       1.051   3.494  20.566  0.00  0.00    +0.000 C 
ATOM     22  C   UNL     1       3.496   3.118  20.083  0.00  0.00    +0.000 C 
ENDBRANCH  17  20
ENDBRANCH  16  17
ENDBRANCH   1  16
TORSDOF 5
ENDMDL
MODEL 2
REMARK VINA RESULT:      -6.6      0.807      1.394
REMARK  Name = 
REMARK  8 active torsions:
REMARK  status: ('A' for Active; 'I' for Inactive)
REMARK    1  A    between atoms: C_1  and  C_2
REMARK    2  A    between atoms: C_2  and  C_3
REMARK    3  A    between atoms: C_2  and  C_4
REMARK    4  A    between atoms: C_2  and  C_5
REMARK    5  A    between atoms: C_5  and  O_7
REMARK    6  A    between atoms: O_7  and  C_8
REMARK    7  A    between atoms: C_13  and  S_14
REMARK    8  A    between atoms: S_14  and  N_15
REMARK                            x       y       z     vdW  Elec       q    Type
REMARK                         _______ _______ _______ _____ _____    ______ ____
ROOT
ATOM      1  C   UNL     1       2.529   6.652  18.830  0.00  0.00    +0.000 A 
ATOM      2  C   UNL     1       2.421   7.584  17.799  0.00  0.00    +0.000 A 
ATOM      3  C   UNL     1       1.886   8.846  18.049  0.00  0.00    +0.000 A 
ATOM      4  C   UNL     1       1.425   9.168  19.338  0.00  0.00    +0.000 A 
ATOM      5  N   UNL     1       0.873  10.382  19.700  0.00  0.00    +0.000 NA
ATOM      6  C   UNL     1       0.539  10.330  20.973  0.00  0.00    +0.000 A 
ATOM      7  S   UNL     1       0.839   8.871  21.800  0.00  0.00    +0.000 S 
ATOM      8  C   UNL     1       1.507   8.204  20.351  0.00  0.00    +0.000 A 
ATOM      9  C   UNL     1       2.057   6.924  20.119  0.00  0.00    +0.000 A 
ENDROOT
BRANCH   6  10
ATOM     10  S   UNL     1      -0.195  11.684  21.858  0.00  0.00    +0.000 S 
ATOM     11  O   UNL     1      -0.514  11.177  23.173  0.00  0.00    +0.000 OA
ATOM     12  O   UNL     1       0.661  12.826  21.631  0.00  0.00    +0.000 OA
BRANCH  10  13
ATOM     13  N   UNL     1      -1.670  12.016  21.087  0.00  0.00    +0.000 NA
ATOM     14  H   UNL     1      -1.751  11.470  20.228  0.00  0.00    +0.000 HD
ATOM     15  H   UNL     1      -1.764  13.019  20.920  0.00  0.00    +0.000 HD
ENDBRANCH  10  13
ENDBRANCH   6  10
BRANCH   1  16
ATOM     16  O   UNL     1       3.014   5.357  18.560  0.00  0.00    +0.000 OA
BRANCH  16  17
ATOM     17  C   UNL     1       2.052   4.378  18.289  0.00  0.00    +0.000 C 
ATOM     18  O   UNL     1       1.267   4.405  17.351  0.00  0.00    +0.000 OA
BRANCH  17  20
ATOM     19  C   UNL     1       3.458   3.317  20.064  0.00  0.00    +0.000 C 
ATOM     20  C   UNL     1       2.098   3.268  19.345  0.00  0.00    +0.000 C 
ATOM     21  C   UNL     1       1.957   1.894  18.672  0.00  0.00    +0.000 C 
ATOM     22  C   UNL     1       0.977   3.482  20.366  0.00  0.00    +0.000 C 
ENDBRANCH  17  20
ENDBRANCH  16  17
ENDBRANCH   1  16
TORSDOF 5
ENDMDL
MODEL 3
REMARK VINA RESULT:      -6.6      0.811      1.393
REMARK  Name = 
REMARK  8 active torsions:
REMARK  status: ('A' for Active; 'I' for Inactive)
REMARK    1  A    between atoms: C_1  and  C_2
REMARK    2  A    between atoms: C_2  and  C_3
REMARK    3  A    between atoms: C_2  and  C_4
REMARK    4  A    between atoms: C_2  and  C_5
REMARK    5  A    between atoms: C_5  and  O_7
REMARK    6  A    between atoms: O_7  and  C_8
REMARK    7  A    between atoms: C_13  and  S_14
REMARK    8  A    between atoms: S_14  and  N_15
REMARK                            x       y       z     vdW  Elec       q    Type
REMARK                         _______ _______ _______ _____ _____    ______ ____
ROOT
ATOM      1  C   UNL     1       2.501   6.685  18.890  0.00  0.00    +0.000 A 
ATOM      2  C   UNL     1       2.434   7.591  17.834  0.00  0.00    +0.000 A 
ATOM      3  C   UNL     1       1.891   8.859  18.032  0.00  0.00    +0.000 A 
ATOM      4  C   UNL     1       1.380   9.212  19.294  0.00  0.00    +0.000 A 
ATOM      5  N   UNL     1       0.816  10.434  19.605  0.00  0.00    +0.000 NA
ATOM      6  C   UNL     1       0.433  10.413  20.865  0.00  0.00    +0.000 A 
ATOM      7  S   UNL     1       0.698   8.974  21.738  0.00  0.00    +0.000 S 
ATOM      8  C   UNL     1       1.422   8.273  20.332  0.00  0.00    +0.000 A 
ATOM      9  C   UNL     1       1.980   6.988  20.153  0.00  0.00    +0.000 A 
ENDROOT
BRANCH   6  10
ATOM     10  S   UNL     1      -0.335  11.788  21.687  0.00  0.00    +0.000 S 
ATOM     11  O   UNL     1      -1.459  12.170  20.864  0.00  0.00    +0.000 OA
ATOM     12  O   UNL     1      -0.458  11.409  23.077  0.00  0.00    +0.000 OA
BRANCH  10  13
ATOM     13  N   UNL     1       0.779  13.066  21.625  0.00  0.00    +0.000 NA
ATOM     14  H   UNL     1       0.561  13.687  20.844  0.00  0.00    +0.000 HD
ATOM     15  H   UNL     1       1.732  12.704  21.579  0.00  0.00    +0.000 HD
ENDBRANCH  10  13
ENDBRANCH   6  10
BRANCH   1  16
ATOM     16  O   UNL     1       2.995   5.384  18.670  0.00  0.00    +0.000 OA
BRANCH  16  17
ATOM     17  C   UNL     1       2.045   4.401  18.375  0.00  0.00    +0.000 C 
ATOM     18  O   UNL     1       1.271   4.434  17.428  0.00  0.00    +0.000 OA
BRANCH  17  20
ATOM     19  C   UNL     1       1.056   3.578  20.519  0.00  0.00    +0.000 C 
ATOM     20  C   UNL     1       2.087   3.277  19.416  0.00  0.00    +0.000 C 
ATOM     21  C   UNL     1       3.479   3.209  20.062  0.00  0.00    +0.000 C 
ATOM     22  C   UNL     1       1.739   1.943  18.749  0.00  0.00    +0.000 C 
ENDBRANCH  17  20
ENDBRANCH  16  17
ENDBRANCH   1  16
TORSDOF 5
ENDMDL
MODEL 4
REMARK VINA RESULT:      -6.6      0.953      1.506
REMARK  Name = 
REMARK  8 active torsions:
REMARK  status: ('A' for Active; 'I' for Inactive)
REMARK    1  A    between atoms: C_1  and  C_2
REMARK    2  A    between atoms: C_2  and  C_3
REMARK    3  A    between atoms: C_2  and  C_4
REMARK    4  A    between atoms: C_2  and  C_5
REMARK    5  A    between atoms: C_5  and  O_7
REMARK    6  A    between atoms: O_7  and  C_8
REMARK    7  A    between atoms: C_13  and  S_14
REMARK    8  A    between atoms: S_14  and  N_15
REMARK                            x       y       z     vdW  Elec       q    Type
REMARK                         _______ _______ _______ _____ _____    ______ ____
ROOT
ATOM      1  C   UNL     1       2.721   6.751  18.575  0.00  0.00    +0.000 A 
ATOM      2  C   UNL     1       2.595   7.728  17.590  0.00  0.00    +0.000 A 
ATOM      3  C   UNL     1       1.986   8.946  17.885  0.00  0.00    +0.000 A 
ATOM      4  C   UNL     1       1.468   9.175  19.173  0.00  0.00    +0.000 A 
ATOM      5  N   UNL     1       0.841  10.339  19.577  0.00  0.00    +0.000 NA
ATOM      6  C   UNL     1       0.471  10.203  20.834  0.00  0.00    +0.000 A 
ATOM      7  S   UNL     1       0.823   8.720  21.595  0.00  0.00    +0.000 S 
ATOM      8  C   UNL     1       1.570   8.166  20.137  0.00  0.00    +0.000 A 
ATOM      9  C   UNL     1       2.195   6.930  19.860  0.00  0.00    +0.000 A 
ENDROOT
BRANCH   6  10
ATOM     10  S   UNL     1      -0.362  11.469  21.760  0.00  0.00    +0.000 S 
ATOM     11  O   UNL     1      -1.562  11.782  21.020  0.00  0.00    +0.000 OA
ATOM     12  O   UNL     1      -0.369  11.024  23.135  0.00  0.00    +0.000 OA
BRANCH  10  13
ATOM     13  N   UNL     1       0.631  12.843  21.695  0.00  0.00    +0.000 NA
ATOM     14  H   UNL     1       0.092  13.654  21.387  0.00  0.00    +0.000 HD
ATOM     15  H   UNL     1       1.441  12.666  21.100  0.00  0.00    +0.000 HD
ENDBRANCH  10  13
ENDBRANCH   6  10
BRANCH   1  16
ATOM     16  O   UNL     1       3.283   5.499  18.256  0.00  0.00    +0.000 OA
BRANCH  16  17
ATOM     17  C   UNL     1       2.387   4.433  18.121  0.00  0.00    +0.000 C 
ATOM     18  O   UNL     1       1.384   4.443  17.421  0.00  0.00    +0.000 OA
BRANCH  17  20
ATOM     19  C   UNL     1       4.274   3.469  19.450  0.00  0.00    +0.000 C 
ATOM     20  C   UNL     1       2.821   3.248  18.992  0.00  0.00    +0.000 C 
ATOM     21  C   UNL     1       2.765   1.947  18.176  0.00  0.00    +0.000 C 
ATOM     22  C   UNL     1       1.912   3.151  20.220  0.00  0.00    +0.000 C 
ENDBRANCH  17  20
ENDBRANCH  16  17
ENDBRANCH   1  16
TORSDOF 5
ENDMDL
MODEL 5
REMARK VINA RESULT:      -6.5      0.891      1.373
REMARK  Name = 
REMARK  8 active torsions:
REMARK  status: ('A' for Active; 'I' for Inactive)
REMARK    1  A    between atoms: C_1  and  C_2
REMARK    2  A    between atoms: C_2  and  C_3
REMARK    3  A    between atoms: C_2  and  C_4
REMARK    4  A    between atoms: C_2  and  C_5
REMARK    5  A    between atoms: C_5  and  O_7
REMARK    6  A    between atoms: O_7  and  C_8
REMARK    7  A    between atoms: C_13  and  S_14
REMARK    8  A    between atoms: S_14  and  N_15
REMARK                            x       y       z     vdW  Elec       q    Type
REMARK                         _______ _______ _______ _____ _____    ______ ____
ROOT
ATOM      1  C   UNL     1       2.603   6.758  18.546  0.00  0.00    +0.000 A 
ATOM      2  C   UNL     1       2.458   7.735  17.563  0.00  0.00    +0.000 A 
ATOM      3  C   UNL     1       1.905   8.973  17.883  0.00  0.00    +0.000 A 
ATOM      4  C   UNL     1       1.462   9.224  19.195  0.00  0.00    +0.000 A 
ATOM      5  N   UNL     1       0.896  10.409  19.625  0.00  0.00    +0.000 NA
ATOM      6  C   UNL     1       0.588  10.289  20.900  0.00  0.00    +0.000 A 
ATOM      7  S   UNL     1       0.930   8.798  21.650  0.00  0.00    +0.000 S 
ATOM      8  C   UNL     1       1.582   8.215  20.158  0.00  0.00    +0.000 A 
ATOM      9  C   UNL     1       2.151   6.959  19.855  0.00  0.00    +0.000 A 
ENDROOT
BRANCH   6  10
ATOM     10  S   UNL     1      -0.155  11.585  21.862  0.00  0.00    +0.000 S 
ATOM     11  O   UNL     1      -0.427  11.014  23.161  0.00  0.00    +0.000 OA
ATOM     12  O   UNL     1       0.669  12.756  21.665  0.00  0.00    +0.000 OA
BRANCH  10  13
ATOM     13  N   UNL     1      -1.656  11.915  21.144  0.00  0.00    +0.000 NA
ATOM     14  H   UNL     1      -2.401  11.855  21.839  0.00  0.00    +0.000 HD
ATOM     15  H   UNL     1      -1.813  11.293  20.351  0.00  0.00    +0.000 HD
ENDBRANCH  10  13
ENDBRANCH   6  10
BRANCH   1  16
ATOM     16  O   UNL     1       3.107   5.487  18.205  0.00  0.00    +0.000 OA
BRANCH  16  17
ATOM     17  C   UNL     1       2.165   4.460  18.074  0.00  0.00    +0.000 C 
ATOM     18  O   UNL     1       1.191   4.491  17.335  0.00  0.00    +0.000 OA
BRANCH  17  20
ATOM     19  C   UNL     1       1.429   3.195  20.101  0.00  0.00    +0.000 C 
ATOM     20  C   UNL     1       2.506   3.291  19.006  0.00  0.00    +0.000 C 
ATOM     21  C   UNL     1       3.863   3.536  19.683  0.00  0.00    +0.000 C 
ATOM     22  C   UNL     1       2.533   1.986  18.206  0.00  0.00    +0.000 C 
ENDBRANCH  17  20
ENDBRANCH  16  17
ENDBRANCH   1  16
TORSDOF 5
ENDMDL
MODEL 6
REMARK VINA RESULT:      -6.4      1.755      2.262
REMARK  Name = 
REMARK  8 active torsions:
REMARK  status: ('A' for Active; 'I' for Inactive)
REMARK    1  A    between atoms: C_1  and  C_2
REMARK    2  A    between atoms: C_2  and  C_3
REMARK    3  A    between atoms: C_2  and  C_4
REMARK    4  A    between atoms: C_2  and  C_5
REMARK    5  A    between atoms: C_5  and  O_7
REMARK    6  A    between atoms: O_7  and  C_8
REMARK    7  A    between atoms: C_13  and  S_14
REMARK    8  A    between atoms: S_14  and  N_15
REMARK                            x       y       z     vdW  Elec       q    Type
REMARK                         _______ _______ _______ _____ _____    ______ ____
ROOT
ATOM      1  C   UNL     1       2.399   6.973  19.637  0.00  0.00    +0.000 A 
ATOM      2  C   UNL     1       2.576   7.333  18.302  0.00  0.00    +0.000 A 
ATOM      3  C   UNL     1       2.065   8.540  17.829  0.00  0.00    +0.000 A 
ATOM      4  C   UNL     1       1.341   9.381  18.694  0.00  0.00    +0.000 A 
ATOM      5  N   UNL     1       0.786  10.595  18.336  0.00  0.00    +0.000 NA
ATOM      6  C   UNL     1       0.170  11.102  19.384  0.00  0.00    +0.000 A 
ATOM      7  S   UNL     1       0.198  10.190  20.823  0.00  0.00    +0.000 S 
ATOM      8  C   UNL     1       1.141   8.982  20.021  0.00  0.00    +0.000 A 
ATOM      9  C   UNL     1       1.662   7.768  20.521  0.00  0.00    +0.000 A 
ENDROOT
BRANCH   6  10
ATOM     10  S   UNL     1      -0.674  12.665  19.373  0.00  0.00    +0.000 S 
ATOM     11  O   UNL     1      -1.976  12.420  19.949  0.00  0.00    +0.000 OA
ATOM     12  O   UNL     1       0.261  13.631  19.901  0.00  0.00    +0.000 OA
BRANCH  10  13
ATOM     13  N   UNL     1      -0.923  13.064  17.743  0.00  0.00    +0.000 NA
ATOM     14  H   UNL     1      -0.251  12.572  17.152  0.00  0.00    +0.000 HD
ATOM     15  H   UNL     1      -0.884  14.075  17.616  0.00  0.00    +0.000 HD
ENDBRANCH  10  13
ENDBRANCH   6  10
BRANCH   1  16
ATOM     16  O   UNL     1       2.864   5.725  20.095  0.00  0.00    +0.000 OA
BRANCH  16  17
ATOM     17  C   UNL     1       1.984   4.646  19.959  0.00  0.00    +0.000 C 
ATOM     18  O   UNL     1       0.948   4.501  20.593  0.00  0.00    +0.000 OA
BRANCH  17  20
ATOM     19  C   UNL     1       2.177   2.220  19.384  0.00  0.00    +0.000 C 
ATOM     20  C   UNL     1       2.505   3.649  18.917  0.00  0.00    +0.000 C 
ATOM     21  C   UNL     1       4.030   3.776  18.785  0.00  0.00    +0.000 C 
ATOM     22  C   UNL     1       1.826   3.911  17.570  0.00  0.00    +0.000 C 
ENDBRANCH  17  20
ENDBRANCH  16  17
ENDBRANCH   1  16
TORSDOF 5
ENDMDL
MODEL 7
REMARK VINA RESULT:      -6.4      1.851      2.179
REMARK  Name = 
REMARK  8 active torsions:
REMARK  status: ('A' for Active; 'I' for Inactive)
REMARK    1  A    between atoms: C_1  and  C_2
REMARK    2  A    between atoms: C_2  and  C_3
REMARK    3  A    between atoms: C_2  and  C_4
REMARK    4  A    between atoms: C_2  and  C_5
REMARK    5  A    between atoms: C_5  and  O_7
REMARK    6  A    between atoms: O_7  and  C_8
REMARK    7  A    between atoms: C_13  and  S_14
REMARK    8  A    between atoms: S_14  and  N_15
REMARK                            x       y       z     vdW  Elec       q    Type
REMARK                         _______ _______ _______ _____ _____    ______ ____
ROOT
ATOM      1  C   UNL     1       2.533   6.814  19.550  0.00  0.00    +0.000 A 
ATOM      2  C   UNL     1       2.850   7.204  18.251  0.00  0.00    +0.000 A 
ATOM      3  C   UNL     1       2.406   8.430  17.760  0.00  0.00    +0.000 A 
ATOM      4  C   UNL     1       1.609   9.261  18.568  0.00  0.00    +0.000 A 
ATOM      5  N   UNL     1       1.110  10.492  18.187  0.00  0.00    +0.000 NA
ATOM      6  C   UNL     1       0.397  10.983  19.179  0.00  0.00    +0.000 A 
ATOM      7  S   UNL     1       0.265  10.036  20.589  0.00  0.00    +0.000 S 
ATOM      8  C   UNL     1       1.269   8.833  19.857  0.00  0.00    +0.000 A 
ATOM      9  C   UNL     1       1.720   7.599  20.376  0.00  0.00    +0.000 A 
ENDROOT
BRANCH   6  10
ATOM     10  S   UNL     1      -0.421  12.559  19.123  0.00  0.00    +0.000 S 
ATOM     11  O   UNL     1      -1.494  12.488  20.088  0.00  0.00    +0.000 OA
ATOM     12  O   UNL     1       0.623  13.557  19.166  0.00  0.00    +0.000 OA
BRANCH  10  13
ATOM     13  N   UNL     1      -1.142  12.670  17.591  0.00  0.00    +0.000 NA
ATOM     14  H   UNL     1      -0.588  12.161  16.902  0.00  0.00    +0.000 HD
ATOM     15  H   UNL     1      -1.279  13.648  17.334  0.00  0.00    +0.000 HD
ENDBRANCH  10  13
ENDBRANCH   6  10
BRANCH   1  16
ATOM     16  O   UNL     1       2.932   5.548  20.022  0.00  0.00    +0.000 OA
BRANCH  16  17
ATOM     17  C   UNL     1       1.972   4.532  19.962  0.00  0.00    +0.000 C 
ATOM     18  O   UNL     1       1.016   4.425  20.717  0.00  0.00    +0.000 OA
BRANCH  17  20
ATOM     19  C   UNL     1       1.530   3.982  17.563  0.00  0.00    +0.000 C 
ATOM     20  C   UNL     1       2.292   3.551  18.829  0.00  0.00    +0.000 C 
ATOM     21  C   UNL     1       1.829   2.136  19.211  0.00  0.00    +0.000 C 
ATOM     22  C   UNL     1       3.796   3.565  18.544  0.00  0.00    +0.000 C 
ENDBRANCH  17  20
ENDBRANCH  16  17
ENDBRANCH   1  16
TORSDOF 5
ENDMDL
MODEL 8
REMARK VINA RESULT:      -6.4      2.177      3.099
REMARK  Name = 
REMARK  8 active torsions:
REMARK  status: ('A' for Active; 'I' for Inactive)
REMARK    1  A    between atoms: C_1  and  C_2
REMARK    2  A    between atoms: C_2  and  C_3
REMARK    3  A    between atoms: C_2  and  C_4
REMARK    4  A    between atoms: C_2  and  C_5
REMARK    5  A    between atoms: C_5  and  O_7
REMARK    6  A    between atoms: O_7  and  C_8
REMARK    7  A    between atoms: C_13  and  S_14
REMARK    8  A    between atoms: S_14  and  N_15
REMARK                            x       y       z     vdW  Elec       q    Type
REMARK                         _______ _______ _______ _____ _____    ______ ____
ROOT
ATOM      1  C   UNL     1       2.987   6.790  18.533  0.00  0.00    +0.000 A 
ATOM      2  C   UNL     1       2.804   7.753  17.543  0.00  0.00    +0.000 A 
ATOM      3  C   UNL     1       2.126   8.935  17.833  0.00  0.00    +0.000 A 
ATOM      4  C   UNL     1       1.596   9.141  19.120  0.00  0.00    +0.000 A 
ATOM      5  N   UNL     1       0.904  10.268  19.519  0.00  0.00    +0.000 NA
ATOM      6  C   UNL     1       0.543  10.117  20.777  0.00  0.00    +0.000 A 
ATOM      7  S   UNL     1       0.980   8.661  21.545  0.00  0.00    +0.000 S 
ATOM      8  C   UNL     1       1.757   8.144  20.089  0.00  0.00    +0.000 A 
ATOM      9  C   UNL     1       2.452   6.945  19.817  0.00  0.00    +0.000 A 
ENDROOT
BRANCH   6  10
ATOM     10  S   UNL     1      -0.362  11.338  21.698  0.00  0.00    +0.000 S 
ATOM     11  O   UNL     1      -1.561  11.604  20.939  0.00  0.00    +0.000 OA
ATOM     12  O   UNL     1      -0.373  10.881  23.069  0.00  0.00    +0.000 OA
BRANCH  10  13
ATOM     13  N   UNL     1       0.571  12.755  21.661  0.00  0.00    +0.000 NA
ATOM     14  H   UNL     1       1.506  12.553  21.305  0.00  0.00    +0.000 HD
ATOM     15  H   UNL     1       0.591  13.190  22.583  0.00  0.00    +0.000 HD
ENDBRANCH  10  13
ENDBRANCH   6  10
BRANCH   1  16
ATOM     16  O   UNL     1       3.620   5.571  18.220  0.00  0.00    +0.000 OA
BRANCH  16  17
ATOM     17  C   UNL     1       4.966   5.458  18.586  0.00  0.00    +0.000 C 
ATOM     18  O   UNL     1       5.372   5.311  19.731  0.00  0.00    +0.000 OA
BRANCH  17  20
ATOM     19  C   UNL     1       7.094   4.650  17.552  0.00  0.00    +0.000 C 
ATOM     20  C   UNL     1       5.873   5.566  17.355  0.00  0.00    +0.000 C 
ATOM     21  C   UNL     1       6.373   7.010  17.195  0.00  0.00    +0.000 C 
ATOM     22  C   UNL     1       5.103   5.124  16.108  0.00  0.00    +0.000 C 
ENDBRANCH  17  20
ENDBRANCH  16  17
ENDBRANCH   1  16
TORSDOF 5
ENDMDL
MODEL 9
REMARK VINA RESULT:      -6.3      1.854      2.399
REMARK  Name = 
REMARK  8 active torsions:
REMARK  status: ('A' for Active; 'I' for Inactive)
REMARK    1  A    between atoms: C_1  and  C_2
REMARK    2  A    between atoms: C_2  and  C_3
REMARK    3  A    between atoms: C_2  and  C_4
REMARK    4  A    between atoms: C_2  and  C_5
REMARK    5  A    between atoms: C_5  and  O_7
REMARK    6  A    between atoms: O_7  and  C_8
REMARK    7  A    between atoms: C_13  and  S_14
REMARK    8  A    between atoms: S_14  and  N_15
REMARK                            x       y       z     vdW  Elec       q    Type
REMARK                         _______ _______ _______ _____ _____    ______ ____
ROOT
ATOM      1  C   UNL     1       2.269   6.863  19.861  0.00  0.00    +0.000 A 
ATOM      2  C   UNL     1       2.621   7.098  18.534  0.00  0.00    +0.000 A 
ATOM      3  C   UNL     1       2.299   8.310  17.928  0.00  0.00    +0.000 A 
ATOM      4  C   UNL     1       1.590   9.287  18.650  0.00  0.00    +0.000 A 
ATOM      5  N   UNL     1       1.215  10.521  18.153  0.00  0.00    +0.000 NA
ATOM      6  C   UNL     1       0.556  11.170  19.092  0.00  0.00    +0.000 A 
ATOM      7  S   UNL     1       0.334  10.375  20.582  0.00  0.00    +0.000 S 
ATOM      8  C   UNL     1       1.212   9.016  19.971  0.00  0.00    +0.000 A 
ATOM      9  C   UNL     1       1.540   7.797  20.605  0.00  0.00    +0.000 A 
ENDROOT
BRANCH   6  10
ATOM     10  S   UNL     1      -0.102  12.807  18.884  0.00  0.00    +0.000 S 
ATOM     11  O   UNL     1      -0.964  13.038  20.019  0.00  0.00    +0.000 OA
ATOM     12  O   UNL     1       1.021  13.653  18.552  0.00  0.00    +0.000 OA
BRANCH  10  13
ATOM     13  N   UNL     1      -1.097  12.753  17.511  0.00  0.00    +0.000 NA
ATOM     14  H   UNL     1      -1.728  13.555  17.500  0.00  0.00    +0.000 HD
ATOM     15  H   UNL     1      -1.598  11.865  17.471  0.00  0.00    +0.000 HD
ENDBRANCH  10  13
ENDBRANCH   6  10
BRANCH   1  16
ATOM     16  O   UNL     1       2.542   5.612  20.450  0.00  0.00    +0.000 OA
BRANCH  16  17
ATOM     17  C   UNL     1       3.124   4.649  19.620  0.00  0.00    +0.000 C 
ATOM     18  O   UNL     1       4.282   4.666  19.228  0.00  0.00    +0.000 OA
BRANCH  17  20
ATOM     19  C   UNL     1       0.994   3.536  20.312  0.00  0.00    +0.000 C 
ATOM     20  C   UNL     1       2.101   3.570  19.244  0.00  0.00    +0.000 C 
ATOM     21  C   UNL     1       2.780   2.192  19.207  0.00  0.00    +0.000 C 
ATOM     22  C   UNL     1       1.482   3.899  17.883  0.00  0.00    +0.000 C 
ENDBRANCH  17  20
ENDBRANCH  16  17
ENDBRANCH   1  16
TORSDOF 5
ENDMDL
