MODEL 1
REMARK VINA RESULT:      -7.7      0.000      0.000
REMARK  Name = 
REMARK  8 active torsions:
REMARK  status: ('A' for Active; 'I' for Inactive)
REMARK    1  A    between atoms: C_1  and  C_2
REMARK    2  A    between atoms: C_2  and  C_3
REMARK    3  A    between atoms: C_3  and  C_4
REMARK    4  A    between atoms: C_4  and  N_5
REMARK    5  A    between atoms: C_9  and  N_10
REMARK    6  A    between atoms: N_10  and  C_11
REMARK    7  A    between atoms: C_11  and  C_12
REMARK    8  A    between atoms: C_25  and  C_26
REMARK                            x       y       z     vdW  Elec       q    Type
REMARK                         _______ _______ _______ _____ _____    ______ ____
ROOT
ATOM      1  N   UNL     1      -0.739  11.746  19.420  0.00  0.00    +0.000 N 
ATOM      2  C   UNL     1       0.589  11.303  19.285  0.00  0.00    +0.000 C 
ATOM      3  O   UNL     1       1.379  11.660  18.417  0.00  0.00    +0.000 OA
ATOM      4  C   UNL     1       0.917  10.200  20.197  0.00  0.00    +0.000 C 
ATOM      5  C   UNL     1       1.400   9.065  19.665  0.00  0.00    +0.000 C 
ATOM      6  C   UNL     1       0.515  10.312  21.590  0.00  0.00    +0.000 C 
ATOM      7  O   UNL     1       1.120   9.767  22.507  0.00  0.00    +0.000 OA
ATOM      8  C   UNL     1      -0.699  11.120  21.812  0.00  0.00    +0.000 A 
ATOM      9  C   UNL     1      -1.157  11.144  23.142  0.00  0.00    +0.000 A 
ATOM     10  C   UNL     1      -2.337  11.777  23.453  0.00  0.00    +0.000 A 
ATOM     11  C   UNL     1      -3.056  12.381  22.432  0.00  0.00    +0.000 A 
ATOM     12  C   UNL     1      -2.616  12.390  21.077  0.00  0.00    +0.000 A 
ATOM     13  C   UNL     1      -3.546  13.175  20.183  0.00  0.00    +0.000 C 
ATOM     14  C   UNL     1      -1.384  11.758  20.735  0.00  0.00    +0.000 A 
ENDROOT
BRANCH   5  15
ATOM     15  N   UNL     1       1.501   7.793  20.215  0.00  0.00    +0.000 N 
ATOM     16  H   UNL     1       1.534   7.854  21.234  0.00  0.00    +0.000 HD
BRANCH  15  17
ATOM     17  C   UNL     1       2.602   6.906  19.832  0.00  0.00    +0.000 C 
BRANCH  17  18
ATOM     18  C   UNL     1       2.024   5.556  19.488  0.00  0.00    +0.000 A 
ATOM     19  C   UNL     1       1.482   4.755  20.502  0.00  0.00    +0.000 A 
ATOM     20  C   UNL     1       0.969   3.490  20.213  0.00  0.00    +0.000 A 
ATOM     21  C   UNL     1       1.020   3.018  18.906  0.00  0.00    +0.000 A 
ATOM     22  F   UNL     1       0.533   1.803  18.629  0.00  0.00    +0.000 F 
ATOM     23  C   UNL     1       1.569   3.788  17.886  0.00  0.00    +0.000 A 
ATOM     24  C   UNL     1       2.073   5.058  18.176  0.00  0.00    +0.000 A 
ENDBRANCH  17  18
ENDBRANCH  15  17
ENDBRANCH   5  15
BRANCH   1  25
ATOM     25  C   UNL     1      -1.327  12.328  18.217  0.00  0.00    +0.000 C 
BRANCH  25  26
ATOM     26  C   UNL     1      -1.900  11.336  17.173  0.00  0.00    +0.000 C 
BRANCH  26  28
ATOM     27  C   UNL     1      -4.134  10.333  17.813  0.00  0.00    +0.000 C 
ATOM     28  C   UNL     1      -2.625  10.145  17.812  0.00  0.00    +0.000 C 
ENDBRANCH  26  28
ENDBRANCH  25  26
ENDBRANCH   1  25
TORSDOF 6
ENDMDL
MODEL 2
REMARK VINA RESULT:      -7.6      0.684      1.225
REMARK  Name = 
REMARK  8 active torsions:
REMARK  status: ('A' for Active; 'I' for Inactive)
REMARK    1  A    between atoms: C_1  and  C_2
REMARK    2  A    between atoms: C_2  and  C_3
REMARK    3  A    between atoms: C_3  and  C_4
REMARK    4  A    between atoms: C_4  and  N_5
REMARK    5  A    between atoms: C_9  and  N_10
REMARK    6  A    between atoms: N_10  and  C_11
REMARK    7  A    between atoms: C_11  and  C_12
REMARK    8  A    between atoms: C_25  and  C_26
REMARK                            x       y       z     vdW  Elec       q    Type
REMARK                         _______ _______ _______ _____ _____    ______ ____
ROOT
ATOM      1  N   UNL     1      -0.972  11.475  19.283  0.00  0.00    +0.000 N 
ATOM      2  C   UNL     1       0.361  11.061  19.110  0.00  0.00    +0.000 C 
ATOM      3  O   UNL     1       1.076  11.329  18.150  0.00  0.00    +0.000 OA
ATOM      4  C   UNL     1       0.792  10.093  20.125  0.00  0.00    +0.000 C 
ATOM      5  C   UNL     1       1.284   8.914  19.704  0.00  0.00    +0.000 C 
ATOM      6  C   UNL     1       0.480  10.366  21.519  0.00  0.00    +0.000 C 
ATOM      7  O   UNL     1       1.166   9.961  22.450  0.00  0.00    +0.000 OA
ATOM      8  C   UNL     1      -0.747  11.158  21.725  0.00  0.00    +0.000 A 
ATOM      9  C   UNL     1      -1.116  11.335  23.070  0.00  0.00    +0.000 A 
ATOM     10  C   UNL     1      -2.297  11.966  23.385  0.00  0.00    +0.000 A 
ATOM     11  C   UNL     1      -3.106  12.413  22.350  0.00  0.00    +0.000 A 
ATOM     12  C   UNL     1      -2.759  12.264  20.977  0.00  0.00    +0.000 A 
ATOM     13  C   UNL     1      -3.777  12.900  20.061  0.00  0.00    +0.000 C 
ATOM     14  C   UNL     1      -1.528  11.633  20.629  0.00  0.00    +0.000 A 
ENDROOT
BRANCH   5  15
ATOM     15  N   UNL     1       1.473   7.726  20.399  0.00  0.00    +0.000 N 
ATOM     16  H   UNL     1       1.542   7.914  21.401  0.00  0.00    +0.000 HD
BRANCH  15  17
ATOM     17  C   UNL     1       2.602   6.850  20.077  0.00  0.00    +0.000 C 
BRANCH  17  18
ATOM     18  C   UNL     1       2.057   5.500  19.688  0.00  0.00    +0.000 A 
ATOM     19  C   UNL     1       2.082   5.102  18.344  0.00  0.00    +0.000 A 
ATOM     20  C   UNL     1       1.555   3.870  17.956  0.00  0.00    +0.000 A 
ATOM     21  C   UNL     1       0.981   3.043  18.915  0.00  0.00    +0.000 A 
ATOM     22  F   UNL     1       0.471   1.863  18.542  0.00  0.00    +0.000 F 
ATOM     23  C   UNL     1       0.929   3.424  20.251  0.00  0.00    +0.000 A 
ATOM     24  C   UNL     1       1.465   4.653  20.640  0.00  0.00    +0.000 A 
ENDBRANCH  17  18
ENDBRANCH  15  17
ENDBRANCH   5  15
BRANCH   1  25
ATOM     25  C   UNL     1      -1.662  11.882  18.062  0.00  0.00    +0.000 C 
BRANCH  25  26
ATOM     26  C   UNL     1      -2.399  10.768  17.276  0.00  0.00    +0.000 C 
BRANCH  26  28
ATOM     27  C   UNL     1      -2.913  10.016  14.914  0.00  0.00    +0.000 C 
ATOM     28  C   UNL     1      -2.809  11.200  15.863  0.00  0.00    +0.000 C 
ENDBRANCH  26  28
ENDBRANCH  25  26
ENDBRANCH   1  25
TORSDOF 6
ENDMDL
MODEL 3
REMARK VINA RESULT:      -7.2      1.630      2.018
REMARK  Name = 
REMARK  8 active torsions:
REMARK  status: ('A' for Active; 'I' for Inactive)
REMARK    1  A    between atoms: C_1  and  C_2
REMARK    2  A    between atoms: C_2  and  C_3
REMARK    3  A    between atoms: C_3  and  C_4
REMARK    4  A    between atoms: C_4  and  N_5
REMARK    5  A    between atoms: C_9  and  N_10
REMARK    6  A    between atoms: N_10  and  C_11
REMARK    7  A    between atoms: C_11  and  C_12
REMARK    8  A    between atoms: C_25  and  C_26
REMARK                            x       y       z     vdW  Elec       q    Type
REMARK                         _______ _______ _______ _____ _____    ______ ____
ROOT
ATOM      1  N   UNL     1      -0.473  10.601  19.088  0.00  0.00    +0.000 N 
ATOM      2  C   UNL     1       0.824  10.064  19.015  0.00  0.00    +0.000 C 
ATOM      3  O   UNL     1       1.549  10.070  18.026  0.00  0.00    +0.000 OA
ATOM      4  C   UNL     1       1.193   9.304  20.216  0.00  0.00    +0.000 C 
ATOM      5  C   UNL     1       1.595   8.031  20.058  0.00  0.00    +0.000 C 
ATOM      6  C   UNL     1       0.914   9.890  21.518  0.00  0.00    +0.000 C 
ATOM      7  O   UNL     1       1.577   9.641  22.519  0.00  0.00    +0.000 OA
ATOM      8  C   UNL     1      -0.251  10.794  21.543  0.00  0.00    +0.000 A 
ATOM      9  C   UNL     1      -0.594  11.278  22.818  0.00  0.00    +0.000 A 
ATOM     10  C   UNL     1      -1.723  12.045  22.983  0.00  0.00    +0.000 A 
ATOM     11  C   UNL     1      -2.507  12.321  21.872  0.00  0.00    +0.000 A 
ATOM     12  C   UNL     1      -2.184  11.859  20.564  0.00  0.00    +0.000 A 
ATOM     13  C   UNL     1      -3.160  12.360  19.527  0.00  0.00    +0.000 C 
ATOM     14  C   UNL     1      -1.005  11.081  20.366  0.00  0.00    +0.000 A 
ENDROOT
BRANCH   5  15
ATOM     15  N   UNL     1       1.703   7.006  20.990  0.00  0.00    +0.000 N 
ATOM     16  H   UNL     1       2.638   7.005  21.401  0.00  0.00    +0.000 HD
BRANCH  15  17
ATOM     17  C   UNL     1       1.434   5.620  20.601  0.00  0.00    +0.000 C 
BRANCH  17  18
ATOM     18  C   UNL     1       2.396   5.243  19.503  0.00  0.00    +0.000 A 
ATOM     19  C   UNL     1       1.918   4.603  18.352  0.00  0.00    +0.000 A 
ATOM     20  C   UNL     1       2.793   4.217  17.336  0.00  0.00    +0.000 A 
ATOM     21  C   UNL     1       4.155   4.453  17.486  0.00  0.00    +0.000 A 
ATOM     22  F   UNL     1       4.996   4.078  16.515  0.00  0.00    +0.000 F 
ATOM     23  C   UNL     1       4.654   5.071  18.628  0.00  0.00    +0.000 A 
ATOM     24  C   UNL     1       3.776   5.465  19.638  0.00  0.00    +0.000 A 
ENDBRANCH  17  18
ENDBRANCH  15  17
ENDBRANCH   5  15
BRANCH   1  25
ATOM     25  C   UNL     1      -1.143  10.790  17.803  0.00  0.00    +0.000 C 
BRANCH  25  26
ATOM     26  C   UNL     1      -2.182   9.714  17.397  0.00  0.00    +0.000 C 
BRANCH  26  28
ATOM     27  C   UNL     1      -3.491  11.132  15.760  0.00  0.00    +0.000 C 
ATOM     28  C   UNL     1      -2.671   9.866  15.952  0.00  0.00    +0.000 C 
ENDBRANCH  26  28
ENDBRANCH  25  26
ENDBRANCH   1  25
TORSDOF 6
ENDMDL
MODEL 4
REMARK VINA RESULT:      -7.1      1.335      1.530
REMARK  Name = 
REMARK  8 active torsions:
REMARK  status: ('A' for Active; 'I' for Inactive)
REMARK    1  A    between atoms: C_1  and  C_2
REMARK    2  A    between atoms: C_2  and  C_3
REMARK    3  A    between atoms: C_3  and  C_4
REMARK    4  A    between atoms: C_4  and  N_5
REMARK    5  A    between atoms: C_9  and  N_10
REMARK    6  A    between atoms: N_10  and  C_11
REMARK    7  A    between atoms: C_11  and  C_12
REMARK    8  A    between atoms: C_25  and  C_26
REMARK                            x       y       z     vdW  Elec       q    Type
REMARK                         _______ _______ _______ _____ _____    ______ ____
ROOT
ATOM      1  N   UNL     1      -0.368  10.702  19.085  0.00  0.00    +0.000 N 
ATOM      2  C   UNL     1       0.947  10.211  19.003  0.00  0.00    +0.000 C 
ATOM      3  O   UNL     1       1.690  10.306  18.032  0.00  0.00    +0.000 OA
ATOM      4  C   UNL     1       1.318   9.383  20.158  0.00  0.00    +0.000 C 
ATOM      5  C   UNL     1       1.763   8.136  19.923  0.00  0.00    +0.000 C 
ATOM      6  C   UNL     1       0.996   9.870  21.490  0.00  0.00    +0.000 C 
ATOM      7  O   UNL     1       1.648   9.574  22.485  0.00  0.00    +0.000 OA
ATOM      8  C   UNL     1      -0.198  10.734  21.552  0.00  0.00    +0.000 A 
ATOM      9  C   UNL     1      -0.580  11.120  22.849  0.00  0.00    +0.000 A 
ATOM     10  C   UNL     1      -1.735  11.840  23.042  0.00  0.00    +0.000 A 
ATOM     11  C   UNL     1      -2.506  12.166  21.936  0.00  0.00    +0.000 A 
ATOM     12  C   UNL     1      -2.144  11.804  20.606  0.00  0.00    +0.000 A 
ATOM     13  C   UNL     1      -3.117  12.344  19.585  0.00  0.00    +0.000 C 
ATOM     14  C   UNL     1      -0.938  11.078  20.381  0.00  0.00    +0.000 A 
ENDROOT
BRANCH   5  15
ATOM     15  N   UNL     1       1.885   7.054  20.786  0.00  0.00    +0.000 N 
ATOM     16  H   UNL     1       2.811   6.633  20.689  0.00  0.00    +0.000 HD
BRANCH  15  17
ATOM     17  C   UNL     1       0.932   5.944  20.723  0.00  0.00    +0.000 C 
BRANCH  17  18
ATOM     18  C   UNL     1       1.655   4.729  20.199  0.00  0.00    +0.000 A 
ATOM     19  C   UNL     1       0.950   3.535  19.997  0.00  0.00    +0.000 A 
ATOM     20  C   UNL     1       1.605   2.390  19.543  0.00  0.00    +0.000 A 
ATOM     21  C   UNL     1       2.975   2.436  19.311  0.00  0.00    +0.000 A 
ATOM     22  F   UNL     1       3.604   1.336  18.880  0.00  0.00    +0.000 F 
ATOM     23  C   UNL     1       3.698   3.605  19.521  0.00  0.00    +0.000 A 
ATOM     24  C   UNL     1       3.040   4.753  19.966  0.00  0.00    +0.000 A 
ENDBRANCH  17  18
ENDBRANCH  15  17
ENDBRANCH   5  15
BRANCH   1  25
ATOM     25  C   UNL     1      -1.019  10.957  17.802  0.00  0.00    +0.000 C 
BRANCH  25  26
ATOM     26  C   UNL     1      -1.784   9.769  17.164  0.00  0.00    +0.000 C 
BRANCH  26  28
ATOM     27  C   UNL     1      -3.066  10.723  15.201  0.00  0.00    +0.000 C 
ATOM     28  C   UNL     1      -3.158  10.167  16.613  0.00  0.00    +0.000 C 
ENDBRANCH  26  28
ENDBRANCH  25  26
ENDBRANCH   1  25
TORSDOF 6
ENDMDL
MODEL 5
REMARK VINA RESULT:      -7.0      3.210      8.190
REMARK  Name = 
REMARK  8 active torsions:
REMARK  status: ('A' for Active; 'I' for Inactive)
REMARK    1  A    between atoms: C_1  and  C_2
REMARK    2  A    between atoms: C_2  and  C_3
REMARK    3  A    between atoms: C_3  and  C_4
REMARK    4  A    between atoms: C_4  and  N_5
REMARK    5  A    between atoms: C_9  and  N_10
REMARK    6  A    between atoms: N_10  and  C_11
REMARK    7  A    between atoms: C_11  and  C_12
REMARK    8  A    between atoms: C_25  and  C_26
REMARK                            x       y       z     vdW  Elec       q    Type
REMARK                         _______ _______ _______ _____ _____    ______ ____
ROOT
ATOM      1  N   UNL     1       2.314   6.461  19.767  0.00  0.00    +0.000 N 
ATOM      2  C   UNL     1       1.891   7.721  20.225  0.00  0.00    +0.000 C 
ATOM      3  O   UNL     1       1.621   8.010  21.386  0.00  0.00    +0.000 OA
ATOM      4  C   UNL     1       1.614   8.660  19.130  0.00  0.00    +0.000 C 
ATOM      5  C   UNL     1       0.400   9.234  19.084  0.00  0.00    +0.000 C 
ATOM      6  C   UNL     1       2.581   8.765  18.048  0.00  0.00    +0.000 C 
ATOM      7  O   UNL     1       2.740   9.788  17.391  0.00  0.00    +0.000 OA
ATOM      8  C   UNL     1       3.342   7.529  17.789  0.00  0.00    +0.000 A 
ATOM      9  C   UNL     1       4.199   7.587  16.675  0.00  0.00    +0.000 A 
ATOM     10  C   UNL     1       4.883   6.465  16.272  0.00  0.00    +0.000 A 
ATOM     11  C   UNL     1       4.702   5.287  16.982  0.00  0.00    +0.000 A 
ATOM     12  C   UNL     1       3.853   5.193  18.122  0.00  0.00    +0.000 A 
ATOM     13  C   UNL     1       3.893   3.820  18.748  0.00  0.00    +0.000 C 
ATOM     14  C   UNL     1       3.153   6.351  18.572  0.00  0.00    +0.000 A 
ENDROOT
BRANCH   5  15
ATOM     15  N   UNL     1      -0.237   9.893  18.040  0.00  0.00    +0.000 N 
ATOM     16  H   UNL     1       0.341   9.856  17.199  0.00  0.00    +0.000 HD
BRANCH  15  17
ATOM     17  C   UNL     1      -0.643  11.293  18.185  0.00  0.00    +0.000 C 
BRANCH  17  18
ATOM     18  C   UNL     1      -2.123  11.387  17.910  0.00  0.00    +0.000 A 
ATOM     19  C   UNL     1      -2.991  11.810  18.925  0.00  0.00    +0.000 A 
ATOM     20  C   UNL     1      -4.367  11.875  18.703  0.00  0.00    +0.000 A 
ATOM     21  C   UNL     1      -4.876  11.494  17.466  0.00  0.00    +0.000 A 
ATOM     22  F   UNL     1      -6.196  11.551  17.255  0.00  0.00    +0.000 F 
ATOM     23  C   UNL     1      -4.035  11.055  16.450  0.00  0.00    +0.000 A 
ATOM     24  C   UNL     1      -2.657  10.999  16.670  0.00  0.00    +0.000 A 
ENDBRANCH  17  18
ENDBRANCH  15  17
ENDBRANCH   5  15
BRANCH   1  25
ATOM     25  C   UNL     1       2.002   5.340  20.651  0.00  0.00    +0.000 C 
BRANCH  25  26
ATOM     26  C   UNL     1       0.787   4.463  20.258  0.00  0.00    +0.000 C 
BRANCH  26  28
ATOM     27  C   UNL     1       1.886   2.745  21.757  0.00  0.00    +0.000 C 
ATOM     28  C   UNL     1       1.007   2.971  20.537  0.00  0.00    +0.000 C 
ENDBRANCH  26  28
ENDBRANCH  25  26
ENDBRANCH   1  25
TORSDOF 6
ENDMDL
MODEL 6
REMARK VINA RESULT:      -7.0      1.284      1.923
REMARK  Name = 
REMARK  8 active torsions:
REMARK  status: ('A' for Active; 'I' for Inactive)
REMARK    1  A    between atoms: C_1  and  C_2
REMARK    2  A    between atoms: C_2  and  C_3
REMARK    3  A    between atoms: C_3  and  C_4
REMARK    4  A    between atoms: C_4  and  N_5
REMARK    5  A    between atoms: C_9  and  N_10
REMARK    6  A    between atoms: N_10  and  C_11
REMARK    7  A    between atoms: C_11  and  C_12
REMARK    8  A    between atoms: C_25  and  C_26
REMARK                            x       y       z     vdW  Elec       q    Type
REMARK                         _______ _______ _______ _____ _____    ______ ____
ROOT
ATOM      1  N   UNL     1       0.293  11.423  19.468  0.00  0.00    +0.000 N 
ATOM      2  C   UNL     1       1.440  10.917  18.832  0.00  0.00    +0.000 C 
ATOM      3  O   UNL     1       2.137  11.521  18.023  0.00  0.00    +0.000 OA
ATOM      4  C   UNL     1       1.647   9.486  19.086  0.00  0.00    +0.000 C 
ATOM      5  C   UNL     1       1.758   8.667  18.025  0.00  0.00    +0.000 C 
ATOM      6  C   UNL     1       1.517   8.999  20.450  0.00  0.00    +0.000 C 
ATOM      7  O   UNL     1       2.122   8.019  20.871  0.00  0.00    +0.000 OA
ATOM      8  C   UNL     1       0.580   9.772  21.287  0.00  0.00    +0.000 A 
ATOM      9  C   UNL     1       0.365   9.245  22.573  0.00  0.00    +0.000 A 
ATOM     10  C   UNL     1      -0.566   9.818  23.406  0.00  0.00    +0.000 A 
ATOM     11  C   UNL     1      -1.282  10.914  22.948  0.00  0.00    +0.000 A 
ATOM     12  C   UNL     1      -1.083  11.483  21.657  0.00  0.00    +0.000 A 
ATOM     13  C   UNL     1      -1.938  12.707  21.438  0.00  0.00    +0.000 C 
ATOM     14  C   UNL     1      -0.106  10.918  20.785  0.00  0.00    +0.000 A 
ENDROOT
BRANCH   5  15
ATOM     15  N   UNL     1       1.648   7.284  17.950  0.00  0.00    +0.000 N 
ATOM     16  H   UNL     1       1.073   6.936  18.718  0.00  0.00    +0.000 HD
BRANCH  15  17
ATOM     17  C   UNL     1       2.849   6.445  17.939  0.00  0.00    +0.000 C 
BRANCH  17  18
ATOM     18  C   UNL     1       2.450   5.043  18.322  0.00  0.00    +0.000 A 
ATOM     19  C   UNL     1       2.706   3.983  17.442  0.00  0.00    +0.000 A 
ATOM     20  C   UNL     1       2.317   2.682  17.761  0.00  0.00    +0.000 A 
ATOM     21  C   UNL     1       1.651   2.445  18.958  0.00  0.00    +0.000 A 
ATOM     22  F   UNL     1       1.273   1.198  19.263  0.00  0.00    +0.000 F 
ATOM     23  C   UNL     1       1.370   3.484  19.840  0.00  0.00    +0.000 A 
ATOM     24  C   UNL     1       1.768   4.784  19.523  0.00  0.00    +0.000 A 
ENDBRANCH  17  18
ENDBRANCH  15  17
ENDBRANCH   5  15
BRANCH   1  25
ATOM     25  C   UNL     1      -0.333  12.566  18.808  0.00  0.00    +0.000 C 
BRANCH  25  26
ATOM     26  C   UNL     1      -1.424  12.247  17.755  0.00  0.00    +0.000 C 
BRANCH  26  28
ATOM     27  C   UNL     1      -2.040   9.961  16.861  0.00  0.00    +0.000 C 
ATOM     28  C   UNL     1      -2.157  10.929  18.028  0.00  0.00    +0.000 C 
ENDBRANCH  26  28
ENDBRANCH  25  26
ENDBRANCH   1  25
TORSDOF 6
ENDMDL
MODEL 7
REMARK VINA RESULT:      -6.9      1.900      3.704
REMARK  Name = 
REMARK  8 active torsions:
REMARK  status: ('A' for Active; 'I' for Inactive)
REMARK    1  A    between atoms: C_1  and  C_2
REMARK    2  A    between atoms: C_2  and  C_3
REMARK    3  A    between atoms: C_3  and  C_4
REMARK    4  A    between atoms: C_4  and  N_5
REMARK    5  A    between atoms: C_9  and  N_10
REMARK    6  A    between atoms: N_10  and  C_11
REMARK    7  A    between atoms: C_11  and  C_12
REMARK    8  A    between atoms: C_25  and  C_26
REMARK                            x       y       z     vdW  Elec       q    Type
REMARK                         _______ _______ _______ _____ _____    ______ ____
ROOT
ATOM      1  N   UNL     1      -0.175  11.652  20.320  0.00  0.00    +0.000 N 
ATOM      2  C   UNL     1      -0.405  10.633  19.379  0.00  0.00    +0.000 C 
ATOM      3  O   UNL     1      -1.481  10.086  19.163  0.00  0.00    +0.000 OA
ATOM      4  C   UNL     1       0.833  10.129  18.772  0.00  0.00    +0.000 C 
ATOM      5  C   UNL     1       1.081   8.810  18.846  0.00  0.00    +0.000 C 
ATOM      6  C   UNL     1       1.818  11.094  18.307  0.00  0.00    +0.000 C 
ATOM      7  O   UNL     1       2.593  10.866  17.385  0.00  0.00    +0.000 OA
ATOM      8  C   UNL     1       1.823  12.367  19.051  0.00  0.00    +0.000 A 
ATOM      9  C   UNL     1       2.842  13.262  18.681  0.00  0.00    +0.000 A 
ATOM     10  C   UNL     1       3.013  14.437  19.373  0.00  0.00    +0.000 A 
ATOM     11  C   UNL     1       2.166  14.710  20.437  0.00  0.00    +0.000 A 
ATOM     12  C   UNL     1       1.114  13.834  20.833  0.00  0.00    +0.000 A 
ATOM     13  C   UNL     1       0.299  14.402  21.969  0.00  0.00    +0.000 C 
ATOM     14  C   UNL     1       0.904  12.621  20.113  0.00  0.00    +0.000 A 
ENDROOT
BRANCH   5  15
ATOM     15  N   UNL     1       2.266   8.112  18.651  0.00  0.00    +0.000 N 
ATOM     16  H   UNL     1       2.220   7.583  17.779  0.00  0.00    +0.000 HD
BRANCH  15  17
ATOM     17  C   UNL     1       2.746   7.170  19.665  0.00  0.00    +0.000 C 
BRANCH  17  18
ATOM     18  C   UNL     1       2.131   5.821  19.385  0.00  0.00    +0.000 A 
ATOM     19  C   UNL     1       1.581   5.078  20.438  0.00  0.00    +0.000 A 
ATOM     20  C   UNL     1       1.035   3.815  20.208  0.00  0.00    +0.000 A 
ATOM     21  C   UNL     1       1.060   3.286  18.923  0.00  0.00    +0.000 A 
ATOM     22  F   UNL     1       0.541   2.072  18.703  0.00  0.00    +0.000 F 
ATOM     23  C   UNL     1       1.616   3.998  17.866  0.00  0.00    +0.000 A 
ATOM     24  C   UNL     1       2.154   5.266  18.095  0.00  0.00    +0.000 A 
ENDBRANCH  17  18
ENDBRANCH  15  17
ENDBRANCH   5  15
BRANCH   1  25
ATOM     25  C   UNL     1      -1.173  11.756  21.382  0.00  0.00    +0.000 C 
BRANCH  25  26
ATOM     26  C   UNL     1      -0.766  11.207  22.774  0.00  0.00    +0.000 C 
BRANCH  26  28
ATOM     27  C   UNL     1       0.783   9.213  22.600  0.00  0.00    +0.000 C 
ATOM     28  C   UNL     1      -0.650   9.679  22.805  0.00  0.00    +0.000 C 
ENDBRANCH  26  28
ENDBRANCH  25  26
ENDBRANCH   1  25
TORSDOF 6
ENDMDL
MODEL 8
REMARK VINA RESULT:      -6.8      1.328      1.701
REMARK  Name = 
REMARK  8 active torsions:
REMARK  status: ('A' for Active; 'I' for Inactive)
REMARK    1  A    between atoms: C_1  and  C_2
REMARK    2  A    between atoms: C_2  and  C_3
REMARK    3  A    between atoms: C_3  and  C_4
REMARK    4  A    between atoms: C_4  and  N_5
REMARK    5  A    between atoms: C_9  and  N_10
REMARK    6  A    between atoms: N_10  and  C_11
REMARK    7  A    between atoms: C_11  and  C_12
REMARK    8  A    between atoms: C_25  and  C_26
REMARK                            x       y       z     vdW  Elec       q    Type
REMARK                         _______ _______ _______ _____ _____    ______ ____
ROOT
ATOM      1  N   UNL     1      -2.183  11.799  19.550  0.00  0.00    +0.000 N 
ATOM      2  C   UNL     1      -0.830  11.440  19.415  0.00  0.00    +0.000 C 
ATOM      3  O   UNL     1      -0.145  11.588  18.409  0.00  0.00    +0.000 OA
ATOM      4  C   UNL     1      -0.327  10.679  20.565  0.00  0.00    +0.000 C 
ATOM      5  C   UNL     1       0.230   9.478  20.331  0.00  0.00    +0.000 C 
ATOM      6  C   UNL     1      -0.637  11.160  21.903  0.00  0.00    +0.000 C 
ATOM      7  O   UNL     1       0.086  10.953  22.871  0.00  0.00    +0.000 OA
ATOM      8  C   UNL     1      -1.907  11.902  22.005  0.00  0.00    +0.000 A 
ATOM      9  C   UNL     1      -2.268  12.276  23.312  0.00  0.00    +0.000 A 
ATOM     10  C   UNL     1      -3.480  12.880  23.546  0.00  0.00    +0.000 A 
ATOM     11  C   UNL     1      -4.329  13.104  22.472  0.00  0.00    +0.000 A 
ATOM     12  C   UNL     1      -3.992  12.751  21.133  0.00  0.00    +0.000 A 
ATOM     13  C   UNL     1      -5.059  13.169  20.150  0.00  0.00    +0.000 C 
ATOM     14  C   UNL     1      -2.730  12.145  20.865  0.00  0.00    +0.000 A 
ENDROOT
BRANCH   5  15
ATOM     15  N   UNL     1       0.500   8.433  21.206  0.00  0.00    +0.000 N 
ATOM     16  H   UNL     1       0.263   8.707  22.161  0.00  0.00    +0.000 HD
BRANCH  15  17
ATOM     17  C   UNL     1       1.844   7.855  21.278  0.00  0.00    +0.000 C 
BRANCH  17  18
ATOM     18  C   UNL     1       1.934   6.743  20.263  0.00  0.00    +0.000 A 
ATOM     19  C   UNL     1       1.515   5.451  20.610  0.00  0.00    +0.000 A 
ATOM     20  C   UNL     1       1.618   4.400  19.699  0.00  0.00    +0.000 A 
ATOM     21  C   UNL     1       2.163   4.640  18.442  0.00  0.00    +0.000 A 
ATOM     22  F   UNL     1       2.266   3.631  17.569  0.00  0.00    +0.000 F 
ATOM     23  C   UNL     1       2.601   5.909  18.082  0.00  0.00    +0.000 A 
ATOM     24  C   UNL     1       2.489   6.962  18.992  0.00  0.00    +0.000 A 
ENDBRANCH  17  18
ENDBRANCH  15  17
ENDBRANCH   5  15
BRANCH   1  25
ATOM     25  C   UNL     1      -2.913  11.960  18.295  0.00  0.00    +0.000 C 
BRANCH  25  26
ATOM     26  C   UNL     1      -3.653  10.708  17.757  0.00  0.00    +0.000 C 
BRANCH  26  28
ATOM     27  C   UNL     1      -2.813  10.736  15.369  0.00  0.00    +0.000 C 
ATOM     28  C   UNL     1      -2.862   9.961  16.677  0.00  0.00    +0.000 C 
ENDBRANCH  26  28
ENDBRANCH  25  26
ENDBRANCH   1  25
TORSDOF 6
ENDMDL
MODEL 9
REMARK VINA RESULT:      -6.8      3.191      8.227
REMARK  Name = 
REMARK  8 active torsions:
REMARK  status: ('A' for Active; 'I' for Inactive)
REMARK    1  A    between atoms: C_1  and  C_2
REMARK    2  A    between atoms: C_2  and  C_3
REMARK    3  A    between atoms: C_3  and  C_4
REMARK    4  A    between atoms: C_4  and  N_5
REMARK    5  A    between atoms: C_9  and  N_10
REMARK    6  A    between atoms: N_10  and  C_11
REMARK    7  A    between atoms: C_11  and  C_12
REMARK    8  A    between atoms: C_25  and  C_26
REMARK                            x       y       z     vdW  Elec       q    Type
REMARK                         _______ _______ _______ _____ _____    ______ ____
ROOT
ATOM      1  N   UNL     1       2.448   6.307  19.682  0.00  0.00    +0.000 N 
ATOM      2  C   UNL     1       2.019   7.551  20.177  0.00  0.00    +0.000 C 
ATOM      3  O   UNL     1       1.761   7.806  21.349  0.00  0.00    +0.000 OA
ATOM      4  C   UNL     1       1.720   8.515  19.112  0.00  0.00    +0.000 C 
ATOM      5  C   UNL     1       0.499   9.079  19.096  0.00  0.00    +0.000 C 
ATOM      6  C   UNL     1       2.671   8.658  18.021  0.00  0.00    +0.000 C 
ATOM      7  O   UNL     1       2.812   9.699  17.389  0.00  0.00    +0.000 OA
ATOM      8  C   UNL     1       3.441   7.437  17.719  0.00  0.00    +0.000 A 
ATOM      9  C   UNL     1       4.283   7.532  16.597  0.00  0.00    +0.000 A 
ATOM     10  C   UNL     1       4.972   6.428  16.156  0.00  0.00    +0.000 A 
ATOM     11  C   UNL     1       4.812   5.230  16.837  0.00  0.00    +0.000 A 
ATOM     12  C   UNL     1       3.978   5.098  17.984  0.00  0.00    +0.000 A 
ATOM     13  C   UNL     1       4.038   3.709  18.574  0.00  0.00    +0.000 C 
ATOM     14  C   UNL     1       3.272   6.237  18.473  0.00  0.00    +0.000 A 
ENDROOT
BRANCH   5  15
ATOM     15  N   UNL     1      -0.157   9.759  18.077  0.00  0.00    +0.000 N 
ATOM     16  H   UNL     1       0.408   9.745  17.226  0.00  0.00    +0.000 HD
BRANCH  15  17
ATOM     17  C   UNL     1      -0.567  11.153  18.261  0.00  0.00    +0.000 C 
BRANCH  17  18
ATOM     18  C   UNL     1      -2.048  11.249  17.994  0.00  0.00    +0.000 A 
ATOM     19  C   UNL     1      -2.563  10.795  16.773  0.00  0.00    +0.000 A 
ATOM     20  C   UNL     1      -3.925  10.903  16.491  0.00  0.00    +0.000 A 
ATOM     21  C   UNL     1      -4.770  11.487  17.428  0.00  0.00    +0.000 A 
ATOM     22  F   UNL     1      -6.076  11.595  17.156  0.00  0.00    +0.000 F 
ATOM     23  C   UNL     1      -4.278  11.961  18.639  0.00  0.00    +0.000 A 
ATOM     24  C   UNL     1      -2.916  11.844  18.924  0.00  0.00    +0.000 A 
ENDBRANCH  17  18
ENDBRANCH  15  17
ENDBRANCH   5  15
BRANCH   1  25
ATOM     25  C   UNL     1       2.157   5.160  20.539  0.00  0.00    +0.000 C 
BRANCH  25  26
ATOM     26  C   UNL     1       0.794   4.456  20.320  0.00  0.00    +0.000 C 
BRANCH  26  28
ATOM     27  C   UNL     1       0.739   2.405  18.838  0.00  0.00    +0.000 C 
ATOM     28  C   UNL     1       0.911   2.929  20.255  0.00  0.00    +0.000 C 
ENDBRANCH  26  28
ENDBRANCH  25  26
ENDBRANCH   1  25
TORSDOF 6
ENDMDL
