MODEL 1
REMARK VINA RESULT:      -7.0      0.000      0.000
REMARK  Name = 
REMARK  3 active torsions:
REMARK  status: ('A' for Active; 'I' for Inactive)
REMARK    1  A    between atoms: C_1  and  N_2
REMARK    2  A    between atoms: C_20  and  C_21
REMARK    3  A    between atoms: N_23  and  C_24
REMARK                            x       y       z     vdW  Elec       q    Type
REMARK                         _______ _______ _______ _____ _____    ______ ____
ROOT
ATOM      1  C   UNL     1       2.908  13.651  20.347  0.00  0.00    +0.000 C 
ATOM      2  N   UNL     1       1.734  12.805  20.545  0.00  0.00    +0.000 NA
ATOM      3  C   UNL     1       1.269  12.260  19.252  0.00  0.00    +0.000 C 
ATOM      4  C   UNL     1       0.007  11.380  19.399  0.00  0.00    +0.000 C 
ATOM      5  N   UNL     1      -1.049  12.141  20.067  0.00  0.00    +0.000 N 
ATOM      6  C   UNL     1      -2.359  12.095  19.706  0.00  0.00    +0.000 A 
ATOM      7  N   UNL     1      -3.295  12.826  20.273  0.00  0.00    +0.000 NA
ATOM      8  C   UNL     1      -4.537  12.665  19.656  0.00  0.00    +0.000 A 
ATOM      9  C   UNL     1      -4.530  11.746  18.621  0.00  0.00    +0.000 A 
ATOM     10  S   UNL     1      -2.965  11.095  18.434  0.00  0.00    +0.000 S 
ATOM     11  C   UNL     1      -5.587  11.336  17.780  0.00  0.00    +0.000 C 
ATOM     12  C   UNL     1      -6.556  12.184  17.416  0.00  0.00    +0.000 C 
ATOM     13  C   UNL     1      -6.656  13.623  17.734  0.00  0.00    +0.000 A 
ATOM     14  C   UNL     1      -7.144  14.424  16.681  0.00  0.00    +0.000 A 
ATOM     15  C   UNL     1      -7.355  15.787  16.854  0.00  0.00    +0.000 A 
ATOM     16 CL   UNL     1      -7.916  16.746  15.542  0.00  0.00    +0.000 Cl
ATOM     17  C   UNL     1      -7.130  16.368  18.089  0.00  0.00    +0.000 A 
ATOM     18  C   UNL     1      -6.648  15.588  19.144  0.00  0.00    +0.000 A 
ATOM     19  C   UNL     1      -6.343  14.213  18.990  0.00  0.00    +0.000 A 
ATOM     20  C   UNL     1      -5.775  13.389  20.175  0.00  0.00    +0.000 C 
ATOM     21  C   UNL     1      -0.655  12.727  21.353  0.00  0.00    +0.000 C 
ATOM     22  C   UNL     1       0.633  13.571  21.175  0.00  0.00    +0.000 C 
ENDROOT
BRANCH  20  23
ATOM     23  C   UNL     1      -5.478  14.175  21.459  0.00  0.00    +0.000 A 
ATOM     24  C   UNL     1      -4.464  15.056  21.543  0.00  0.00    +0.000 A 
ATOM     25  N   UNL     1      -4.190  15.811  22.660  0.00  0.00    +0.000 N 
ATOM     26  C   UNL     1      -3.079  16.745  22.642  0.00  0.00    +0.000 C 
ATOM     27  C   UNL     1      -4.919  15.675  23.827  0.00  0.00    +0.000 A 
ATOM     28  O   UNL     1      -4.704  16.308  24.858  0.00  0.00    +0.000 OA
ATOM     29  N   UNL     1      -5.937  14.757  23.771  0.00  0.00    +0.000 N 
ATOM     30  C   UNL     1      -6.288  13.970  22.700  0.00  0.00    +0.000 A 
ATOM     31  S   UNL     1      -7.567  12.907  22.926  0.00  0.00    +0.000 S 
ATOM     32  H   UNL     1      -6.461  14.644  24.627  0.00  0.00    +0.000 HD
ENDBRANCH  20  23
TORSDOF 1
ENDMDL
MODEL 2
REMARK VINA RESULT:      -6.6      4.687      8.108
REMARK  Name = 
REMARK  3 active torsions:
REMARK  status: ('A' for Active; 'I' for Inactive)
REMARK    1  A    between atoms: C_1  and  N_2
REMARK    2  A    between atoms: C_20  and  C_21
REMARK    3  A    between atoms: N_23  and  C_24
REMARK                            x       y       z     vdW  Elec       q    Type
REMARK                         _______ _______ _______ _____ _____    ______ ____
ROOT
ATOM      1  C   UNL     1      -3.807  10.006  13.615  0.00  0.00    +0.000 C 
ATOM      2  N   UNL     1      -4.006  10.022  15.062  0.00  0.00    +0.000 NA
ATOM      3  C   UNL     1      -4.389  11.378  15.513  0.00  0.00    +0.000 C 
ATOM      4  C   UNL     1      -4.583  11.460  17.044  0.00  0.00    +0.000 C 
ATOM      5  N   UNL     1      -3.371  10.996  17.720  0.00  0.00    +0.000 N 
ATOM      6  C   UNL     1      -2.846  11.589  18.826  0.00  0.00    +0.000 A 
ATOM      7  N   UNL     1      -1.724  11.202  19.395  0.00  0.00    +0.000 NA
ATOM      8  C   UNL     1      -1.355  12.034  20.453  0.00  0.00    +0.000 A 
ATOM      9  C   UNL     1      -2.262  13.049  20.707  0.00  0.00    +0.000 A 
ATOM     10  S   UNL     1      -3.567  12.948  19.614  0.00  0.00    +0.000 S 
ATOM     11  C   UNL     1      -2.217  14.066  21.684  0.00  0.00    +0.000 C 
ATOM     12  C   UNL     1      -1.055  14.602  22.079  0.00  0.00    +0.000 C 
ATOM     13  C   UNL     1       0.293  14.310  21.551  0.00  0.00    +0.000 A 
ATOM     14  C   UNL     1       1.135  15.436  21.437  0.00  0.00    +0.000 A 
ATOM     15  C   UNL     1       2.454  15.306  21.018  0.00  0.00    +0.000 A 
ATOM     16 CL   UNL     1       3.447  16.700  20.854  0.00  0.00    +0.000 Cl
ATOM     17  C   UNL     1       2.972  14.052  20.751  0.00  0.00    +0.000 A 
ATOM     18  C   UNL     1       2.152  12.926  20.860  0.00  0.00    +0.000 A 
ATOM     19  C   UNL     1       0.781  13.020  21.205  0.00  0.00    +0.000 A 
ATOM     20  C   UNL     1      -0.106  11.750  21.281  0.00  0.00    +0.000 C 
ATOM     21  C   UNL     1      -2.920   9.661  17.310  0.00  0.00    +0.000 C 
ATOM     22  C   UNL     1      -2.773   9.604  15.769  0.00  0.00    +0.000 C 
ENDROOT
BRANCH  20  23
ATOM     23  C   UNL     1       0.565  10.434  20.864  0.00  0.00    +0.000 A 
ATOM     24  C   UNL     1       0.997  10.216  19.607  0.00  0.00    +0.000 A 
ATOM     25  N   UNL     1       1.641   9.069  19.203  0.00  0.00    +0.000 N 
ATOM     26  C   UNL     1       2.079   8.938  17.824  0.00  0.00    +0.000 C 
ATOM     27  C   UNL     1       1.847   8.007  20.064  0.00  0.00    +0.000 A 
ATOM     28  O   UNL     1       2.397   6.955  19.750  0.00  0.00    +0.000 OA
ATOM     29  N   UNL     1       1.385   8.199  21.342  0.00  0.00    +0.000 N 
ATOM     30  C   UNL     1       0.742   9.310  21.834  0.00  0.00    +0.000 A 
ATOM     31  S   UNL     1       0.258   9.256  23.440  0.00  0.00    +0.000 S 
ATOM     32  H   UNL     1       1.519   7.418  21.969  0.00  0.00    +0.000 HD
ENDBRANCH  20  23
TORSDOF 1
ENDMDL
MODEL 3
REMARK VINA RESULT:      -6.6      7.198     11.888
REMARK  Name = 
REMARK  3 active torsions:
REMARK  status: ('A' for Active; 'I' for Inactive)
REMARK    1  A    between atoms: C_1  and  N_2
REMARK    2  A    between atoms: C_20  and  C_21
REMARK    3  A    between atoms: N_23  and  C_24
REMARK                            x       y       z     vdW  Elec       q    Type
REMARK                         _______ _______ _______ _____ _____    ______ ____
ROOT
ATOM      1  C   UNL     1      -0.585  11.237  19.607  0.00  0.00    +0.000 C 
ATOM      2  N   UNL     1       0.136  12.505  19.686  0.00  0.00    +0.000 NA
ATOM      3  C   UNL     1       0.883  12.750  18.433  0.00  0.00    +0.000 C 
ATOM      4  C   UNL     1       1.690  14.068  18.474  0.00  0.00    +0.000 C 
ATOM      5  N   UNL     1       2.583  14.063  19.633  0.00  0.00    +0.000 N 
ATOM      6  C   UNL     1       3.862  14.525  19.607  0.00  0.00    +0.000 A 
ATOM      7  N   UNL     1       4.678  14.464  20.638  0.00  0.00    +0.000 NA
ATOM      8  C   UNL     1       5.961  14.916  20.322  0.00  0.00    +0.000 A 
ATOM      9  C   UNL     1       6.087  15.369  19.020  0.00  0.00    +0.000 A 
ATOM     10  S   UNL     1       4.596  15.224  18.207  0.00  0.00    +0.000 S 
ATOM     11  C   UNL     1       7.222  15.886  18.359  0.00  0.00    +0.000 C 
ATOM     12  C   UNL     1       8.454  15.443  18.639  0.00  0.00    +0.000 C 
ATOM     13  C   UNL     1       8.827  14.355  19.566  0.00  0.00    +0.000 A 
ATOM     14  C   UNL     1       9.882  13.536  19.114  0.00  0.00    +0.000 A 
ATOM     15  C   UNL     1      10.387  12.513  19.908  0.00  0.00    +0.000 A 
ATOM     16 CL   UNL     1      11.649  11.506  19.317  0.00  0.00    +0.000 Cl
ATOM     17  C   UNL     1       9.884  12.316  21.182  0.00  0.00    +0.000 A 
ATOM     18  C   UNL     1       8.840  13.121  21.645  0.00  0.00    +0.000 A 
ATOM     19  C   UNL     1       8.241  14.121  20.841  0.00  0.00    +0.000 A 
ATOM     20  C   UNL     1       7.059  14.970  21.378  0.00  0.00    +0.000 C 
ATOM     21  C   UNL     1       1.913  13.808  20.914  0.00  0.00    +0.000 C 
ATOM     22  C   UNL     1       1.084  12.503  20.825  0.00  0.00    +0.000 C 
ENDROOT
BRANCH  20  23
ATOM     23  C   UNL     1       6.532  14.585  22.768  0.00  0.00    +0.000 A 
ATOM     24  C   UNL     1       6.437  13.303  23.169  0.00  0.00    +0.000 A 
ATOM     25  N   UNL     1       6.011  12.917  24.419  0.00  0.00    +0.000 N 
ATOM     26  C   UNL     1       5.958  11.506  24.758  0.00  0.00    +0.000 C 
ATOM     27  C   UNL     1       5.584  13.837  25.359  0.00  0.00    +0.000 A 
ATOM     28  O   UNL     1       5.175  13.546  26.480  0.00  0.00    +0.000 OA
ATOM     29  N   UNL     1       5.642  15.147  24.955  0.00  0.00    +0.000 N 
ATOM     30  C   UNL     1       6.062  15.623  23.736  0.00  0.00    +0.000 A 
ATOM     31  S   UNL     1       5.999  17.284  23.507  0.00  0.00    +0.000 S 
ATOM     32  H   UNL     1       5.315  15.820  25.634  0.00  0.00    +0.000 HD
ENDBRANCH  20  23
TORSDOF 1
ENDMDL
MODEL 4
REMARK VINA RESULT:      -6.5      0.939      1.010
REMARK  Name = 
REMARK  3 active torsions:
REMARK  status: ('A' for Active; 'I' for Inactive)
REMARK    1  A    between atoms: C_1  and  N_2
REMARK    2  A    between atoms: C_20  and  C_21
REMARK    3  A    between atoms: N_23  and  C_24
REMARK                            x       y       z     vdW  Elec       q    Type
REMARK                         _______ _______ _______ _____ _____    ______ ____
ROOT
ATOM      1  C   UNL     1       2.951  15.468  21.135  0.00  0.00    +0.000 C 
ATOM      2  N   UNL     1       1.976  14.399  21.339  0.00  0.00    +0.000 NA
ATOM      3  C   UNL     1       1.734  13.677  20.072  0.00  0.00    +0.000 C 
ATOM      4  C   UNL     1       0.684  12.552  20.223  0.00  0.00    +0.000 C 
ATOM      5  N   UNL     1      -0.556  13.106  20.767  0.00  0.00    +0.000 N 
ATOM      6  C   UNL     1      -1.797  12.747  20.340  0.00  0.00    +0.000 A 
ATOM      7  N   UNL     1      -2.907  13.291  20.793  0.00  0.00    +0.000 NA
ATOM      8  C   UNL     1      -4.037  12.817  20.124  0.00  0.00    +0.000 A 
ATOM      9  C   UNL     1      -3.757  11.852  19.171  0.00  0.00    +0.000 A 
ATOM     10  S   UNL     1      -2.080  11.551  19.125  0.00  0.00    +0.000 S 
ATOM     11  C   UNL     1      -4.638  11.161  18.312  0.00  0.00    +0.000 C 
ATOM     12  C   UNL     1      -5.739  11.747  17.825  0.00  0.00    +0.000 C 
ATOM     13  C   UNL     1      -6.170  13.147  18.017  0.00  0.00    +0.000 A 
ATOM     14  C   UNL     1      -6.743  13.746  16.875  0.00  0.00    +0.000 A 
ATOM     15  C   UNL     1      -7.255  15.037  16.923  0.00  0.00    +0.000 A 
ATOM     16 CL   UNL     1      -7.914  15.755  15.507  0.00  0.00    +0.000 Cl
ATOM     17  C   UNL     1      -7.249  15.738  18.115  0.00  0.00    +0.000 A 
ATOM     18  C   UNL     1      -6.687  15.158  19.256  0.00  0.00    +0.000 A 
ATOM     19  C   UNL     1      -6.082  13.878  19.234  0.00  0.00    +0.000 A 
ATOM     20  C   UNL     1      -5.436  13.283  20.513  0.00  0.00    +0.000 C 
ATOM     21  C   UNL     1      -0.391  13.853  22.019  0.00  0.00    +0.000 C 
ATOM     22  C   UNL     1       0.694  14.945  21.842  0.00  0.00    +0.000 C 
ENDROOT
BRANCH  20  23
ATOM     23  C   UNL     1      -5.408  14.203  21.742  0.00  0.00    +0.000 A 
ATOM     24  C   UNL     1      -4.608  15.283  21.811  0.00  0.00    +0.000 A 
ATOM     25  N   UNL     1      -4.583  16.155  22.874  0.00  0.00    +0.000 N 
ATOM     26  C   UNL     1      -3.691  17.301  22.845  0.00  0.00    +0.000 C 
ATOM     27  C   UNL     1      -5.356  15.951  24.003  0.00  0.00    +0.000 A 
ATOM     28  O   UNL     1      -5.357  16.686  24.987  0.00  0.00    +0.000 OA
ATOM     29  N   UNL     1      -6.155  14.835  23.963  0.00  0.00    +0.000 N 
ATOM     30  C   UNL     1      -6.251  13.919  22.944  0.00  0.00    +0.000 A 
ATOM     31  S   UNL     1      -7.295  12.627  23.182  0.00  0.00    +0.000 S 
ATOM     32  H   UNL     1      -6.708  14.674  24.793  0.00  0.00    +0.000 HD
ENDBRANCH  20  23
TORSDOF 1
ENDMDL
MODEL 5
REMARK VINA RESULT:      -6.4      3.725      7.697
REMARK  Name = 
REMARK  3 active torsions:
REMARK  status: ('A' for Active; 'I' for Inactive)
REMARK    1  A    between atoms: C_1  and  N_2
REMARK    2  A    between atoms: C_20  and  C_21
REMARK    3  A    between atoms: N_23  and  C_24
REMARK                            x       y       z     vdW  Elec       q    Type
REMARK                         _______ _______ _______ _____ _____    ______ ____
ROOT
ATOM      1  C   UNL     1      -7.916  13.737  16.788  0.00  0.00    +0.000 C 
ATOM      2  N   UNL     1      -7.564  13.082  18.046  0.00  0.00    +0.000 NA
ATOM      3  C   UNL     1      -7.825  13.986  19.186  0.00  0.00    +0.000 C 
ATOM      4  C   UNL     1      -7.440  13.353  20.543  0.00  0.00    +0.000 C 
ATOM      5  N   UNL     1      -6.041  12.929  20.510  0.00  0.00    +0.000 N 
ATOM      6  C   UNL     1      -5.176  13.087  21.548  0.00  0.00    +0.000 A 
ATOM      7  N   UNL     1      -3.904  12.755  21.490  0.00  0.00    +0.000 NA
ATOM      8  C   UNL     1      -3.214  13.107  22.652  0.00  0.00    +0.000 A 
ATOM      9  C   UNL     1      -4.016  13.681  23.624  0.00  0.00    +0.000 A 
ATOM     10  S   UNL     1      -5.625  13.772  23.069  0.00  0.00    +0.000 S 
ATOM     11  C   UNL     1      -3.666  14.158  24.905  0.00  0.00    +0.000 C 
ATOM     12  C   UNL     1      -2.473  14.717  25.139  0.00  0.00    +0.000 C 
ATOM     13  C   UNL     1      -1.403  14.992  24.158  0.00  0.00    +0.000 A 
ATOM     14  C   UNL     1      -0.727  16.214  24.356  0.00  0.00    +0.000 A 
ATOM     15  C   UNL     1       0.348  16.577  23.552  0.00  0.00    +0.000 A 
ATOM     16 CL   UNL     1       1.131  18.089  23.792  0.00  0.00    +0.000 Cl
ATOM     17  C   UNL     1       0.797  15.713  22.570  0.00  0.00    +0.000 A 
ATOM     18  C   UNL     1       0.139  14.498  22.362  0.00  0.00    +0.000 A 
ATOM     19  C   UNL     1      -1.009  14.124  23.103  0.00  0.00    +0.000 A 
ATOM     20  C   UNL     1      -1.733  12.782  22.819  0.00  0.00    +0.000 C 
ATOM     21  C   UNL     1      -5.702  12.040  19.392  0.00  0.00    +0.000 C 
ATOM     22  C   UNL     1      -6.135  12.688  18.053  0.00  0.00    +0.000 C 
ENDROOT
BRANCH  20  23
ATOM     23  C   UNL     1      -1.194  11.963  21.638  0.00  0.00    +0.000 A 
ATOM     24  C   UNL     1      -1.352  12.358  20.360  0.00  0.00    +0.000 A 
ATOM     25  N   UNL     1      -0.848  11.676  19.277  0.00  0.00    +0.000 N 
ATOM     26  C   UNL     1      -1.063  12.194  17.937  0.00  0.00    +0.000 C 
ATOM     27  C   UNL     1      -0.175  10.477  19.419  0.00  0.00    +0.000 A 
ATOM     28  O   UNL     1       0.277   9.819  18.486  0.00  0.00    +0.000 OA
ATOM     29  N   UNL     1      -0.032  10.043  20.713  0.00  0.00    +0.000 N 
ATOM     30  C   UNL     1      -0.492  10.661  21.852  0.00  0.00    +0.000 A 
ATOM     31  S   UNL     1      -0.197   9.881  23.309  0.00  0.00    +0.000 S 
ATOM     32  H   UNL     1       0.445   9.159  20.819  0.00  0.00    +0.000 HD
ENDBRANCH  20  23
TORSDOF 1
ENDMDL
MODEL 6
REMARK VINA RESULT:      -6.1      4.595      7.540
REMARK  Name = 
REMARK  3 active torsions:
REMARK  status: ('A' for Active; 'I' for Inactive)
REMARK    1  A    between atoms: C_1  and  N_2
REMARK    2  A    between atoms: C_20  and  C_21
REMARK    3  A    between atoms: N_23  and  C_24
REMARK                            x       y       z     vdW  Elec       q    Type
REMARK                         _______ _______ _______ _____ _____    ______ ____
ROOT
ATOM      1  C   UNL     1      -0.407  16.227  27.212  0.00  0.00    +0.000 C 
ATOM      2  N   UNL     1      -1.052  16.364  25.908  0.00  0.00    +0.000 NA
ATOM      3  C   UNL     1      -1.951  15.218  25.655  0.00  0.00    +0.000 C 
ATOM      4  C   UNL     1      -2.637  15.297  24.273  0.00  0.00    +0.000 C 
ATOM      5  N   UNL     1      -1.623  15.419  23.225  0.00  0.00    +0.000 N 
ATOM      6  C   UNL     1      -1.684  14.770  22.032  0.00  0.00    +0.000 A 
ATOM      7  N   UNL     1      -0.740  14.839  21.118  0.00  0.00    +0.000 NA
ATOM      8  C   UNL     1      -0.999  14.006  20.028  0.00  0.00    +0.000 A 
ATOM      9  C   UNL     1      -2.203  13.327  20.119  0.00  0.00    +0.000 A 
ATOM     10  S   UNL     1      -2.995  13.743  21.570  0.00  0.00    +0.000 S 
ATOM     11  C   UNL     1      -2.782  12.409  19.217  0.00  0.00    +0.000 C 
ATOM     12  C   UNL     1      -2.028  11.577  18.489  0.00  0.00    +0.000 C 
ATOM     13  C   UNL     1      -0.560  11.417  18.543  0.00  0.00    +0.000 A 
ATOM     14  C   UNL     1      -0.111  10.086  18.420  0.00  0.00    +0.000 A 
ATOM     15  C   UNL     1       1.247   9.787  18.386  0.00  0.00    +0.000 A 
ATOM     16 CL   UNL     1       1.767   8.153  18.273  0.00  0.00    +0.000 Cl
ATOM     17  C   UNL     1       2.179  10.809  18.425  0.00  0.00    +0.000 A 
ATOM     18  C   UNL     1       1.749  12.133  18.544  0.00  0.00    +0.000 A 
ATOM     19  C   UNL     1       0.380  12.477  18.664  0.00  0.00    +0.000 A 
ATOM     20  C   UNL     1      -0.055  13.956  18.831  0.00  0.00    +0.000 C 
ATOM     21  C   UNL     1      -0.682  16.529  23.418  0.00  0.00    +0.000 C 
ATOM     22  C   UNL     1      -0.042  16.439  24.826  0.00  0.00    +0.000 C 
ENDROOT
BRANCH  20  23
ATOM     23  C   UNL     1       1.081  14.981  18.961  0.00  0.00    +0.000 A 
ATOM     24  C   UNL     1       2.291  14.652  19.452  0.00  0.00    +0.000 A 
ATOM     25  N   UNL     1       3.347  15.528  19.545  0.00  0.00    +0.000 N 
ATOM     26  C   UNL     1       4.618  15.070  20.078  0.00  0.00    +0.000 C 
ATOM     27  C   UNL     1       3.225  16.858  19.185  0.00  0.00    +0.000 A 
ATOM     28  O   UNL     1       4.129  17.686  19.267  0.00  0.00    +0.000 OA
ATOM     29  N   UNL     1       1.988  17.218  18.712  0.00  0.00    +0.000 N 
ATOM     30  C   UNL     1       0.884  16.412  18.575  0.00  0.00    +0.000 A 
ATOM     31  S   UNL     1      -0.515  17.134  17.994  0.00  0.00    +0.000 S 
ATOM     32  H   UNL     1       1.891  18.193  18.463  0.00  0.00    +0.000 HD
ENDBRANCH  20  23
TORSDOF 1
ENDMDL
MODEL 7
REMARK VINA RESULT:      -6.1      1.191      1.373
REMARK  Name = 
REMARK  3 active torsions:
REMARK  status: ('A' for Active; 'I' for Inactive)
REMARK    1  A    between atoms: C_1  and  N_2
REMARK    2  A    between atoms: C_20  and  C_21
REMARK    3  A    between atoms: N_23  and  C_24
REMARK                            x       y       z     vdW  Elec       q    Type
REMARK                         _______ _______ _______ _____ _____    ______ ____
ROOT
ATOM      1  C   UNL     1       2.207  11.593  18.956  0.00  0.00    +0.000 C 
ATOM      2  N   UNL     1       0.865  11.105  19.264  0.00  0.00    +0.000 NA
ATOM      3  C   UNL     1       0.088  10.919  18.020  0.00  0.00    +0.000 C 
ATOM      4  C   UNL     1      -1.354  10.432  18.291  0.00  0.00    +0.000 C 
ATOM      5  N   UNL     1      -2.024  11.358  19.204  0.00  0.00    +0.000 N 
ATOM      6  C   UNL     1      -3.319  11.750  19.069  0.00  0.00    +0.000 A 
ATOM      7  N   UNL     1      -3.899  12.628  19.860  0.00  0.00    +0.000 NA
ATOM      8  C   UNL     1      -5.199  12.929  19.451  0.00  0.00    +0.000 A 
ATOM      9  C   UNL     1      -5.614  12.213  18.342  0.00  0.00    +0.000 A 
ATOM     10  S   UNL     1      -4.368  11.171  17.824  0.00  0.00    +0.000 S 
ATOM     11  C   UNL     1      -6.848  12.259  17.657  0.00  0.00    +0.000 C 
ATOM     12  C   UNL     1      -7.545  13.397  17.553  0.00  0.00    +0.000 C 
ATOM     13  C   UNL     1      -7.150  14.738  18.029  0.00  0.00    +0.000 A 
ATOM     14  C   UNL     1      -7.499  15.795  17.162  0.00  0.00    +0.000 A 
ATOM     15  C   UNL     1      -7.252  17.118  17.508  0.00  0.00    +0.000 A 
ATOM     16 CL   UNL     1      -7.655  18.384  16.417  0.00  0.00    +0.000 Cl
ATOM     17  C   UNL     1      -6.697  17.417  18.739  0.00  0.00    +0.000 A 
ATOM     18  C   UNL     1      -6.346  16.382  19.610  0.00  0.00    +0.000 A 
ATOM     19  C   UNL     1      -6.506  15.017  19.266  0.00  0.00    +0.000 A 
ATOM     20  C   UNL     1      -6.072  13.896  20.246  0.00  0.00    +0.000 C 
ATOM     21  C   UNL     1      -1.301  11.606  20.456  0.00  0.00    +0.000 C 
ATOM     22  C   UNL     1       0.150  12.054  20.148  0.00  0.00    +0.000 C 
ENDROOT
BRANCH  20  23
ATOM     23  C   UNL     1      -5.378  14.360  21.534  0.00  0.00    +0.000 A 
ATOM     24  C   UNL     1      -4.240  15.080  21.518  0.00  0.00    +0.000 A 
ATOM     25  N   UNL     1      -3.612  15.551  22.647  0.00  0.00    +0.000 N 
ATOM     26  C   UNL     1      -2.393  16.331  22.519  0.00  0.00    +0.000 C 
ATOM     27  C   UNL     1      -4.081  15.265  23.916  0.00  0.00    +0.000 A 
ATOM     28  O   UNL     1      -3.547  15.643  24.955  0.00  0.00    +0.000 OA
ATOM     29  N   UNL     1      -5.223  14.504  23.953  0.00  0.00    +0.000 N 
ATOM     30  C   UNL     1      -5.921  14.001  22.881  0.00  0.00    +0.000 A 
ATOM     31  S   UNL     1      -7.275  13.073  23.227  0.00  0.00    +0.000 S 
ATOM     32  H   UNL     1      -5.559  14.280  24.879  0.00  0.00    +0.000 HD
ENDBRANCH  20  23
TORSDOF 1
ENDMDL
MODEL 8
REMARK VINA RESULT:      -6.1      7.582     13.063
REMARK  Name = 
REMARK  3 active torsions:
REMARK  status: ('A' for Active; 'I' for Inactive)
REMARK    1  A    between atoms: C_1  and  N_2
REMARK    2  A    between atoms: C_20  and  C_21
REMARK    3  A    between atoms: N_23  and  C_24
REMARK                            x       y       z     vdW  Elec       q    Type
REMARK                         _______ _______ _______ _____ _____    ______ ____
ROOT
ATOM      1  C   UNL     1       0.125  13.668  19.978  0.00  0.00    +0.000 C 
ATOM      2  N   UNL     1       1.147  14.673  20.259  0.00  0.00    +0.000 NA
ATOM      3  C   UNL     1       1.849  15.055  19.015  0.00  0.00    +0.000 C 
ATOM      4  C   UNL     1       2.964  16.097  19.261  0.00  0.00    +0.000 C 
ATOM      5  N   UNL     1       3.899  15.589  20.266  0.00  0.00    +0.000 N 
ATOM      6  C   UNL     1       5.249  15.737  20.188  0.00  0.00    +0.000 A 
ATOM      7  N   UNL     1       6.087  15.229  21.066  0.00  0.00    +0.000 NA
ATOM      8  C   UNL     1       7.420  15.440  20.706  0.00  0.00    +0.000 A 
ATOM      9  C   UNL     1       7.573  16.172  19.541  0.00  0.00    +0.000 A 
ATOM     10  S   UNL     1       6.044  16.586  18.910  0.00  0.00    +0.000 S 
ATOM     11  C   UNL     1       8.757  16.568  18.883  0.00  0.00    +0.000 C 
ATOM     12  C   UNL     1       9.852  15.798  18.894  0.00  0.00    +0.000 C 
ATOM     13  C   UNL     1       9.996  14.453  19.487  0.00  0.00    +0.000 A 
ATOM     14  C   UNL     1      10.779  13.558  18.727  0.00  0.00    +0.000 A 
ATOM     15  C   UNL     1      11.059  12.278  19.191  0.00  0.00    +0.000 A 
ATOM     16 CL   UNL     1      11.984  11.196  18.228  0.00  0.00    +0.000 Cl
ATOM     17  C   UNL     1      10.605  11.881  20.436  0.00  0.00    +0.000 A 
ATOM     18  C   UNL     1       9.830  12.756  21.202  0.00  0.00    +0.000 A 
ATOM     19  C   UNL     1       9.454  14.039  20.735  0.00  0.00    +0.000 A 
ATOM     20  C   UNL     1       8.562  14.968  21.600  0.00  0.00    +0.000 C 
ATOM     21  C   UNL     1       3.271  15.174  21.525  0.00  0.00    +0.000 C 
ATOM     22  C   UNL     1       2.134  14.161  21.238  0.00  0.00    +0.000 C 
ENDROOT
BRANCH  20  23
ATOM     23  C   UNL     1       8.045  14.369  22.915  0.00  0.00    +0.000 A 
ATOM     24  C   UNL     1       7.254  13.280  22.946  0.00  0.00    +0.000 A 
ATOM     25  N   UNL     1       6.804  12.688  24.103  0.00  0.00    +0.000 N 
ATOM     26  C   UNL     1       5.965  11.505  24.027  0.00  0.00    +0.000 C 
ATOM     27  C   UNL     1       7.091  13.213  25.350  0.00  0.00    +0.000 A 
ATOM     28  O   UNL     1       6.698  12.737  26.411  0.00  0.00    +0.000 OA
ATOM     29  N   UNL     1       7.870  14.343  25.336  0.00  0.00    +0.000 N 
ATOM     30  C   UNL     1       8.370  14.994  24.234  0.00  0.00    +0.000 A 
ATOM     31  S   UNL     1       9.273  16.380  24.517  0.00  0.00    +0.000 S 
ATOM     32  H   UNL     1       8.067  14.739  26.245  0.00  0.00    +0.000 HD
ENDBRANCH  20  23
TORSDOF 1
ENDMDL
MODEL 9
REMARK VINA RESULT:      -5.9      7.678     12.636
REMARK  Name = 
REMARK  3 active torsions:
REMARK  status: ('A' for Active; 'I' for Inactive)
REMARK    1  A    between atoms: C_1  and  N_2
REMARK    2  A    between atoms: C_20  and  C_21
REMARK    3  A    between atoms: N_23  and  C_24
REMARK                            x       y       z     vdW  Elec       q    Type
REMARK                         _______ _______ _______ _____ _____    ______ ____
ROOT
ATOM      1  C   UNL     1       0.182  11.495  19.797  0.00  0.00    +0.000 C 
ATOM      2  N   UNL     1       0.904  12.758  19.927  0.00  0.00    +0.000 NA
ATOM      3  C   UNL     1       1.526  13.130  18.638  0.00  0.00    +0.000 C 
ATOM      4  C   UNL     1       2.331  14.446  18.727  0.00  0.00    +0.000 C 
ATOM      5  N   UNL     1       3.330  14.342  19.791  0.00  0.00    +0.000 N 
ATOM      6  C   UNL     1       4.599  14.820  19.687  0.00  0.00    +0.000 A 
ATOM      7  N   UNL     1       5.510  14.672  20.626  0.00  0.00    +0.000 NA
ATOM      8  C   UNL     1       6.756  15.167  20.234  0.00  0.00    +0.000 A 
ATOM      9  C   UNL     1       6.756  15.743  18.975  0.00  0.00    +0.000 A 
ATOM     10  S   UNL     1       5.194  15.657  18.297  0.00  0.00    +0.000 S 
ATOM     11  C   UNL     1       7.821  16.333  18.262  0.00  0.00    +0.000 C 
ATOM     12  C   UNL     1       9.075  15.881  18.380  0.00  0.00    +0.000 C 
ATOM     13  C   UNL     1       9.538  14.714  19.159  0.00  0.00    +0.000 A 
ATOM     14  C   UNL     1      10.547  13.954  18.533  0.00  0.00    +0.000 A 
ATOM     15  C   UNL     1      11.129  12.866  19.175  0.00  0.00    +0.000 A 
ATOM     16 CL   UNL     1      12.331  11.935  18.374  0.00  0.00    +0.000 Cl
ATOM     17  C   UNL     1      10.751  12.544  20.466  0.00  0.00    +0.000 A 
ATOM     18  C   UNL     1       9.753  13.289  21.101  0.00  0.00    +0.000 A 
ATOM     19  C   UNL     1       9.077  14.354  20.456  0.00  0.00    +0.000 A 
ATOM     20  C   UNL     1       7.950  15.134  21.182  0.00  0.00    +0.000 C 
ATOM     21  C   UNL     1       2.787  13.961  21.099  0.00  0.00    +0.000 C 
ATOM     22  C   UNL     1       1.956  12.659  20.966  0.00  0.00    +0.000 C 
ENDROOT
BRANCH  20  23
ATOM     23  C   UNL     1       7.559  14.613  22.572  0.00  0.00    +0.000 A 
ATOM     24  C   UNL     1       6.913  13.444  22.744  0.00  0.00    +0.000 A 
ATOM     25  N   UNL     1       6.583  12.921  23.973  0.00  0.00    +0.000 N 
ATOM     26  C   UNL     1       5.898  11.643  24.051  0.00  0.00    +0.000 C 
ATOM     27  C   UNL     1       6.846  13.601  25.148  0.00  0.00    +0.000 A 
ATOM     28  O   UNL     1       6.554  13.190  26.268  0.00  0.00    +0.000 OA
ATOM     29  N   UNL     1       7.475  14.810  24.990  0.00  0.00    +0.000 N 
ATOM     30  C   UNL     1       7.850  15.403  23.807  0.00  0.00    +0.000 A 
ATOM     31  S   UNL     1       8.581  16.910  23.913  0.00  0.00    +0.000 S 
ATOM     32  H   UNL     1       7.653  15.317  25.846  0.00  0.00    +0.000 HD
ENDBRANCH  20  23
TORSDOF 1
ENDMDL
