MODEL 1
REMARK VINA RESULT:      -9.0      0.000      0.000
REMARK  Name = 
REMARK  5 active torsions:
REMARK  status: ('A' for Active; 'I' for Inactive)
REMARK    1  A    between atoms: C_1  and  C_2
REMARK    2  A    between atoms: C_2  and  C_4
REMARK    3  A    between atoms: C_8  and  N_9
REMARK    4  A    between atoms: C_10  and  C_12
REMARK    5  A    between atoms: C_14  and  C_15
REMARK                            x       y       z     vdW  Elec       q    Type
REMARK                         _______ _______ _______ _____ _____    ______ ____
ROOT
ATOM      1  C   UNL     1       3.549   7.485  18.007  0.00  0.00    +0.000 A 
ATOM      2  C   UNL     1       2.609   6.649  17.484  0.00  0.00    +0.000 A 
ATOM      3  C   UNL     1       2.685   5.352  17.872  0.00  0.00    +0.000 A 
ATOM      4  N   UNL     1       3.520   4.723  17.096  0.00  0.00    +0.000 NA
ATOM      5  C   UNL     1       4.707   5.272  17.190  0.00  0.00    +0.000 A 
ATOM      6  C   UNL     1       5.733   4.319  17.168  0.00  0.00    +0.000 A 
ATOM      7  C   UNL     1       7.060   4.661  17.217  0.00  0.00    +0.000 A 
ATOM      8  C   UNL     1       7.320   6.007  17.075  0.00  0.00    +0.000 A 
ATOM      9  C   UNL     1       6.250   6.990  17.206  0.00  0.00    +0.000 A 
ATOM     10  C   UNL     1       4.818   6.688  17.468  0.00  0.00    +0.000 A 
ENDROOT
BRANCH   3  11
ATOM     11  C   UNL     1       2.948   4.827  19.251  0.00  0.00    +0.000 A 
ATOM     12  C   UNL     1       2.629   5.575  20.374  0.00  0.00    +0.000 A 
ATOM     13  C   UNL     1       2.100   4.759  21.412  0.00  0.00    +0.000 A 
ATOM     14  C   UNL     1       2.192   3.429  21.098  0.00  0.00    +0.000 A 
ATOM     15 CL   UNL     1       1.489   2.125  21.966  0.00  0.00    +0.000 Cl
ATOM     16  S   UNL     1       3.077   3.153  19.681  0.00  0.00    +0.000 S 
ENDBRANCH   3  11
BRANCH   1  18
ATOM     17  N   UNL     1       1.179   9.220  17.767  0.00  0.00    +0.000 N 
ATOM     18  C   UNL     1       2.126   8.306  18.594  0.00  0.00    +0.000 C 
ATOM     19  O   UNL     1       1.865   8.129  19.781  0.00  0.00    +0.000 OA
ATOM     20  H   UNL     1       1.354   9.331  16.774  0.00  0.00    +0.000 HD
BRANCH  17  25
ATOM     21  C   UNL     1      -2.454  10.808  17.903  0.00  0.00    +0.000 A 
ATOM     22  C   UNL     1      -2.380  11.625  19.025  0.00  0.00    +0.000 A 
ATOM     23  C   UNL     1      -1.189  11.643  19.739  0.00  0.00    +0.000 A 
ATOM     24  C   UNL     1      -0.048  10.874  19.339  0.00  0.00    +0.000 A 
ATOM     25  C   UNL     1      -0.034  10.042  18.212  0.00  0.00    +0.000 A 
ATOM     26  C   UNL     1      -1.294  10.027  17.500  0.00  0.00    +0.000 A 
BRANCH  21  28
ATOM     27  C   UNL     1      -3.847  10.769  15.722  0.00  0.00    +0.000 C 
ATOM     28  C   UNL     1      -3.803  10.808  17.217  0.00  0.00    +0.000 C 
ATOM     29  O   UNL     1      -4.851  10.809  17.872  0.00  0.00    +0.000 OA
ENDBRANCH  21  28
ENDBRANCH  17  25
ENDBRANCH   1  18
TORSDOF 4
ENDMDL
MODEL 2
REMARK VINA RESULT:      -8.9      3.755      8.643
REMARK  Name = 
REMARK  5 active torsions:
REMARK  status: ('A' for Active; 'I' for Inactive)
REMARK    1  A    between atoms: C_1  and  C_2
REMARK    2  A    between atoms: C_2  and  C_4
REMARK    3  A    between atoms: C_8  and  N_9
REMARK    4  A    between atoms: C_10  and  C_12
REMARK    5  A    between atoms: C_14  and  C_15
REMARK                            x       y       z     vdW  Elec       q    Type
REMARK                         _______ _______ _______ _____ _____    ______ ____
ROOT
ATOM      1  C   UNL     1       1.579  10.579  19.347  0.00  0.00    +0.000 A 
ATOM      2  C   UNL     1       0.696   9.714  19.923  0.00  0.00    +0.000 A 
ATOM      3  C   UNL     1      -0.613  10.053  19.834  0.00  0.00    +0.000 A 
ATOM      4  N   UNL     1      -0.916  10.848  20.818  0.00  0.00    +0.000 NA
ATOM      5  C   UNL     1      -0.184  11.934  20.749  0.00  0.00    +0.000 A 
ATOM      6  C   UNL     1      -0.907  13.083  21.094  0.00  0.00    +0.000 A 
ATOM      7  C   UNL     1      -0.339  14.331  21.128  0.00  0.00    +0.000 A 
ATOM      8  C   UNL     1       1.034  14.349  21.009  0.00  0.00    +0.000 A 
ATOM      9  C   UNL     1       1.757  13.169  20.546  0.00  0.00    +0.000 A 
ATOM     10  C   UNL     1       1.150  11.861  20.189  0.00  0.00    +0.000 A 
ENDROOT
BRANCH   3  11
ATOM     11  C   UNL     1      -1.332  10.603  18.640  0.00  0.00    +0.000 A 
ATOM     12  C   UNL     1      -1.396   9.891  17.452  0.00  0.00    +0.000 A 
ATOM     13  C   UNL     1      -2.672  10.014  16.837  0.00  0.00    +0.000 A 
ATOM     14  C   UNL     1      -3.455  10.930  17.488  0.00  0.00    +0.000 A 
ATOM     15 CL   UNL     1      -5.122  11.228  17.210  0.00  0.00    +0.000 Cl
ATOM     16  S   UNL     1      -2.610  11.774  18.688  0.00  0.00    +0.000 S 
ENDBRANCH   3  11
BRANCH   1  18
ATOM     17  N   UNL     1       2.475   7.791  19.017  0.00  0.00    +0.000 N 
ATOM     18  C   UNL     1       1.993   9.149  18.436  0.00  0.00    +0.000 C 
ATOM     19  O   UNL     1       1.883   9.250  17.217  0.00  0.00    +0.000 OA
ATOM     20  H   UNL     1       2.519   7.680  20.024  0.00  0.00    +0.000 HD
BRANCH  17  25
ATOM     21  C   UNL     1       4.588   5.277  16.789  0.00  0.00    +0.000 A 
ATOM     22  C   UNL     1       3.850   4.104  16.885  0.00  0.00    +0.000 A 
ATOM     23  C   UNL     1       2.707   4.115  17.673  0.00  0.00    +0.000 A 
ATOM     24  C   UNL     1       2.264   5.293  18.357  0.00  0.00    +0.000 A 
ATOM     25  C   UNL     1       2.938   6.521  18.298  0.00  0.00    +0.000 A 
ATOM     26  C   UNL     1       4.136   6.473  17.487  0.00  0.00    +0.000 A 
BRANCH  21  28
ATOM     27  C   UNL     1       5.978   4.002  15.017  0.00  0.00    +0.000 C 
ATOM     28  C   UNL     1       5.845   5.161  15.955  0.00  0.00    +0.000 C 
ATOM     29  O   UNL     1       6.734   6.017  16.018  0.00  0.00    +0.000 OA
ENDBRANCH  21  28
ENDBRANCH  17  25
ENDBRANCH   1  18
TORSDOF 4
ENDMDL
MODEL 3
REMARK VINA RESULT:      -8.9      2.883      4.179
REMARK  Name = 
REMARK  5 active torsions:
REMARK  status: ('A' for Active; 'I' for Inactive)
REMARK    1  A    between atoms: C_1  and  C_2
REMARK    2  A    between atoms: C_2  and  C_4
REMARK    3  A    between atoms: C_8  and  N_9
REMARK    4  A    between atoms: C_10  and  C_12
REMARK    5  A    between atoms: C_14  and  C_15
REMARK                            x       y       z     vdW  Elec       q    Type
REMARK                         _______ _______ _______ _____ _____    ______ ____
ROOT
ATOM      1  C   UNL     1       2.339   6.196  18.161  0.00  0.00    +0.000 A 
ATOM      2  C   UNL     1       3.083   6.517  19.257  0.00  0.00    +0.000 A 
ATOM      3  C   UNL     1       4.346   6.026  19.283  0.00  0.00    +0.000 A 
ATOM      4  N   UNL     1       4.326   4.824  19.782  0.00  0.00    +0.000 NA
ATOM      5  C   UNL     1       3.578   4.049  19.035  0.00  0.00    +0.000 A 
ATOM      6  C   UNL     1       4.113   2.762  18.905  0.00  0.00    +0.000 A 
ATOM      7  C   UNL     1       3.486   1.768  18.198  0.00  0.00    +0.000 A 
ATOM      8  C   UNL     1       2.197   2.058  17.806  0.00  0.00    +0.000 A 
ATOM      9  C   UNL     1       1.695   3.427  17.852  0.00  0.00    +0.000 A 
ATOM     10  C   UNL     1       2.451   4.616  18.324  0.00  0.00    +0.000 A 
ENDROOT
BRANCH   3  11
ATOM     11  C   UNL     1       5.326   5.973  18.151  0.00  0.00    +0.000 A 
ATOM     12  C   UNL     1       6.630   5.548  18.353  0.00  0.00    +0.000 A 
ATOM     13  C   UNL     1       7.094   4.748  17.272  0.00  0.00    +0.000 A 
ATOM     14  C   UNL     1       6.194   4.736  16.239  0.00  0.00    +0.000 A 
ATOM     15 CL   UNL     1       6.258   3.737  14.844  0.00  0.00    +0.000 Cl
ATOM     16  S   UNL     1       4.917   5.821  16.473  0.00  0.00    +0.000 S 
ENDBRANCH   3  11
BRANCH   1  18
ATOM     17  N   UNL     1       1.490   8.908  18.942  0.00  0.00    +0.000 N 
ATOM     18  C   UNL     1       2.269   7.934  18.015  0.00  0.00    +0.000 C 
ATOM     19  O   UNL     1       2.908   8.412  17.081  0.00  0.00    +0.000 OA
ATOM     20  H   UNL     1       1.002   8.530  19.746  0.00  0.00    +0.000 HD
BRANCH  17  25
ATOM     21  C   UNL     1      -0.082  12.540  19.233  0.00  0.00    +0.000 A 
ATOM     22  C   UNL     1       0.898  13.335  18.651  0.00  0.00    +0.000 A 
ATOM     23  C   UNL     1       2.054  12.716  18.196  0.00  0.00    +0.000 A 
ATOM     24  C   UNL     1       2.247  11.299  18.287  0.00  0.00    +0.000 A 
ATOM     25  C   UNL     1       1.302  10.425  18.842  0.00  0.00    +0.000 A 
ATOM     26  C   UNL     1       0.118  11.101  19.327  0.00  0.00    +0.000 A 
BRANCH  21  28
ATOM     27  C   UNL     1      -2.558  12.556  19.985  0.00  0.00    +0.000 C 
ATOM     28  C   UNL     1      -1.283  13.303  19.749  0.00  0.00    +0.000 C 
ATOM     29  O   UNL     1      -1.210  14.510  20.002  0.00  0.00    +0.000 OA
ENDBRANCH  21  28
ENDBRANCH  17  25
ENDBRANCH   1  18
TORSDOF 4
ENDMDL
MODEL 4
REMARK VINA RESULT:      -8.8      3.105      4.728
REMARK  Name = 
REMARK  5 active torsions:
REMARK  status: ('A' for Active; 'I' for Inactive)
REMARK    1  A    between atoms: C_1  and  C_2
REMARK    2  A    between atoms: C_2  and  C_4
REMARK    3  A    between atoms: C_8  and  N_9
REMARK    4  A    between atoms: C_10  and  C_12
REMARK    5  A    between atoms: C_14  and  C_15
REMARK                            x       y       z     vdW  Elec       q    Type
REMARK                         _______ _______ _______ _____ _____    ______ ____
ROOT
ATOM      1  C   UNL     1       2.282   6.308  18.091  0.00  0.00    +0.000 A 
ATOM      2  C   UNL     1       3.025   6.667  19.176  0.00  0.00    +0.000 A 
ATOM      3  C   UNL     1       4.308   6.231  19.188  0.00  0.00    +0.000 A 
ATOM      4  N   UNL     1       4.347   5.032  19.693  0.00  0.00    +0.000 NA
ATOM      5  C   UNL     1       3.623   4.221  18.960  0.00  0.00    +0.000 A 
ATOM      6  C   UNL     1       4.212   2.958  18.830  0.00  0.00    +0.000 A 
ATOM      7  C   UNL     1       3.620   1.934  18.137  0.00  0.00    +0.000 A 
ATOM      8  C   UNL     1       2.315   2.166  17.759  0.00  0.00    +0.000 A 
ATOM      9  C   UNL     1       1.755   3.512  17.804  0.00  0.00    +0.000 A 
ATOM     10  C   UNL     1       2.464   4.735  18.261  0.00  0.00    +0.000 A 
ENDROOT
BRANCH   3  11
ATOM     11  C   UNL     1       5.276   6.214  18.044  0.00  0.00    +0.000 A 
ATOM     12  C   UNL     1       6.611   5.896  18.241  0.00  0.00    +0.000 A 
ATOM     13  C   UNL     1       7.120   5.097  17.180  0.00  0.00    +0.000 A 
ATOM     14  C   UNL     1       6.212   4.982  16.161  0.00  0.00    +0.000 A 
ATOM     15 CL   UNL     1       6.335   3.945  14.799  0.00  0.00    +0.000 Cl
ATOM     16  S   UNL     1       4.859   5.975  16.378  0.00  0.00    +0.000 S 
ENDBRANCH   3  11
BRANCH   1  18
ATOM     17  N   UNL     1       1.249   8.973  18.809  0.00  0.00    +0.000 N 
ATOM     18  C   UNL     1       2.135   8.040  17.937  0.00  0.00    +0.000 C 
ATOM     19  O   UNL     1       2.809   8.550  17.046  0.00  0.00    +0.000 OA
ATOM     20  H   UNL     1       0.729   8.570  19.580  0.00  0.00    +0.000 HD
BRANCH  17  25
ATOM     21  C   UNL     1       1.838  12.881  18.458  0.00  0.00    +0.000 A 
ATOM     22  C   UNL     1       0.542  13.381  18.491  0.00  0.00    +0.000 A 
ATOM     23  C   UNL     1      -0.504  12.474  18.598  0.00  0.00    +0.000 A 
ATOM     24  C   UNL     1      -0.281  11.062  18.700  0.00  0.00    +0.000 A 
ATOM     25  C   UNL     1       0.993  10.479  18.694  0.00  0.00    +0.000 A 
ATOM     26  C   UNL     1       2.061  11.446  18.560  0.00  0.00    +0.000 A 
BRANCH  21  28
ATOM     27  C   UNL     1       2.507  15.375  18.278  0.00  0.00    +0.000 C 
ATOM     28  C   UNL     1       2.911  13.934  18.285  0.00  0.00    +0.000 C 
ATOM     29  O   UNL     1       4.102  13.620  18.182  0.00  0.00    +0.000 OA
ENDBRANCH  21  28
ENDBRANCH  17  25
ENDBRANCH   1  18
TORSDOF 4
ENDMDL
MODEL 5
REMARK VINA RESULT:      -8.8      3.821      8.465
REMARK  Name = 
REMARK  5 active torsions:
REMARK  status: ('A' for Active; 'I' for Inactive)
REMARK    1  A    between atoms: C_1  and  C_2
REMARK    2  A    between atoms: C_2  and  C_4
REMARK    3  A    between atoms: C_8  and  N_9
REMARK    4  A    between atoms: C_10  and  C_12
REMARK    5  A    between atoms: C_14  and  C_15
REMARK                            x       y       z     vdW  Elec       q    Type
REMARK                         _______ _______ _______ _____ _____    ______ ____
ROOT
ATOM      1  C   UNL     1       1.519  10.698  19.400  0.00  0.00    +0.000 A 
ATOM      2  C   UNL     1       0.646   9.830  19.985  0.00  0.00    +0.000 A 
ATOM      3  C   UNL     1      -0.668  10.148  19.883  0.00  0.00    +0.000 A 
ATOM      4  N   UNL     1      -0.987  10.954  20.853  0.00  0.00    +0.000 NA
ATOM      5  C   UNL     1      -0.271  12.049  20.771  0.00  0.00    +0.000 A 
ATOM      6  C   UNL     1      -1.013  13.192  21.094  0.00  0.00    +0.000 A 
ATOM      7  C   UNL     1      -0.464  14.449  21.112  0.00  0.00    +0.000 A 
ATOM      8  C   UNL     1       0.909  14.485  21.000  0.00  0.00    +0.000 A 
ATOM      9  C   UNL     1       1.652  13.309  20.559  0.00  0.00    +0.000 A 
ATOM     10  C   UNL     1       1.066  11.987  20.220  0.00  0.00    +0.000 A 
ENDROOT
BRANCH   3  11
ATOM     11  C   UNL     1      -1.388  10.669  18.677  0.00  0.00    +0.000 A 
ATOM     12  C   UNL     1      -1.410   9.951  17.491  0.00  0.00    +0.000 A 
ATOM     13  C   UNL     1      -2.681  10.027  16.857  0.00  0.00    +0.000 A 
ATOM     14  C   UNL     1      -3.504  10.918  17.494  0.00  0.00    +0.000 A 
ATOM     15 CL   UNL     1      -5.177  11.157  17.190  0.00  0.00    +0.000 Cl
ATOM     16  S   UNL     1      -2.706  11.795  18.702  0.00  0.00    +0.000 S 
ENDBRANCH   3  11
BRANCH   1  18
ATOM     17  N   UNL     1       2.392   7.898  19.119  0.00  0.00    +0.000 N 
ATOM     18  C   UNL     1       1.959   9.262  18.513  0.00  0.00    +0.000 C 
ATOM     19  O   UNL     1       1.913   9.361  17.290  0.00  0.00    +0.000 OA
ATOM     20  H   UNL     1       2.383   7.788  20.127  0.00  0.00    +0.000 HD
BRANCH  17  25
ATOM     21  C   UNL     1       2.685   4.109  17.980  0.00  0.00    +0.000 A 
ATOM     22  C   UNL     1       3.783   4.139  17.129  0.00  0.00    +0.000 A 
ATOM     23  C   UNL     1       4.402   5.361  16.906  0.00  0.00    +0.000 A 
ATOM     24  C   UNL     1       3.959   6.566  17.542  0.00  0.00    +0.000 A 
ATOM     25  C   UNL     1       2.874   6.620  18.427  0.00  0.00    +0.000 A 
ATOM     26  C   UNL     1       2.236   5.335  18.622  0.00  0.00    +0.000 A 
BRANCH  21  28
ATOM     27  C   UNL     1       0.761   2.637  18.893  0.00  0.00    +0.000 C 
ATOM     28  C   UNL     1       2.040   2.747  18.122  0.00  0.00    +0.000 C 
ATOM     29  O   UNL     1       2.536   1.748  17.591  0.00  0.00    +0.000 OA
ENDBRANCH  21  28
ENDBRANCH  17  25
ENDBRANCH   1  18
TORSDOF 4
ENDMDL
MODEL 6
REMARK VINA RESULT:      -8.8      3.812      8.248
REMARK  Name = 
REMARK  5 active torsions:
REMARK  status: ('A' for Active; 'I' for Inactive)
REMARK    1  A    between atoms: C_1  and  C_2
REMARK    2  A    between atoms: C_2  and  C_4
REMARK    3  A    between atoms: C_8  and  N_9
REMARK    4  A    between atoms: C_10  and  C_12
REMARK    5  A    between atoms: C_14  and  C_15
REMARK                            x       y       z     vdW  Elec       q    Type
REMARK                         _______ _______ _______ _____ _____    ______ ____
ROOT
ATOM      1  C   UNL     1       1.745  10.712  18.434  0.00  0.00    +0.000 A 
ATOM      2  C   UNL     1       1.052  10.243  19.510  0.00  0.00    +0.000 A 
ATOM      3  C   UNL     1      -0.202  10.734  19.669  0.00  0.00    +0.000 A 
ATOM      4  N   UNL     1      -0.141  11.852  20.332  0.00  0.00    +0.000 NA
ATOM      5  C   UNL     1       0.580  12.721  19.666  0.00  0.00    +0.000 A 
ATOM      6  C   UNL     1       0.057  14.017  19.747  0.00  0.00    +0.000 A 
ATOM      7  C   UNL     1       0.663  15.097  19.158  0.00  0.00    +0.000 A 
ATOM      8  C   UNL     1       1.927  14.857  18.664  0.00  0.00    +0.000 A 
ATOM      9  C   UNL     1       2.411  13.492  18.489  0.00  0.00    +0.000 A 
ATOM     10  C   UNL     1       1.663  12.253  18.826  0.00  0.00    +0.000 A 
ENDROOT
BRANCH   3  11
ATOM     11  C   UNL     1      -1.236  10.955  18.607  0.00  0.00    +0.000 A 
ATOM     12  C   UNL     1      -1.428  10.030  17.592  0.00  0.00    +0.000 A 
ATOM     13  C   UNL     1      -2.807   9.872  17.282  0.00  0.00    +0.000 A 
ATOM     14  C   UNL     1      -3.577  10.788  17.949  0.00  0.00    +0.000 A 
ATOM     15 CL   UNL     1      -5.291  10.814  18.027  0.00  0.00    +0.000 Cl
ATOM     16  S   UNL     1      -2.651  11.942  18.772  0.00  0.00    +0.000 S 
ENDBRANCH   3  11
BRANCH   1  18
ATOM     17  N   UNL     1       2.606   7.913  18.768  0.00  0.00    +0.000 N 
ATOM     18  C   UNL     1       1.784   9.012  18.040  0.00  0.00    +0.000 C 
ATOM     19  O   UNL     1       1.083   8.674  17.090  0.00  0.00    +0.000 OA
ATOM     20  H   UNL     1       3.147   8.171  19.586  0.00  0.00    +0.000 HD
BRANCH  17  25
ATOM     21  C   UNL     1       2.054   3.984  18.716  0.00  0.00    +0.000 A 
ATOM     22  C   UNL     1       3.059   3.555  17.859  0.00  0.00    +0.000 A 
ATOM     23  C   UNL     1       3.883   4.515  17.288  0.00  0.00    +0.000 A 
ATOM     24  C   UNL     1       3.741   5.911  17.577  0.00  0.00    +0.000 A 
ATOM     25  C   UNL     1       2.767   6.425  18.444  0.00  0.00    +0.000 A 
ATOM     26  C   UNL     1       1.911   5.404  19.006  0.00  0.00    +0.000 A 
BRANCH  21  28
ATOM     27  C   UNL     1       1.245   2.540  20.706  0.00  0.00    +0.000 C 
ATOM     28  C   UNL     1       1.170   2.878  19.250  0.00  0.00    +0.000 C 
ATOM     29  O   UNL     1       0.378   2.282  18.511  0.00  0.00    +0.000 OA
ENDBRANCH  21  28
ENDBRANCH  17  25
ENDBRANCH   1  18
TORSDOF 4
ENDMDL
MODEL 7
REMARK VINA RESULT:      -8.8      3.845      8.331
REMARK  Name = 
REMARK  5 active torsions:
REMARK  status: ('A' for Active; 'I' for Inactive)
REMARK    1  A    between atoms: C_1  and  C_2
REMARK    2  A    between atoms: C_2  and  C_4
REMARK    3  A    between atoms: C_8  and  N_9
REMARK    4  A    between atoms: C_10  and  C_12
REMARK    5  A    between atoms: C_14  and  C_15
REMARK                            x       y       z     vdW  Elec       q    Type
REMARK                         _______ _______ _______ _____ _____    ______ ____
ROOT
ATOM      1  C   UNL     1       1.748  10.639  18.800  0.00  0.00    +0.000 A 
ATOM      2  C   UNL     1       0.958  10.360  19.875  0.00  0.00    +0.000 A 
ATOM      3  C   UNL     1      -0.277  10.919  19.867  0.00  0.00    +0.000 A 
ATOM      4  N   UNL     1      -0.205  12.118  20.368  0.00  0.00    +0.000 NA
ATOM      5  C   UNL     1       0.605  12.851  19.643  0.00  0.00    +0.000 A 
ATOM      6  C   UNL     1       0.144  14.165  19.500  0.00  0.00    +0.000 A 
ATOM      7  C   UNL     1       0.844  15.123  18.812  0.00  0.00    +0.000 A 
ATOM      8  C   UNL     1       2.125  14.763  18.455  0.00  0.00    +0.000 A 
ATOM      9  C   UNL     1       2.550  13.369  18.513  0.00  0.00    +0.000 A 
ATOM     10  C   UNL     1       1.718  12.223  18.963  0.00  0.00    +0.000 A 
ENDROOT
BRANCH   3  11
ATOM     11  C   UNL     1      -1.222  11.025  18.709  0.00  0.00    +0.000 A 
ATOM     12  C   UNL     1      -1.320  10.010  17.771  0.00  0.00    +0.000 A 
ATOM     13  C   UNL     1      -2.667   9.801  17.365  0.00  0.00    +0.000 A 
ATOM     14  C   UNL     1      -3.498  10.760  17.881  0.00  0.00    +0.000 A 
ATOM     15 CL   UNL     1      -5.214  10.764  17.817  0.00  0.00    +0.000 Cl
ATOM     16  S   UNL     1      -2.655  12.000  18.667  0.00  0.00    +0.000 S 
ENDBRANCH   3  11
BRANCH   1  18
ATOM     17  N   UNL     1       2.009   7.874  19.787  0.00  0.00    +0.000 N 
ATOM     18  C   UNL     1       1.727   8.901  18.654  0.00  0.00    +0.000 C 
ATOM     19  O   UNL     1       1.459   8.467  17.537  0.00  0.00    +0.000 OA
ATOM     20  H   UNL     1       2.179   8.220  20.725  0.00  0.00    +0.000 HD
BRANCH  17  25
ATOM     21  C   UNL     1       2.934   4.189  18.645  0.00  0.00    +0.000 A 
ATOM     22  C   UNL     1       2.271   3.411  19.587  0.00  0.00    +0.000 A 
ATOM     23  C   UNL     1       1.561   4.063  20.586  0.00  0.00    +0.000 A 
ATOM     24  C   UNL     1       1.475   5.491  20.653  0.00  0.00    +0.000 A 
ATOM     25  C   UNL     1       2.096   6.347  19.734  0.00  0.00    +0.000 A 
ATOM     26  C   UNL     1       2.846   5.641  18.717  0.00  0.00    +0.000 A 
BRANCH  21  28
ATOM     27  C   UNL     1       4.562   4.145  16.634  0.00  0.00    +0.000 C 
ATOM     28  C   UNL     1       3.726   3.399  17.626  0.00  0.00    +0.000 C 
ATOM     29  O   UNL     1       3.712   2.163  17.626  0.00  0.00    +0.000 OA
ENDBRANCH  21  28
ENDBRANCH  17  25
ENDBRANCH   1  18
TORSDOF 4
ENDMDL
MODEL 8
REMARK VINA RESULT:      -8.6      1.205      2.173
REMARK  Name = 
REMARK  5 active torsions:
REMARK  status: ('A' for Active; 'I' for Inactive)
REMARK    1  A    between atoms: C_1  and  C_2
REMARK    2  A    between atoms: C_2  and  C_4
REMARK    3  A    between atoms: C_8  and  N_9
REMARK    4  A    between atoms: C_10  and  C_12
REMARK    5  A    between atoms: C_14  and  C_15
REMARK                            x       y       z     vdW  Elec       q    Type
REMARK                         _______ _______ _______ _____ _____    ______ ____
ROOT
ATOM      1  C   UNL     1       3.572   7.475  17.996  0.00  0.00    +0.000 A 
ATOM      2  C   UNL     1       2.631   6.641  17.469  0.00  0.00    +0.000 A 
ATOM      3  C   UNL     1       2.708   5.342  17.850  0.00  0.00    +0.000 A 
ATOM      4  N   UNL     1       3.543   4.718  17.071  0.00  0.00    +0.000 NA
ATOM      5  C   UNL     1       4.730   5.266  17.166  0.00  0.00    +0.000 A 
ATOM      6  C   UNL     1       5.756   4.314  17.139  0.00  0.00    +0.000 A 
ATOM      7  C   UNL     1       7.083   4.656  17.190  0.00  0.00    +0.000 A 
ATOM      8  C   UNL     1       7.342   6.003  17.054  0.00  0.00    +0.000 A 
ATOM      9  C   UNL     1       6.272   6.985  17.191  0.00  0.00    +0.000 A 
ATOM     10  C   UNL     1       4.841   6.681  17.452  0.00  0.00    +0.000 A 
ENDROOT
BRANCH   3  11
ATOM     11  C   UNL     1       2.972   4.810  19.226  0.00  0.00    +0.000 A 
ATOM     12  C   UNL     1       2.672   5.560  20.353  0.00  0.00    +0.000 A 
ATOM     13  C   UNL     1       2.138   4.750  21.393  0.00  0.00    +0.000 A 
ATOM     14  C   UNL     1       2.207   3.419  21.075  0.00  0.00    +0.000 A 
ATOM     15 CL   UNL     1       1.489   2.125  21.945  0.00  0.00    +0.000 Cl
ATOM     16  S   UNL     1       3.078   3.133  19.652  0.00  0.00    +0.000 S 
ENDBRANCH   3  11
BRANCH   1  18
ATOM     17  N   UNL     1       1.198   9.206  17.765  0.00  0.00    +0.000 N 
ATOM     18  C   UNL     1       2.148   8.292  18.588  0.00  0.00    +0.000 C 
ATOM     19  O   UNL     1       1.890   8.111  19.775  0.00  0.00    +0.000 OA
ATOM     20  H   UNL     1       1.371   9.320  16.773  0.00  0.00    +0.000 HD
BRANCH  17  25
ATOM     21  C   UNL     1      -1.131  11.676  19.818  0.00  0.00    +0.000 A 
ATOM     22  C   UNL     1      -2.331  11.601  19.121  0.00  0.00    +0.000 A 
ATOM     23  C   UNL     1      -2.382  10.789  17.996  0.00  0.00    +0.000 A 
ATOM     24  C   UNL     1      -1.254  10.021  17.559  0.00  0.00    +0.000 A 
ATOM     25  C   UNL     1      -0.015  10.026  18.215  0.00  0.00    +0.000 A 
ATOM     26  C   UNL     1       0.013  10.896  19.370  0.00  0.00    +0.000 A 
BRANCH  21  28
ATOM     27  C   UNL     1      -0.953  12.064  22.371  0.00  0.00    +0.000 C 
ATOM     28  C   UNL     1      -1.150  12.625  20.997  0.00  0.00    +0.000 C 
ATOM     29  O   UNL     1      -1.295  13.841  20.834  0.00  0.00    +0.000 OA
ENDBRANCH  21  28
ENDBRANCH  17  25
ENDBRANCH   1  18
TORSDOF 4
ENDMDL
MODEL 9
REMARK VINA RESULT:      -8.6      3.382      4.575
REMARK  Name = 
REMARK  5 active torsions:
REMARK  status: ('A' for Active; 'I' for Inactive)
REMARK    1  A    between atoms: C_1  and  C_2
REMARK    2  A    between atoms: C_2  and  C_4
REMARK    3  A    between atoms: C_8  and  N_9
REMARK    4  A    between atoms: C_10  and  C_12
REMARK    5  A    between atoms: C_14  and  C_15
REMARK                            x       y       z     vdW  Elec       q    Type
REMARK                         _______ _______ _______ _____ _____    ______ ____
ROOT
ATOM      1  C   UNL     1       2.280   6.035  18.441  0.00  0.00    +0.000 A 
ATOM      2  C   UNL     1       3.057   6.268  19.536  0.00  0.00    +0.000 A 
ATOM      3  C   UNL     1       4.325   5.791  19.477  0.00  0.00    +0.000 A 
ATOM      4  N   UNL     1       4.332   4.551  19.869  0.00  0.00    +0.000 NA
ATOM      5  C   UNL     1       3.566   3.835  19.082  0.00  0.00    +0.000 A 
ATOM      6  C   UNL     1       4.108   2.570  18.823  0.00  0.00    +0.000 A 
ATOM      7  C   UNL     1       3.465   1.634  18.053  0.00  0.00    +0.000 A 
ATOM      8  C   UNL     1       2.162   1.943  17.731  0.00  0.00    +0.000 A 
ATOM      9  C   UNL     1       1.650   3.296  17.912  0.00  0.00    +0.000 A 
ATOM     10  C   UNL     1       2.410   4.448  18.462  0.00  0.00    +0.000 A 
ENDROOT
BRANCH   3  11
ATOM     11  C   UNL     1       5.267   5.848  18.313  0.00  0.00    +0.000 A 
ATOM     12  C   UNL     1       6.600   5.494  18.454  0.00  0.00    +0.000 A 
ATOM     13  C   UNL     1       7.071   4.773  17.322  0.00  0.00    +0.000 A 
ATOM     14  C   UNL     1       6.139   4.753  16.318  0.00  0.00    +0.000 A 
ATOM     15 CL   UNL     1       6.214   3.824  14.877  0.00  0.00    +0.000 Cl
ATOM     16  S   UNL     1       4.809   5.748  16.644  0.00  0.00    +0.000 S 
ENDBRANCH   3  11
BRANCH   1  18
ATOM     17  N   UNL     1       1.478   8.661  19.513  0.00  0.00    +0.000 N 
ATOM     18  C   UNL     1       2.190   7.778  18.450  0.00  0.00    +0.000 C 
ATOM     19  O   UNL     1       2.752   8.341  17.514  0.00  0.00    +0.000 OA
ATOM     20  H   UNL     1       1.056   8.210  20.316  0.00  0.00    +0.000 HD
BRANCH  17  25
ATOM     21  C   UNL     1       0.514  12.300  20.765  0.00  0.00    +0.000 A 
ATOM     22  C   UNL     1       0.854  13.090  19.673  0.00  0.00    +0.000 A 
ATOM     23  C   UNL     1       1.407  12.464  18.564  0.00  0.00    +0.000 A 
ATOM     24  C   UNL     1       1.608  11.047  18.509  0.00  0.00    +0.000 A 
ATOM     25  C   UNL     1       1.276  10.178  19.558  0.00  0.00    +0.000 A 
ATOM     26  C   UNL     1       0.722  10.860  20.707  0.00  0.00    +0.000 A 
BRANCH  21  28
ATOM     27  C   UNL     1      -1.270  12.567  22.621  0.00  0.00    +0.000 C 
ATOM     28  C   UNL     1      -0.031  13.069  21.949  0.00  0.00    +0.000 C 
ATOM     29  O   UNL     1       0.547  14.074  22.377  0.00  0.00    +0.000 OA
ENDBRANCH  21  28
ENDBRANCH  17  25
ENDBRANCH   1  18
TORSDOF 4
ENDMDL
