MODEL 1
REMARK VINA RESULT:      -6.5      0.000      0.000
REMARK  Name = 
REMARK  4 active torsions:
REMARK  status: ('A' for Active; 'I' for Inactive)
REMARK    1  A    between atoms: C_1  and  N_2
REMARK    2  A    between atoms: C_5  and  C_6
REMARK    3  A    between atoms: C_9  and  O_10
REMARK    4  A    between atoms: N_14  and  C_15
REMARK                            x       y       z     vdW  Elec       q    Type
REMARK                         _______ _______ _______ _____ _____    ______ ____
ROOT
ATOM      1  C   UNL     1       4.499   2.181  20.596  0.00  0.00    +0.000 C 
ATOM      2  N   UNL     1       3.271   2.238  19.807  0.00  0.00    +0.000 NA
ATOM      3  C   UNL     1       3.433   1.484  18.559  0.00  0.00    +0.000 C 
ATOM      4  C   UNL     1       2.492   2.161  17.585  0.00  0.00    +0.000 C 
ATOM      5  C   UNL     1       2.680   3.636  17.906  0.00  0.00    +0.000 C 
ATOM      6  C   UNL     1       1.536   4.489  17.357  0.00  0.00    +0.000 C 
ATOM      7  C   UNL     1       4.013   4.233  17.542  0.00  0.00    +0.000 A 
ATOM      8  C   UNL     1       4.734   4.164  16.358  0.00  0.00    +0.000 A 
ATOM      9  C   UNL     1       6.009   4.724  16.349  0.00  0.00    +0.000 A 
ATOM     10  C   UNL     1       6.546   5.351  17.481  0.00  0.00    +0.000 A 
ATOM     11  C   UNL     1       5.793   5.457  18.653  0.00  0.00    +0.000 A 
ATOM     12  C   UNL     1       4.533   4.888  18.668  0.00  0.00    +0.000 A 
ATOM     13  N   UNL     1       3.680   4.813  19.811  0.00  0.00    +0.000 N 
ATOM     14  C   UNL     1       2.947   6.078  19.976  0.00  0.00    +0.000 C 
ATOM     15  C   UNL     1       2.844   3.634  19.464  0.00  0.00    +0.000 C 
ENDROOT
BRANCH   9  16
ATOM     16  O   UNL     1       6.798   4.661  15.237  0.00  0.00    +0.000 OA
ATOM     17  H   UNL     1       6.442   5.276  14.574  0.00  0.00    +0.000 HD
ENDBRANCH   9  16
TORSDOF 1
ENDMDL
MODEL 2
REMARK VINA RESULT:      -6.4      2.509      3.902
REMARK  Name = 
REMARK  4 active torsions:
REMARK  status: ('A' for Active; 'I' for Inactive)
REMARK    1  A    between atoms: C_1  and  N_2
REMARK    2  A    between atoms: C_5  and  C_6
REMARK    3  A    between atoms: C_9  and  O_10
REMARK    4  A    between atoms: N_14  and  C_15
REMARK                            x       y       z     vdW  Elec       q    Type
REMARK                         _______ _______ _______ _____ _____    ______ ____
ROOT
ATOM      1  C   UNL     1       3.291   8.077  17.869  0.00  0.00    +0.000 C 
ATOM      2  N   UNL     1       2.856   6.682  17.868  0.00  0.00    +0.000 NA
ATOM      3  C   UNL     1       2.845   6.153  19.237  0.00  0.00    +0.000 C 
ATOM      4  C   UNL     1       3.091   4.668  19.067  0.00  0.00    +0.000 C 
ATOM      5  C   UNL     1       4.149   4.624  17.975  0.00  0.00    +0.000 C 
ATOM      6  C   UNL     1       4.251   3.240  17.335  0.00  0.00    +0.000 C 
ATOM      7  C   UNL     1       5.513   5.142  18.347  0.00  0.00    +0.000 A 
ATOM      8  C   UNL     1       6.310   4.860  19.448  0.00  0.00    +0.000 A 
ATOM      9  C   UNL     1       7.490   5.587  19.589  0.00  0.00    +0.000 A 
ATOM     10  C   UNL     1       7.875   6.555  18.652  0.00  0.00    +0.000 A 
ATOM     11  C   UNL     1       7.090   6.796  17.523  0.00  0.00    +0.000 A 
ATOM     12  C   UNL     1       5.910   6.087  17.389  0.00  0.00    +0.000 A 
ATOM     13  N   UNL     1       4.944   6.288  16.357  0.00  0.00    +0.000 N 
ATOM     14  C   UNL     1       5.344   5.559  15.143  0.00  0.00    +0.000 C 
ATOM     15  C   UNL     1       3.711   5.788  17.021  0.00  0.00    +0.000 C 
ENDROOT
BRANCH   9  16
ATOM     16  O   UNL     1       8.308   5.399  20.665  0.00  0.00    +0.000 OA
ATOM     17  H   UNL     1       8.910   6.159  20.727  0.00  0.00    +0.000 HD
ENDBRANCH   9  16
TORSDOF 1
ENDMDL
MODEL 3
REMARK VINA RESULT:      -6.2      2.407      4.174
REMARK  Name = 
REMARK  4 active torsions:
REMARK  status: ('A' for Active; 'I' for Inactive)
REMARK    1  A    between atoms: C_1  and  N_2
REMARK    2  A    between atoms: C_5  and  C_6
REMARK    3  A    between atoms: C_9  and  O_10
REMARK    4  A    between atoms: N_14  and  C_15
REMARK                            x       y       z     vdW  Elec       q    Type
REMARK                         _______ _______ _______ _____ _____    ______ ____
ROOT
ATOM      1  C   UNL     1       7.287   5.556  19.842  0.00  0.00    +0.000 C 
ATOM      2  N   UNL     1       7.338   5.112  18.451  0.00  0.00    +0.000 NA
ATOM      3  C   UNL     1       7.477   6.265  17.554  0.00  0.00    +0.000 C 
ATOM      4  C   UNL     1       6.828   5.817  16.262  0.00  0.00    +0.000 C 
ATOM      5  C   UNL     1       5.604   5.055  16.747  0.00  0.00    +0.000 C 
ATOM      6  C   UNL     1       5.026   4.152  15.657  0.00  0.00    +0.000 C 
ATOM      7  C   UNL     1       4.518   5.876  17.390  0.00  0.00    +0.000 A 
ATOM      8  C   UNL     1       3.905   7.044  16.962  0.00  0.00    +0.000 A 
ATOM      9  C   UNL     1       3.003   7.653  17.832  0.00  0.00    +0.000 A 
ATOM     10  C   UNL     1       2.707   7.104  19.087  0.00  0.00    +0.000 A 
ATOM     11  C   UNL     1       3.294   5.902  19.488  0.00  0.00    +0.000 A 
ATOM     12  C   UNL     1       4.201   5.306  18.632  0.00  0.00    +0.000 A 
ATOM     13  N   UNL     1       4.968   4.139  18.932  0.00  0.00    +0.000 N 
ATOM     14  C   UNL     1       4.166   2.931  18.681  0.00  0.00    +0.000 C 
ATOM     15  C   UNL     1       6.134   4.325  18.029  0.00  0.00    +0.000 C 
ENDROOT
BRANCH   9  16
ATOM     16  O   UNL     1       2.389   8.826  17.503  0.00  0.00    +0.000 OA
ATOM     17  H   UNL     1       2.238   9.332  18.319  0.00  0.00    +0.000 HD
ENDBRANCH   9  16
TORSDOF 1
ENDMDL
MODEL 4
REMARK VINA RESULT:      -5.8      2.436      4.464
REMARK  Name = 
REMARK  4 active torsions:
REMARK  status: ('A' for Active; 'I' for Inactive)
REMARK    1  A    between atoms: C_1  and  N_2
REMARK    2  A    between atoms: C_5  and  C_6
REMARK    3  A    between atoms: C_9  and  O_10
REMARK    4  A    between atoms: N_14  and  C_15
REMARK                            x       y       z     vdW  Elec       q    Type
REMARK                         _______ _______ _______ _____ _____    ______ ____
ROOT
ATOM      1  C   UNL     1       5.403   5.420  14.604  0.00  0.00    +0.000 C 
ATOM      2  N   UNL     1       6.337   5.622  15.709  0.00  0.00    +0.000 NA
ATOM      3  C   UNL     1       7.060   4.378  15.998  0.00  0.00    +0.000 C 
ATOM      4  C   UNL     1       7.398   4.473  17.470  0.00  0.00    +0.000 C 
ATOM      5  C   UNL     1       6.133   5.068  18.069  0.00  0.00    +0.000 C 
ATOM      6  C   UNL     1       6.379   5.651  19.461  0.00  0.00    +0.000 C 
ATOM      7  C   UNL     1       4.914   4.184  18.069  0.00  0.00    +0.000 A 
ATOM      8  C   UNL     1       4.763   2.867  18.479  0.00  0.00    +0.000 A 
ATOM      9  C   UNL     1       3.529   2.261  18.250  0.00  0.00    +0.000 A 
ATOM     10  C   UNL     1       2.471   2.952  17.646  0.00  0.00    +0.000 A 
ATOM     11  C   UNL     1       2.619   4.292  17.280  0.00  0.00    +0.000 A 
ATOM     12  C   UNL     1       3.848   4.890  17.493  0.00  0.00    +0.000 A 
ATOM     13  N   UNL     1       4.200   6.212  17.082  0.00  0.00    +0.000 N 
ATOM     14  C   UNL     1       3.721   7.191  18.070  0.00  0.00    +0.000 C 
ATOM     15  C   UNL     1       5.678   6.091  16.972  0.00  0.00    +0.000 C 
ENDROOT
BRANCH   9  16
ATOM     16  O   UNL     1       3.312   0.956  18.586  0.00  0.00    +0.000 OA
ATOM     17  H   UNL     1       2.681   0.932  19.325  0.00  0.00    +0.000 HD
ENDBRANCH   9  16
TORSDOF 1
ENDMDL
MODEL 5
REMARK VINA RESULT:      -5.6      9.771     11.384
REMARK  Name = 
REMARK  4 active torsions:
REMARK  status: ('A' for Active; 'I' for Inactive)
REMARK    1  A    between atoms: C_1  and  N_2
REMARK    2  A    between atoms: C_5  and  C_6
REMARK    3  A    between atoms: C_9  and  O_10
REMARK    4  A    between atoms: N_14  and  C_15
REMARK                            x       y       z     vdW  Elec       q    Type
REMARK                         _______ _______ _______ _____ _____    ______ ____
ROOT
ATOM      1  C   UNL     1       8.091  14.270  17.986  0.00  0.00    +0.000 C 
ATOM      2  N   UNL     1       9.151  13.317  17.667  0.00  0.00    +0.000 NA
ATOM      3  C   UNL     1       8.662  11.942  17.824  0.00  0.00    +0.000 C 
ATOM      4  C   UNL     1       9.899  11.141  18.172  0.00  0.00    +0.000 C 
ATOM      5  C   UNL     1      10.641  12.065  19.126  0.00  0.00    +0.000 C 
ATOM      6  C   UNL     1      12.109  11.666  19.280  0.00  0.00    +0.000 C 
ATOM      7  C   UNL     1      10.004  12.286  20.472  0.00  0.00    +0.000 A 
ATOM      8  C   UNL     1       9.501  11.372  21.387  0.00  0.00    +0.000 A 
ATOM      9  C   UNL     1       8.855  11.879  22.512  0.00  0.00    +0.000 A 
ATOM     10  C   UNL     1       8.730  13.257  22.731  0.00  0.00    +0.000 A 
ATOM     11  C   UNL     1       9.283  14.169  21.828  0.00  0.00    +0.000 A 
ATOM     12  C   UNL     1       9.910  13.666  20.702  0.00  0.00    +0.000 A 
ATOM     13  N   UNL     1      10.430  14.456  19.632  0.00  0.00    +0.000 N 
ATOM     14  C   UNL     1      11.773  14.949  19.976  0.00  0.00    +0.000 C 
ATOM     15  C   UNL     1      10.379  13.482  18.510  0.00  0.00    +0.000 C 
ENDROOT
BRANCH   9  16
ATOM     16  O   UNL     1       8.296  11.047  23.438  0.00  0.00    +0.000 OA
ATOM     17  H   UNL     1       8.951  10.884  24.138  0.00  0.00    +0.000 HD
ENDBRANCH   9  16
TORSDOF 1
ENDMDL
MODEL 6
REMARK VINA RESULT:      -5.6      2.796      4.818
REMARK  Name = 
REMARK  4 active torsions:
REMARK  status: ('A' for Active; 'I' for Inactive)
REMARK    1  A    between atoms: C_1  and  N_2
REMARK    2  A    between atoms: C_5  and  C_6
REMARK    3  A    between atoms: C_9  and  O_10
REMARK    4  A    between atoms: N_14  and  C_15
REMARK                            x       y       z     vdW  Elec       q    Type
REMARK                         _______ _______ _______ _____ _____    ______ ____
ROOT
ATOM      1  C   UNL     1       7.966   4.366  17.977  0.00  0.00    +0.000 C 
ATOM      2  N   UNL     1       7.645   5.588  17.242  0.00  0.00    +0.000 NA
ATOM      3  C   UNL     1       7.060   6.585  18.146  0.00  0.00    +0.000 C 
ATOM      4  C   UNL     1       6.167   7.421  17.254  0.00  0.00    +0.000 C 
ATOM      5  C   UNL     1       5.527   6.381  16.347  0.00  0.00    +0.000 C 
ATOM      6  C   UNL     1       4.918   7.013  15.095  0.00  0.00    +0.000 C 
ATOM      7  C   UNL     1       4.550   5.439  16.998  0.00  0.00    +0.000 A 
ATOM      8  C   UNL     1       3.477   5.699  17.838  0.00  0.00    +0.000 A 
ATOM      9  C   UNL     1       2.812   4.605  18.389  0.00  0.00    +0.000 A 
ATOM     10  C   UNL     1       3.194   3.289  18.098  0.00  0.00    +0.000 A 
ATOM     11  C   UNL     1       4.246   3.038  17.213  0.00  0.00    +0.000 A 
ATOM     12  C   UNL     1       4.916   4.123  16.678  0.00  0.00    +0.000 A 
ATOM     13  N   UNL     1       6.075   4.043  15.847  0.00  0.00    +0.000 N 
ATOM     14  C   UNL     1       5.679   3.791  14.453  0.00  0.00    +0.000 C 
ATOM     15  C   UNL     1       6.698   5.369  16.101  0.00  0.00    +0.000 C 
ENDROOT
BRANCH   9  16
ATOM     16  O   UNL     1       1.773   4.777  19.257  0.00  0.00    +0.000 OA
ATOM     17  H   UNL     1       0.967   4.940  18.740  0.00  0.00    +0.000 HD
ENDBRANCH   9  16
TORSDOF 1
ENDMDL
MODEL 7
REMARK VINA RESULT:      -5.5      2.251      3.672
REMARK  Name = 
REMARK  4 active torsions:
REMARK  status: ('A' for Active; 'I' for Inactive)
REMARK    1  A    between atoms: C_1  and  N_2
REMARK    2  A    between atoms: C_5  and  C_6
REMARK    3  A    between atoms: C_9  and  O_10
REMARK    4  A    between atoms: N_14  and  C_15
REMARK                            x       y       z     vdW  Elec       q    Type
REMARK                         _______ _______ _______ _____ _____    ______ ____
ROOT
ATOM      1  C   UNL     1       6.502   5.155  19.571  0.00  0.00    +0.000 C 
ATOM      2  N   UNL     1       5.991   4.345  18.467  0.00  0.00    +0.000 NA
ATOM      3  C   UNL     1       5.950   5.137  17.232  0.00  0.00    +0.000 C 
ATOM      4  C   UNL     1       4.827   4.519  16.427  0.00  0.00    +0.000 C 
ATOM      5  C   UNL     1       3.769   4.239  17.484  0.00  0.00    +0.000 C 
ATOM      6  C   UNL     1       2.723   3.237  16.994  0.00  0.00    +0.000 C 
ATOM      7  C   UNL     1       3.106   5.443  18.100  0.00  0.00    +0.000 A 
ATOM      8  C   UNL     1       2.540   6.559  17.501  0.00  0.00    +0.000 A 
ATOM      9  C   UNL     1       2.101   7.583  18.337  0.00  0.00    +0.000 A 
ATOM     10  C   UNL     1       2.205   7.491  19.731  0.00  0.00    +0.000 A 
ATOM     11  C   UNL     1       2.732   6.341  20.325  0.00  0.00    +0.000 A 
ATOM     12  C   UNL     1       3.184   5.331  19.496  0.00  0.00    +0.000 A 
ATOM     13  N   UNL     1       3.845   4.144  19.934  0.00  0.00    +0.000 N 
ATOM     14  C   UNL     1       2.854   3.144  20.362  0.00  0.00    +0.000 C 
ATOM     15  C   UNL     1       4.622   3.787  18.718  0.00  0.00    +0.000 C 
ENDROOT
BRANCH   9  16
ATOM     16  O   UNL     1       1.571   8.731  17.825  0.00  0.00    +0.000 OA
ATOM     17  H   UNL     1       1.880   8.829  16.909  0.00  0.00    +0.000 HD
ENDBRANCH   9  16
TORSDOF 1
ENDMDL
MODEL 8
REMARK VINA RESULT:      -5.5      1.854      2.923
REMARK  Name = 
REMARK  4 active torsions:
REMARK  status: ('A' for Active; 'I' for Inactive)
REMARK    1  A    between atoms: C_1  and  N_2
REMARK    2  A    between atoms: C_5  and  C_6
REMARK    3  A    between atoms: C_9  and  O_10
REMARK    4  A    between atoms: N_14  and  C_15
REMARK                            x       y       z     vdW  Elec       q    Type
REMARK                         _______ _______ _______ _____ _____    ______ ____
ROOT
ATOM      1  C   UNL     1       1.468   6.064  20.844  0.00  0.00    +0.000 C 
ATOM      2  N   UNL     1       1.404   4.605  20.842  0.00  0.00    +0.000 NA
ATOM      3  C   UNL     1       2.478   4.048  21.673  0.00  0.00    +0.000 C 
ATOM      4  C   UNL     1       2.760   2.691  21.063  0.00  0.00    +0.000 C 
ATOM      5  C   UNL     1       2.678   2.970  19.570  0.00  0.00    +0.000 C 
ATOM      6  C   UNL     1       2.505   1.686  18.759  0.00  0.00    +0.000 C 
ATOM      7  C   UNL     1       3.774   3.824  18.989  0.00  0.00    +0.000 A 
ATOM      8  C   UNL     1       5.151   3.732  19.128  0.00  0.00    +0.000 A 
ATOM      9  C   UNL     1       5.922   4.745  18.563  0.00  0.00    +0.000 A 
ATOM     10  C   UNL     1       5.340   5.810  17.863  0.00  0.00    +0.000 A 
ATOM     11  C   UNL     1       3.956   5.867  17.688  0.00  0.00    +0.000 A 
ATOM     12  C   UNL     1       3.188   4.871  18.263  0.00  0.00    +0.000 A 
ATOM     13  N   UNL     1       1.760   4.837  18.270  0.00  0.00    +0.000 N 
ATOM     14  C   UNL     1       1.262   4.282  17.002  0.00  0.00    +0.000 C 
ATOM     15  C   UNL     1       1.503   4.002  19.473  0.00  0.00    +0.000 C 
ENDROOT
BRANCH   9  16
ATOM     16  O   UNL     1       7.281   4.750  18.691  0.00  0.00    +0.000 OA
ATOM     17  H   UNL     1       7.661   5.177  17.904  0.00  0.00    +0.000 HD
ENDBRANCH   9  16
TORSDOF 1
ENDMDL
MODEL 9
REMARK VINA RESULT:      -5.5      1.649      2.416
REMARK  Name = 
REMARK  4 active torsions:
REMARK  status: ('A' for Active; 'I' for Inactive)
REMARK    1  A    between atoms: C_1  and  N_2
REMARK    2  A    between atoms: C_5  and  C_6
REMARK    3  A    between atoms: C_9  and  O_10
REMARK    4  A    between atoms: N_14  and  C_15
REMARK                            x       y       z     vdW  Elec       q    Type
REMARK                         _______ _______ _______ _____ _____    ______ ____
ROOT
ATOM      1  C   UNL     1       6.466   5.507  19.635  0.00  0.00    +0.000 C 
ATOM      2  N   UNL     1       5.157   4.861  19.681  0.00  0.00    +0.000 NA
ATOM      3  C   UNL     1       5.279   3.439  19.340  0.00  0.00    +0.000 C 
ATOM      4  C   UNL     1       3.936   3.080  18.741  0.00  0.00    +0.000 C 
ATOM      5  C   UNL     1       3.609   4.299  17.891  0.00  0.00    +0.000 C 
ATOM      6  C   UNL     1       2.125   4.360  17.528  0.00  0.00    +0.000 C 
ATOM      7  C   UNL     1       4.465   4.511  16.671  0.00  0.00    +0.000 A 
ATOM      8  C   UNL     1       4.832   3.626  15.668  0.00  0.00    +0.000 A 
ATOM      9  C   UNL     1       5.742   4.077  14.714  0.00  0.00    +0.000 A 
ATOM     10  C   UNL     1       6.259   5.379  14.748  0.00  0.00    +0.000 A 
ATOM     11  C   UNL     1       5.846   6.277  15.735  0.00  0.00    +0.000 A 
ATOM     12  C   UNL     1       4.956   5.825  16.692  0.00  0.00    +0.000 A 
ATOM     13  N   UNL     1       4.518   6.576  17.825  0.00  0.00    +0.000 N 
ATOM     14  C   UNL     1       3.417   7.474  17.440  0.00  0.00    +0.000 C 
ATOM     15  C   UNL     1       4.148   5.484  18.764  0.00  0.00    +0.000 C 
ENDROOT
BRANCH   9  16
ATOM     16  O   UNL     1       6.184   3.255  13.719  0.00  0.00    +0.000 OA
ATOM     17  H   UNL     1       5.908   2.347  13.927  0.00  0.00    +0.000 HD
ENDBRANCH   9  16
TORSDOF 1
ENDMDL
