MODEL 1
REMARK VINA RESULT:      -6.7      0.000      0.000
REMARK  Name = 
REMARK  8 active torsions:
REMARK  status: ('A' for Active; 'I' for Inactive)
REMARK    1  A    between atoms: C_1  and  O_2
REMARK    2  A    between atoms: O_2  and  C_3
REMARK    3  A    between atoms: C_6  and  C_7
REMARK    4  A    between atoms: C_7  and  C_8
REMARK    5  A    between atoms: C_8  and  N_9
REMARK    6  A    between atoms: C_10  and  C_12
REMARK    7  A    between atoms: C_17  and  S_18
REMARK    8  A    between atoms: S_18  and  C_19
REMARK                            x       y       z     vdW  Elec       q    Type
REMARK                         _______ _______ _______ _____ _____    ______ ____
ROOT
ATOM      1  N   UNL     1       1.689   8.866  19.014  0.00  0.00    +0.000 N 
ATOM      2  C   UNL     1       0.632   9.736  19.121  0.00  0.00    +0.000 C 
ATOM      3  O   UNL     1       0.083  10.197  18.119  0.00  0.00    +0.000 OA
ATOM      4  H   UNL     1       2.178   8.588  19.858  0.00  0.00    +0.000 HD
ENDROOT
BRANCH   2   5
ATOM      5  C   UNL     1       0.133  10.113  20.490  0.00  0.00    +0.000 A 
ATOM      6  C   UNL     1      -0.075   9.014  21.356  0.00  0.00    +0.000 A 
ATOM      7  C   UNL     1      -0.537   9.182  22.659  0.00  0.00    +0.000 A 
ATOM      8  C   UNL     1      -0.801  10.457  23.131  0.00  0.00    +0.000 A 
ATOM      9  C   UNL     1      -0.605  11.561  22.298  0.00  0.00    +0.000 A 
ATOM     10  C   UNL     1      -0.131  11.415  20.977  0.00  0.00    +0.000 A 
BRANCH  10  11
ATOM     11  S   UNL     1      -0.026  12.921  19.991  0.00  0.00    +0.000 S 
ATOM     12  C   UNL     1       1.765  13.222  19.976  0.00  0.00    +0.000 C 
ENDBRANCH  10  11
ENDBRANCH   2   5
BRANCH   1  13
ATOM     13  C   UNL     1       2.222   8.448  17.731  0.00  0.00    +0.000 C 
BRANCH  13  14
ATOM     14  C   UNL     1       3.264   7.338  17.873  0.00  0.00    +0.000 C 
BRANCH  14  18
ATOM     15  C   UNL     1       1.608   3.786  19.697  0.00  0.00    +0.000 A 
ATOM     16  C   UNL     1       2.299   4.720  20.469  0.00  0.00    +0.000 A 
ATOM     17  C   UNL     1       2.829   5.872  19.882  0.00  0.00    +0.000 A 
ATOM     18  C   UNL     1       2.682   6.099  18.508  0.00  0.00    +0.000 A 
ATOM     19  C   UNL     1       2.016   5.142  17.732  0.00  0.00    +0.000 A 
ATOM     20  C   UNL     1       1.481   3.993  18.323  0.00  0.00    +0.000 A 
BRANCH  15  22
ATOM     21  C   UNL     1       1.560   2.588  21.732  0.00  0.00    +0.000 C 
ATOM     22  O   UNL     1       1.139   2.695  20.377  0.00  0.00    +0.000 OA
ENDBRANCH  15  22
ENDBRANCH  14  18
ENDBRANCH  13  14
ENDBRANCH   1  13
TORSDOF 6
ENDMDL
MODEL 2
REMARK VINA RESULT:      -6.6      2.647      3.284
REMARK  Name = 
REMARK  8 active torsions:
REMARK  status: ('A' for Active; 'I' for Inactive)
REMARK    1  A    between atoms: C_1  and  O_2
REMARK    2  A    between atoms: O_2  and  C_3
REMARK    3  A    between atoms: C_6  and  C_7
REMARK    4  A    between atoms: C_7  and  C_8
REMARK    5  A    between atoms: C_8  and  N_9
REMARK    6  A    between atoms: C_10  and  C_12
REMARK    7  A    between atoms: C_17  and  S_18
REMARK    8  A    between atoms: S_18  and  C_19
REMARK                            x       y       z     vdW  Elec       q    Type
REMARK                         _______ _______ _______ _____ _____    ______ ____
ROOT
ATOM      1  N   UNL     1       0.662  10.040  17.842  0.00  0.00    +0.000 N 
ATOM      2  C   UNL     1      -0.452  10.093  18.643  0.00  0.00    +0.000 C 
ATOM      3  O   UNL     1      -0.391   9.812  19.841  0.00  0.00    +0.000 OA
ATOM      4  H   UNL     1       0.552  10.179  16.844  0.00  0.00    +0.000 HD
ENDROOT
BRANCH   2   5
ATOM      5  C   UNL     1      -1.765  10.518  18.040  0.00  0.00    +0.000 A 
ATOM      6  C   UNL     1      -2.089   9.860  16.831  0.00  0.00    +0.000 A 
ATOM      7  C   UNL     1      -3.265  10.134  16.136  0.00  0.00    +0.000 A 
ATOM      8  C   UNL     1      -4.150  11.074  16.638  0.00  0.00    +0.000 A 
ATOM      9  C   UNL     1      -3.855  11.739  17.830  0.00  0.00    +0.000 A 
ATOM     10  C   UNL     1      -2.674  11.473  18.553  0.00  0.00    +0.000 A 
BRANCH  10  11
ATOM     11  S   UNL     1      -2.384  12.484  20.018  0.00  0.00    +0.000 S 
ATOM     12  C   UNL     1      -1.031  13.558  19.457  0.00  0.00    +0.000 C 
ENDBRANCH  10  11
ENDBRANCH   2   5
BRANCH   1  13
ATOM     13  C   UNL     1       1.963   9.647  18.351  0.00  0.00    +0.000 C 
BRANCH  13  14
ATOM     14  C   UNL     1       2.524   8.428  17.617  0.00  0.00    +0.000 C 
BRANCH  14  18
ATOM     15  C   UNL     1       2.515   4.904  20.122  0.00  0.00    +0.000 A 
ATOM     16  C   UNL     1       2.040   6.121  20.611  0.00  0.00    +0.000 A 
ATOM     17  C   UNL     1       2.036   7.259  19.801  0.00  0.00    +0.000 A 
ATOM     18  C   UNL     1       2.519   7.196  18.488  0.00  0.00    +0.000 A 
ATOM     19  C   UNL     1       3.026   5.980  18.013  0.00  0.00    +0.000 A 
ATOM     20  C   UNL     1       3.024   4.841  18.824  0.00  0.00    +0.000 A 
BRANCH  15  22
ATOM     21  C   UNL     1       1.273   3.101  21.008  0.00  0.00    +0.000 C 
ATOM     22  O   UNL     1       2.477   3.861  21.006  0.00  0.00    +0.000 OA
ENDBRANCH  15  22
ENDBRANCH  14  18
ENDBRANCH  13  14
ENDBRANCH   1  13
TORSDOF 6
ENDMDL
MODEL 3
REMARK VINA RESULT:      -6.6      6.915     10.084
REMARK  Name = 
REMARK  8 active torsions:
REMARK  status: ('A' for Active; 'I' for Inactive)
REMARK    1  A    between atoms: C_1  and  O_2
REMARK    2  A    between atoms: O_2  and  C_3
REMARK    3  A    between atoms: C_6  and  C_7
REMARK    4  A    between atoms: C_7  and  C_8
REMARK    5  A    between atoms: C_8  and  N_9
REMARK    6  A    between atoms: C_10  and  C_12
REMARK    7  A    between atoms: C_17  and  S_18
REMARK    8  A    between atoms: S_18  and  C_19
REMARK                            x       y       z     vdW  Elec       q    Type
REMARK                         _______ _______ _______ _____ _____    ______ ____
ROOT
ATOM      1  N   UNL     1       7.310   7.471  17.985  0.00  0.00    +0.000 N 
ATOM      2  C   UNL     1       7.204   6.181  18.445  0.00  0.00    +0.000 C 
ATOM      3  O   UNL     1       8.051   5.702  19.200  0.00  0.00    +0.000 OA
ATOM      4  H   UNL     1       6.650   7.794  17.286  0.00  0.00    +0.000 HD
ENDROOT
BRANCH   2   5
ATOM      5  C   UNL     1       6.019   5.352  18.025  0.00  0.00    +0.000 A 
ATOM      6  C   UNL     1       5.027   5.211  19.023  0.00  0.00    +0.000 A 
ATOM      7  C   UNL     1       3.865   4.475  18.806  0.00  0.00    +0.000 A 
ATOM      8  C   UNL     1       3.665   3.861  17.581  0.00  0.00    +0.000 A 
ATOM      9  C   UNL     1       4.629   3.983  16.577  0.00  0.00    +0.000 A 
ATOM     10  C   UNL     1       5.810   4.729  16.772  0.00  0.00    +0.000 A 
BRANCH  10  11
ATOM     11  S   UNL     1       7.004   4.711  15.422  0.00  0.00    +0.000 S 
ATOM     12  C   UNL     1       6.044   3.923  14.097  0.00  0.00    +0.000 C 
ENDBRANCH  10  11
ENDBRANCH   2   5
BRANCH   1  13
ATOM     13  C   UNL     1       8.418   8.334  18.350  0.00  0.00    +0.000 C 
BRANCH  13  14
ATOM     14  C   UNL     1       8.345   9.691  17.649  0.00  0.00    +0.000 C 
BRANCH  14  18
ATOM     15  C   UNL     1      10.381  12.779  19.888  0.00  0.00    +0.000 A 
ATOM     16  C   UNL     1       9.948  13.019  18.583  0.00  0.00    +0.000 A 
ATOM     17  C   UNL     1       9.284  12.024  17.861  0.00  0.00    +0.000 A 
ATOM     18  C   UNL     1       9.053  10.768  18.433  0.00  0.00    +0.000 A 
ATOM     19  C   UNL     1       9.518  10.521  19.731  0.00  0.00    +0.000 A 
ATOM     20  C   UNL     1      10.178  11.520  20.454  0.00  0.00    +0.000 A 
BRANCH  15  22
ATOM     21  C   UNL     1      11.982  14.504  19.692  0.00  0.00    +0.000 C 
ATOM     22  O   UNL     1      11.024  13.823  20.494  0.00  0.00    +0.000 OA
ENDBRANCH  15  22
ENDBRANCH  14  18
ENDBRANCH  13  14
ENDBRANCH   1  13
TORSDOF 6
ENDMDL
MODEL 4
REMARK VINA RESULT:      -6.6      3.780      7.860
REMARK  Name = 
REMARK  8 active torsions:
REMARK  status: ('A' for Active; 'I' for Inactive)
REMARK    1  A    between atoms: C_1  and  O_2
REMARK    2  A    between atoms: O_2  and  C_3
REMARK    3  A    between atoms: C_6  and  C_7
REMARK    4  A    between atoms: C_7  and  C_8
REMARK    5  A    between atoms: C_8  and  N_9
REMARK    6  A    between atoms: C_10  and  C_12
REMARK    7  A    between atoms: C_17  and  S_18
REMARK    8  A    between atoms: S_18  and  C_19
REMARK                            x       y       z     vdW  Elec       q    Type
REMARK                         _______ _______ _______ _____ _____    ______ ____
ROOT
ATOM      1  N   UNL     1       3.334   6.642  17.957  0.00  0.00    +0.000 N 
ATOM      2  C   UNL     1       4.341   5.746  18.217  0.00  0.00    +0.000 C 
ATOM      3  O   UNL     1       4.519   5.299  19.352  0.00  0.00    +0.000 OA
ATOM      4  H   UNL     1       3.283   7.063  17.035  0.00  0.00    +0.000 HD
ENDROOT
BRANCH   2   5
ATOM      5  C   UNL     1       5.227   5.293  17.086  0.00  0.00    +0.000 A 
ATOM      6  C   UNL     1       4.640   4.323  16.242  0.00  0.00    +0.000 A 
ATOM      7  C   UNL     1       5.319   3.792  15.148  0.00  0.00    +0.000 A 
ATOM      8  C   UNL     1       6.606   4.223  14.869  0.00  0.00    +0.000 A 
ATOM      9  C   UNL     1       7.210   5.181  15.687  0.00  0.00    +0.000 A 
ATOM     10  C   UNL     1       6.538   5.737  16.796  0.00  0.00    +0.000 A 
BRANCH  10  11
ATOM     11  S   UNL     1       7.484   6.885  17.815  0.00  0.00    +0.000 S 
ATOM     12  C   UNL     1       7.903   5.844  19.243  0.00  0.00    +0.000 C 
ENDBRANCH  10  11
ENDBRANCH   2   5
BRANCH   1  13
ATOM     13  C   UNL     1       2.435   7.119  18.991  0.00  0.00    +0.000 C 
BRANCH  13  14
ATOM     14  C   UNL     1       1.833   8.481  18.646  0.00  0.00    +0.000 C 
BRANCH  14  18
ATOM     15  C   UNL     1       0.080  10.383  22.111  0.00  0.00    +0.000 A 
ATOM     16  C   UNL     1       0.576   9.082  22.193  0.00  0.00    +0.000 A 
ATOM     17  C   UNL     1       1.149   8.469  21.076  0.00  0.00    +0.000 A 
ATOM     18  C   UNL     1       1.223   9.149  19.854  0.00  0.00    +0.000 A 
ATOM     19  C   UNL     1       0.693  10.442  19.768  0.00  0.00    +0.000 A 
ATOM     20  C   UNL     1       0.126  11.056  20.889  0.00  0.00    +0.000 A 
BRANCH  15  22
ATOM     21  C   UNL     1      -1.754  11.465  23.134  0.00  0.00    +0.000 C 
ATOM     22  O   UNL     1      -0.464  10.879  23.264  0.00  0.00    +0.000 OA
ENDBRANCH  15  22
ENDBRANCH  14  18
ENDBRANCH  13  14
ENDBRANCH   1  13
TORSDOF 6
ENDMDL
MODEL 5
REMARK VINA RESULT:      -6.5      5.216      7.525
REMARK  Name = 
REMARK  8 active torsions:
REMARK  status: ('A' for Active; 'I' for Inactive)
REMARK    1  A    between atoms: C_1  and  O_2
REMARK    2  A    between atoms: O_2  and  C_3
REMARK    3  A    between atoms: C_6  and  C_7
REMARK    4  A    between atoms: C_7  and  C_8
REMARK    5  A    between atoms: C_8  and  N_9
REMARK    6  A    between atoms: C_10  and  C_12
REMARK    7  A    between atoms: C_17  and  S_18
REMARK    8  A    between atoms: S_18  and  C_19
REMARK                            x       y       z     vdW  Elec       q    Type
REMARK                         _______ _______ _______ _____ _____    ______ ____
ROOT
ATOM      1  N   UNL     1       4.907   6.153  17.818  0.00  0.00    +0.000 N 
ATOM      2  C   UNL     1       4.908   5.531  19.042  0.00  0.00    +0.000 C 
ATOM      3  O   UNL     1       5.950   5.393  19.686  0.00  0.00    +0.000 OA
ATOM      4  H   UNL     1       4.051   6.157  17.275  0.00  0.00    +0.000 HD
ENDROOT
BRANCH   2   5
ATOM      5  C   UNL     1       3.606   5.028  19.606  0.00  0.00    +0.000 A 
ATOM      6  C   UNL     1       2.658   6.042  19.872  0.00  0.00    +0.000 A 
ATOM      7  C   UNL     1       1.401   5.755  20.399  0.00  0.00    +0.000 A 
ATOM      8  C   UNL     1       1.059   4.439  20.670  0.00  0.00    +0.000 A 
ATOM      9  C   UNL     1       1.977   3.417  20.417  0.00  0.00    +0.000 A 
ATOM     10  C   UNL     1       3.253   3.685  19.878  0.00  0.00    +0.000 A 
BRANCH  10  11
ATOM     11  S   UNL     1       4.363   2.275  19.703  0.00  0.00    +0.000 S 
ATOM     12  C   UNL     1       3.672   1.448  18.240  0.00  0.00    +0.000 C 
ENDBRANCH  10  11
ENDBRANCH   2   5
BRANCH   1  13
ATOM     13  C   UNL     1       6.119   6.671  17.212  0.00  0.00    +0.000 C 
BRANCH  13  14
ATOM     14  C   UNL     1       7.099   5.558  16.840  0.00  0.00    +0.000 C 
BRANCH  14  18
ATOM     15  C   UNL     1       6.175   3.803  12.999  0.00  0.00    +0.000 A 
ATOM     16  C   UNL     1       5.412   3.486  14.124  0.00  0.00    +0.000 A 
ATOM     17  C   UNL     1       5.705   4.058  15.364  0.00  0.00    +0.000 A 
ATOM     18  C   UNL     1       6.777   4.949  15.498  0.00  0.00    +0.000 A 
ATOM     19  C   UNL     1       7.560   5.239  14.373  0.00  0.00    +0.000 A 
ATOM     20  C   UNL     1       7.260   4.670  13.131  0.00  0.00    +0.000 A 
BRANCH  15  22
ATOM     21  C   UNL     1       4.406   3.203  11.554  0.00  0.00    +0.000 C 
ATOM     22  O   UNL     1       5.800   3.179  11.841  0.00  0.00    +0.000 OA
ENDBRANCH  15  22
ENDBRANCH  14  18
ENDBRANCH  13  14
ENDBRANCH   1  13
TORSDOF 6
ENDMDL
MODEL 6
REMARK VINA RESULT:      -6.4      4.228      7.466
REMARK  Name = 
REMARK  8 active torsions:
REMARK  status: ('A' for Active; 'I' for Inactive)
REMARK    1  A    between atoms: C_1  and  O_2
REMARK    2  A    between atoms: O_2  and  C_3
REMARK    3  A    between atoms: C_6  and  C_7
REMARK    4  A    between atoms: C_7  and  C_8
REMARK    5  A    between atoms: C_8  and  N_9
REMARK    6  A    between atoms: C_10  and  C_12
REMARK    7  A    between atoms: C_17  and  S_18
REMARK    8  A    between atoms: S_18  and  C_19
REMARK                            x       y       z     vdW  Elec       q    Type
REMARK                         _______ _______ _______ _____ _____    ______ ____
ROOT
ATOM      1  N   UNL     1       4.064   2.921  17.785  0.00  0.00    +0.000 N 
ATOM      2  C   UNL     1       4.991   3.379  18.689  0.00  0.00    +0.000 C 
ATOM      3  O   UNL     1       5.042   2.927  19.834  0.00  0.00    +0.000 OA
ATOM      4  H   UNL     1       3.987   3.388  16.888  0.00  0.00    +0.000 HD
ENDROOT
BRANCH   2   5
ATOM      5  C   UNL     1       5.967   4.442  18.259  0.00  0.00    +0.000 A 
ATOM      6  C   UNL     1       6.464   5.237  19.318  0.00  0.00    +0.000 A 
ATOM      7  C   UNL     1       7.375   6.268  19.099  0.00  0.00    +0.000 A 
ATOM      8  C   UNL     1       7.815   6.527  17.811  0.00  0.00    +0.000 A 
ATOM      9  C   UNL     1       7.341   5.758  16.746  0.00  0.00    +0.000 A 
ATOM     10  C   UNL     1       6.423   4.705  16.946  0.00  0.00    +0.000 A 
BRANCH  10  11
ATOM     11  S   UNL     1       5.825   3.869  15.464  0.00  0.00    +0.000 S 
ATOM     12  C   UNL     1       6.773   4.712  14.163  0.00  0.00    +0.000 C 
ENDBRANCH  10  11
ENDBRANCH   2   5
BRANCH   1  13
ATOM     13  C   UNL     1       3.096   1.895  18.122  0.00  0.00    +0.000 C 
BRANCH  13  14
ATOM     14  C   UNL     1       1.725   2.483  18.454  0.00  0.00    +0.000 C 
BRANCH  14  18
ATOM     15  C   UNL     1       1.995   6.611  19.710  0.00  0.00    +0.000 A 
ATOM     16  C   UNL     1       1.835   5.594  20.652  0.00  0.00    +0.000 A 
ATOM     17  C   UNL     1       1.754   4.259  20.248  0.00  0.00    +0.000 A 
ATOM     18  C   UNL     1       1.822   3.925  18.890  0.00  0.00    +0.000 A 
ATOM     19  C   UNL     1       1.950   4.952  17.947  0.00  0.00    +0.000 A 
ATOM     20  C   UNL     1       2.036   6.287  18.354  0.00  0.00    +0.000 A 
BRANCH  15  22
ATOM     21  C   UNL     1       1.057   8.203  21.182  0.00  0.00    +0.000 C 
ATOM     22  O   UNL     1       2.055   7.879  20.221  0.00  0.00    +0.000 OA
ENDBRANCH  15  22
ENDBRANCH  14  18
ENDBRANCH  13  14
ENDBRANCH   1  13
TORSDOF 6
ENDMDL
MODEL 7
REMARK VINA RESULT:      -6.4      4.082      7.403
REMARK  Name = 
REMARK  8 active torsions:
REMARK  status: ('A' for Active; 'I' for Inactive)
REMARK    1  A    between atoms: C_1  and  O_2
REMARK    2  A    between atoms: O_2  and  C_3
REMARK    3  A    between atoms: C_6  and  C_7
REMARK    4  A    between atoms: C_7  and  C_8
REMARK    5  A    between atoms: C_8  and  N_9
REMARK    6  A    between atoms: C_10  and  C_12
REMARK    7  A    between atoms: C_17  and  S_18
REMARK    8  A    between atoms: S_18  and  C_19
REMARK                            x       y       z     vdW  Elec       q    Type
REMARK                         _______ _______ _______ _____ _____    ______ ____
ROOT
ATOM      1  N   UNL     1       3.970   3.130  17.670  0.00  0.00    +0.000 N 
ATOM      2  C   UNL     1       4.931   3.488  18.584  0.00  0.00    +0.000 C 
ATOM      3  O   UNL     1       5.009   2.929  19.679  0.00  0.00    +0.000 OA
ATOM      4  H   UNL     1       3.873   3.680  16.824  0.00  0.00    +0.000 HD
ENDROOT
BRANCH   2   5
ATOM      5  C   UNL     1       5.911   4.573  18.225  0.00  0.00    +0.000 A 
ATOM      6  C   UNL     1       6.601   5.121  19.331  0.00  0.00    +0.000 A 
ATOM      7  C   UNL     1       7.543   6.136  19.181  0.00  0.00    +0.000 A 
ATOM      8  C   UNL     1       7.820   6.628  17.916  0.00  0.00    +0.000 A 
ATOM      9  C   UNL     1       7.153   6.105  16.806  0.00  0.00    +0.000 A 
ATOM     10  C   UNL     1       6.201   5.072  16.933  0.00  0.00    +0.000 A 
BRANCH  10  11
ATOM     11  S   UNL     1       5.350   4.573  15.424  0.00  0.00    +0.000 S 
ATOM     12  C   UNL     1       6.710   4.582  14.220  0.00  0.00    +0.000 C 
ENDBRANCH  10  11
ENDBRANCH   2   5
BRANCH   1  13
ATOM     13  C   UNL     1       2.996   2.089  17.939  0.00  0.00    +0.000 C 
BRANCH  13  14
ATOM     14  C   UNL     1       1.621   2.662  18.283  0.00  0.00    +0.000 C 
BRANCH  14  18
ATOM     15  C   UNL     1       1.912   6.650  19.928  0.00  0.00    +0.000 A 
ATOM     16  C   UNL     1       2.044   6.439  18.555  0.00  0.00    +0.000 A 
ATOM     17  C   UNL     1       1.943   5.152  18.021  0.00  0.00    +0.000 A 
ATOM     18  C   UNL     1       1.719   4.053  18.859  0.00  0.00    +0.000 A 
ATOM     19  C   UNL     1       1.621   4.265  20.240  0.00  0.00    +0.000 A 
ATOM     20  C   UNL     1       1.716   5.556  20.771  0.00  0.00    +0.000 A 
BRANCH  15  22
ATOM     21  C   UNL     1       1.038   8.405  21.244  0.00  0.00    +0.000 C 
ATOM     22  O   UNL     1       2.035   7.949  20.337  0.00  0.00    +0.000 OA
ENDBRANCH  15  22
ENDBRANCH  14  18
ENDBRANCH  13  14
ENDBRANCH   1  13
TORSDOF 6
ENDMDL
MODEL 8
REMARK VINA RESULT:      -6.4      2.992      7.697
REMARK  Name = 
REMARK  8 active torsions:
REMARK  status: ('A' for Active; 'I' for Inactive)
REMARK    1  A    between atoms: C_1  and  O_2
REMARK    2  A    between atoms: O_2  and  C_3
REMARK    3  A    between atoms: C_6  and  C_7
REMARK    4  A    between atoms: C_7  and  C_8
REMARK    5  A    between atoms: C_8  and  N_9
REMARK    6  A    between atoms: C_10  and  C_12
REMARK    7  A    between atoms: C_17  and  S_18
REMARK    8  A    between atoms: S_18  and  C_19
REMARK                            x       y       z     vdW  Elec       q    Type
REMARK                         _______ _______ _______ _____ _____    ______ ____
ROOT
ATOM      1  N   UNL     1       1.980   6.683  20.375  0.00  0.00    +0.000 N 
ATOM      2  C   UNL     1       2.471   6.448  19.114  0.00  0.00    +0.000 C 
ATOM      3  O   UNL     1       2.666   7.372  18.323  0.00  0.00    +0.000 OA
ATOM      4  H   UNL     1       1.737   5.890  20.958  0.00  0.00    +0.000 HD
ENDROOT
BRANCH   2   5
ATOM      5  C   UNL     1       2.787   5.034  18.706  0.00  0.00    +0.000 A 
ATOM      6  C   UNL     1       1.650   4.246  18.412  0.00  0.00    +0.000 A 
ATOM      7  C   UNL     1       1.759   2.914  18.020  0.00  0.00    +0.000 A 
ATOM      8  C   UNL     1       3.013   2.336  17.910  0.00  0.00    +0.000 A 
ATOM      9  C   UNL     1       4.153   3.090  18.194  0.00  0.00    +0.000 A 
ATOM     10  C   UNL     1       4.067   4.443  18.586  0.00  0.00    +0.000 A 
BRANCH  10  11
ATOM     11  S   UNL     1       5.618   5.255  19.017  0.00  0.00    +0.000 S 
ATOM     12  C   UNL     1       5.911   6.283  17.549  0.00  0.00    +0.000 C 
ENDBRANCH  10  11
ENDBRANCH   2   5
BRANCH   1  13
ATOM     13  C   UNL     1       1.658   8.018  20.844  0.00  0.00    +0.000 C 
BRANCH  13  14
ATOM     14  C   UNL     1       0.284   8.078  21.511  0.00  0.00    +0.000 C 
BRANCH  14  18
ATOM     15  C   UNL     1      -1.145  12.138  21.917  0.00  0.00    +0.000 A 
ATOM     16  C   UNL     1      -1.083  11.295  23.028  0.00  0.00    +0.000 A 
ATOM     17  C   UNL     1      -0.616   9.985  22.899  0.00  0.00    +0.000 A 
ATOM     18  C   UNL     1      -0.212   9.497  21.650  0.00  0.00    +0.000 A 
ATOM     19  C   UNL     1      -0.306  10.336  20.533  0.00  0.00    +0.000 A 
ATOM     20  C   UNL     1      -0.770  11.649  20.666  0.00  0.00    +0.000 A 
BRANCH  15  22
ATOM     21  C   UNL     1      -1.431  13.882  23.485  0.00  0.00    +0.000 C 
ATOM     22  O   UNL     1      -1.625  13.396  22.161  0.00  0.00    +0.000 OA
ENDBRANCH  15  22
ENDBRANCH  14  18
ENDBRANCH  13  14
ENDBRANCH   1  13
TORSDOF 6
ENDMDL
MODEL 9
REMARK VINA RESULT:      -6.4      2.709      3.552
REMARK  Name = 
REMARK  8 active torsions:
REMARK  status: ('A' for Active; 'I' for Inactive)
REMARK    1  A    between atoms: C_1  and  O_2
REMARK    2  A    between atoms: O_2  and  C_3
REMARK    3  A    between atoms: C_6  and  C_7
REMARK    4  A    between atoms: C_7  and  C_8
REMARK    5  A    between atoms: C_8  and  N_9
REMARK    6  A    between atoms: C_10  and  C_12
REMARK    7  A    between atoms: C_17  and  S_18
REMARK    8  A    between atoms: S_18  and  C_19
REMARK                            x       y       z     vdW  Elec       q    Type
REMARK                         _______ _______ _______ _____ _____    ______ ____
ROOT
ATOM      1  N   UNL     1       1.907   8.292  19.423  0.00  0.00    +0.000 N 
ATOM      2  C   UNL     1       1.027   9.338  19.297  0.00  0.00    +0.000 C 
ATOM      3  O   UNL     1       0.746   9.805  18.192  0.00  0.00    +0.000 OA
ATOM      4  H   UNL     1       2.190   8.003  20.353  0.00  0.00    +0.000 HD
ENDROOT
BRANCH   2   5
ATOM      5  C   UNL     1       0.386   9.907  20.535  0.00  0.00    +0.000 A 
ATOM      6  C   UNL     1       0.076   8.943  21.523  0.00  0.00    +0.000 A 
ATOM      7  C   UNL     1      -0.522   9.294  22.731  0.00  0.00    +0.000 A 
ATOM      8  C   UNL     1      -0.824  10.623  22.982  0.00  0.00    +0.000 A 
ATOM      9  C   UNL     1      -0.529  11.596  22.024  0.00  0.00    +0.000 A 
ATOM     10  C   UNL     1       0.083  11.264  20.797  0.00  0.00    +0.000 A 
BRANCH  10  11
ATOM     11  S   UNL     1       0.307  12.612  19.621  0.00  0.00    +0.000 S 
ATOM     12  C   UNL     1       1.978  13.187  20.041  0.00  0.00    +0.000 C 
ENDBRANCH  10  11
ENDBRANCH   2   5
BRANCH   1  13
ATOM     13  C   UNL     1       2.559   7.686  18.278  0.00  0.00    +0.000 C 
BRANCH  13  14
ATOM     14  C   UNL     1       2.788   6.187  18.472  0.00  0.00    +0.000 C 
BRANCH  14  18
ATOM     15  C   UNL     1       5.722   4.624  15.708  0.00  0.00    +0.000 A 
ATOM     16  C   UNL     1       4.893   3.759  16.424  0.00  0.00    +0.000 A 
ATOM     17  C   UNL     1       3.940   4.263  17.313  0.00  0.00    +0.000 A 
ATOM     18  C   UNL     1       3.811   5.644  17.505  0.00  0.00    +0.000 A 
ATOM     19  C   UNL     1       4.667   6.506  16.809  0.00  0.00    +0.000 A 
ATOM     20  C   UNL     1       5.617   5.999  15.915  0.00  0.00    +0.000 A 
BRANCH  15  22
ATOM     21  C   UNL     1       6.197   3.863  13.523  0.00  0.00    +0.000 C 
ATOM     22  O   UNL     1       6.620   4.018  14.873  0.00  0.00    +0.000 OA
ENDBRANCH  15  22
ENDBRANCH  14  18
ENDBRANCH  13  14
ENDBRANCH   1  13
TORSDOF 6
ENDMDL
