MODEL 1
REMARK VINA RESULT:      -9.6      0.000      0.000
REMARK  Name = 
REMARK  7 active torsions:
REMARK  status: ('A' for Active; 'I' for Inactive)
REMARK    1  A    between atoms: C_1  and  C_2
REMARK    2  A    between atoms: C_2  and  C_3
REMARK    3  A    between atoms: C_3  and  C_4
REMARK    4  A    between atoms: C_4  and  C_5
REMARK    5  A    between atoms: C_9  and  C_10
REMARK    6  A    between atoms: C_12  and  C_13
REMARK    7  A    between atoms: C_18  and  C_19
REMARK                            x       y       z     vdW  Elec       q    Type
REMARK                         _______ _______ _______ _____ _____    ______ ____
ROOT
ATOM      1  C   UNL     1       6.651   4.470  13.914  0.00  0.00    +0.000 A 
ATOM      2  C   UNL     1       5.503   3.935  14.552  0.00  0.00    +0.000 A 
ATOM      3  C   UNL     1       5.421   4.608  15.742  0.00  0.00    +0.000 A 
ATOM      4  N   UNL     1       4.548   4.598  16.772  0.00  0.00    +0.000 N 
ATOM      5  C   UNL     1       4.720   5.439  17.857  0.00  0.00    +0.000 A 
ATOM      6  C   UNL     1       5.761   6.283  17.961  0.00  0.00    +0.000 A 
ATOM      7  C   UNL     1       6.775   6.335  16.868  0.00  0.00    +0.000 A 
ATOM      8  O   UNL     1       7.749   7.077  16.888  0.00  0.00    +0.000 OA
ATOM      9  N   UNL     1       6.507   5.465  15.795  0.00  0.00    +0.000 N 
ATOM     10  N   UNL     1       7.269   5.388  14.672  0.00  0.00    +0.000 NA
ATOM     11  H   UNL     1       3.704   4.029  16.761  0.00  0.00    +0.000 HD
ENDROOT
BRANCH   5  12
ATOM     12  C   UNL     1       3.691   5.399  18.907  0.00  0.00    +0.000 A 
ATOM     13  C   UNL     1       3.046   6.581  19.297  0.00  0.00    +0.000 A 
ATOM     14  C   UNL     1       2.048   6.564  20.283  0.00  0.00    +0.000 A 
ATOM     15  C   UNL     1       1.701   5.340  20.877  0.00  0.00    +0.000 A 
ATOM     16  C   UNL     1       2.334   4.144  20.500  0.00  0.00    +0.000 A 
ATOM     17  C   UNL     1       3.332   4.186  19.511  0.00  0.00    +0.000 A 
BRANCH  14  18
ATOM     18  C   UNL     1       1.345   7.834  20.705  0.00  0.00    +0.000 C 
ATOM     19  F   UNL     1       0.086   7.627  21.179  0.00  0.00    +0.000 F 
ATOM     20  F   UNL     1       2.013   8.492  21.690  0.00  0.00    +0.000 F 
ATOM     21  F   UNL     1       1.218   8.720  19.679  0.00  0.00    +0.000 F 
ENDBRANCH  14  18
BRANCH  16  22
ATOM     22  C   UNL     1       1.947   2.829  21.139  0.00  0.00    +0.000 C 
ATOM     23  F   UNL     1       2.940   2.286  21.898  0.00  0.00    +0.000 F 
ATOM     24  F   UNL     1       0.872   2.952  21.964  0.00  0.00    +0.000 F 
ATOM     25  F   UNL     1       1.616   1.881  20.222  0.00  0.00    +0.000 F 
ENDBRANCH  16  22
ENDBRANCH   5  12
BRANCH   1  26
ATOM     26  C   UNL     1       7.171   4.133  12.553  0.00  0.00    +0.000 C 
BRANCH  26  27
ATOM     27  C   UNL     1       6.294   3.112  11.829  0.00  0.00    +0.000 C 
BRANCH  27  29
ATOM     28  C   UNL     1       6.297   0.724  11.065  0.00  0.00    +0.000 C 
ATOM     29  C   UNL     1       7.117   2.000  11.181  0.00  0.00    +0.000 C 
ENDBRANCH  27  29
ENDBRANCH  26  27
ENDBRANCH   1  26
TORSDOF 6
ENDMDL
MODEL 2
REMARK VINA RESULT:      -9.6      0.099      3.293
REMARK  Name = 
REMARK  7 active torsions:
REMARK  status: ('A' for Active; 'I' for Inactive)
REMARK    1  A    between atoms: C_1  and  C_2
REMARK    2  A    between atoms: C_2  and  C_3
REMARK    3  A    between atoms: C_3  and  C_4
REMARK    4  A    between atoms: C_4  and  C_5
REMARK    5  A    between atoms: C_9  and  C_10
REMARK    6  A    between atoms: C_12  and  C_13
REMARK    7  A    between atoms: C_18  and  C_19
REMARK                            x       y       z     vdW  Elec       q    Type
REMARK                         _______ _______ _______ _____ _____    ______ ____
ROOT
ATOM      1  C   UNL     1       6.657   4.438  13.925  0.00  0.00    +0.000 A 
ATOM      2  C   UNL     1       5.480   3.935  14.534  0.00  0.00    +0.000 A 
ATOM      3  C   UNL     1       5.407   4.583  15.738  0.00  0.00    +0.000 A 
ATOM      4  N   UNL     1       4.520   4.584  16.756  0.00  0.00    +0.000 N 
ATOM      5  C   UNL     1       4.709   5.392  17.862  0.00  0.00    +0.000 A 
ATOM      6  C   UNL     1       5.779   6.193  18.000  0.00  0.00    +0.000 A 
ATOM      7  C   UNL     1       6.810   6.230  16.922  0.00  0.00    +0.000 A 
ATOM      8  O   UNL     1       7.812   6.932  16.973  0.00  0.00    +0.000 OA
ATOM      9  N   UNL     1       6.525   5.395  15.826  0.00  0.00    +0.000 N 
ATOM     10  N   UNL     1       7.299   5.315  14.712  0.00  0.00    +0.000 NA
ATOM     11  H   UNL     1       3.654   4.048  16.720  0.00  0.00    +0.000 HD
ENDROOT
BRANCH   5  12
ATOM     12  C   UNL     1       3.663   5.369  18.897  0.00  0.00    +0.000 A 
ATOM     13  C   UNL     1       3.330   4.162  19.526  0.00  0.00    +0.000 A 
ATOM     14  C   UNL     1       2.348   4.120  20.528  0.00  0.00    +0.000 A 
ATOM     15  C   UNL     1       1.701   5.311  20.895  0.00  0.00    +0.000 A 
ATOM     16  C   UNL     1       2.021   6.532  20.278  0.00  0.00    +0.000 A 
ATOM     17  C   UNL     1       3.007   6.549  19.276  0.00  0.00    +0.000 A 
BRANCH  14  18
ATOM     18  C   UNL     1       1.987   2.822  21.214  0.00  0.00    +0.000 C 
ATOM     19  F   UNL     1       1.466   1.889  20.372  0.00  0.00    +0.000 F 
ATOM     20  F   UNL     1       3.063   2.235  21.805  0.00  0.00    +0.000 F 
ATOM     21  F   UNL     1       1.064   2.997  22.199  0.00  0.00    +0.000 F 
ENDBRANCH  14  18
BRANCH  16  22
ATOM     22  C   UNL     1       1.326   7.811  20.687  0.00  0.00    +0.000 C 
ATOM     23  F   UNL     1       1.982   8.491  21.668  0.00  0.00    +0.000 F 
ATOM     24  F   UNL     1       1.195   8.683  19.651  0.00  0.00    +0.000 F 
ATOM     25  F   UNL     1       0.069   7.593  21.160  0.00  0.00    +0.000 F 
ENDBRANCH  16  22
ENDBRANCH   5  12
BRANCH   1  26
ATOM     26  C   UNL     1       7.184   4.113  12.563  0.00  0.00    +0.000 C 
BRANCH  26  27
ATOM     27  C   UNL     1       6.300   3.111  11.820  0.00  0.00    +0.000 C 
BRANCH  27  29
ATOM     28  C   UNL     1       6.283   0.708  11.107  0.00  0.00    +0.000 C 
ATOM     29  C   UNL     1       7.112   1.980  11.192  0.00  0.00    +0.000 C 
ENDBRANCH  27  29
ENDBRANCH  26  27
ENDBRANCH   1  26
TORSDOF 6
ENDMDL
MODEL 3
REMARK VINA RESULT:      -9.4      0.473      1.183
REMARK  Name = 
REMARK  7 active torsions:
REMARK  status: ('A' for Active; 'I' for Inactive)
REMARK    1  A    between atoms: C_1  and  C_2
REMARK    2  A    between atoms: C_2  and  C_3
REMARK    3  A    between atoms: C_3  and  C_4
REMARK    4  A    between atoms: C_4  and  C_5
REMARK    5  A    between atoms: C_9  and  C_10
REMARK    6  A    between atoms: C_12  and  C_13
REMARK    7  A    between atoms: C_18  and  C_19
REMARK                            x       y       z     vdW  Elec       q    Type
REMARK                         _______ _______ _______ _____ _____    ______ ____
ROOT
ATOM      1  C   UNL     1       6.663   4.481  13.979  0.00  0.00    +0.000 A 
ATOM      2  C   UNL     1       5.491   3.951  14.576  0.00  0.00    +0.000 A 
ATOM      3  C   UNL     1       5.346   4.656  15.741  0.00  0.00    +0.000 A 
ATOM      4  N   UNL     1       4.424   4.666  16.728  0.00  0.00    +0.000 N 
ATOM      5  C   UNL     1       4.535   5.540  17.795  0.00  0.00    +0.000 A 
ATOM      6  C   UNL     1       5.561   6.400  17.923  0.00  0.00    +0.000 A 
ATOM      7  C   UNL     1       6.625   6.433  16.878  0.00  0.00    +0.000 A 
ATOM      8  O   UNL     1       7.589   7.186  16.923  0.00  0.00    +0.000 OA
ATOM      9  N   UNL     1       6.419   5.528  15.820  0.00  0.00    +0.000 N 
ATOM     10  N   UNL     1       7.234   5.429  14.738  0.00  0.00    +0.000 NA
ATOM     11  H   UNL     1       3.588   4.087  16.694  0.00  0.00    +0.000 HD
ENDROOT
BRANCH   5  12
ATOM     12  C   UNL     1       3.457   5.518  18.795  0.00  0.00    +0.000 A 
ATOM     13  C   UNL     1       2.965   6.723  19.316  0.00  0.00    +0.000 A 
ATOM     14  C   UNL     1       1.924   6.727  20.259  0.00  0.00    +0.000 A 
ATOM     15  C   UNL     1       1.379   5.501  20.673  0.00  0.00    +0.000 A 
ATOM     16  C   UNL     1       1.857   4.282  20.162  0.00  0.00    +0.000 A 
ATOM     17  C   UNL     1       2.901   4.304  19.221  0.00  0.00    +0.000 A 
BRANCH  14  18
ATOM     18  C   UNL     1       1.385   8.022  20.821  0.00  0.00    +0.000 C 
ATOM     19  F   UNL     1       1.425   9.056  19.937  0.00  0.00    +0.000 F 
ATOM     20  F   UNL     1       0.086   7.914  21.212  0.00  0.00    +0.000 F 
ATOM     21  F   UNL     1       2.076   8.438  21.918  0.00  0.00    +0.000 F 
ENDBRANCH  14  18
BRANCH  16  22
ATOM     22  C   UNL     1       1.257   2.968  20.608  0.00  0.00    +0.000 C 
ATOM     23  F   UNL     1       0.035   2.720  20.061  0.00  0.00    +0.000 F 
ATOM     24  F   UNL     1       2.037   1.904  20.276  0.00  0.00    +0.000 F 
ATOM     25  F   UNL     1       1.083   2.905  21.955  0.00  0.00    +0.000 F 
ENDBRANCH  16  22
ENDBRANCH   5  12
BRANCH   1  26
ATOM     26  C   UNL     1       7.251   4.111  12.654  0.00  0.00    +0.000 C 
BRANCH  26  27
ATOM     27  C   UNL     1       6.352   3.163  11.860  0.00  0.00    +0.000 C 
BRANCH  27  29
ATOM     28  C   UNL     1       6.424   0.764  11.136  0.00  0.00    +0.000 C 
ATOM     29  C   UNL     1       7.154   2.099  11.112  0.00  0.00    +0.000 C 
ENDBRANCH  27  29
ENDBRANCH  26  27
ENDBRANCH   1  26
TORSDOF 6
ENDMDL
MODEL 4
REMARK VINA RESULT:      -9.2      0.608      3.415
REMARK  Name = 
REMARK  7 active torsions:
REMARK  status: ('A' for Active; 'I' for Inactive)
REMARK    1  A    between atoms: C_1  and  C_2
REMARK    2  A    between atoms: C_2  and  C_3
REMARK    3  A    between atoms: C_3  and  C_4
REMARK    4  A    between atoms: C_4  and  C_5
REMARK    5  A    between atoms: C_9  and  C_10
REMARK    6  A    between atoms: C_12  and  C_13
REMARK    7  A    between atoms: C_18  and  C_19
REMARK                            x       y       z     vdW  Elec       q    Type
REMARK                         _______ _______ _______ _____ _____    ______ ____
ROOT
ATOM      1  C   UNL     1       6.583   4.383  13.971  0.00  0.00    +0.000 A 
ATOM      2  C   UNL     1       5.464   3.821  14.636  0.00  0.00    +0.000 A 
ATOM      3  C   UNL     1       5.345   4.549  15.790  0.00  0.00    +0.000 A 
ATOM      4  N   UNL     1       4.471   4.546  16.820  0.00  0.00    +0.000 N 
ATOM      5  C   UNL     1       4.596   5.449  17.860  0.00  0.00    +0.000 A 
ATOM      6  C   UNL     1       5.590   6.353  17.919  0.00  0.00    +0.000 A 
ATOM      7  C   UNL     1       6.601   6.403  16.824  0.00  0.00    +0.000 A 
ATOM      8  O   UNL     1       7.534   7.195  16.805  0.00  0.00    +0.000 OA
ATOM      9  N   UNL     1       6.383   5.464  15.797  0.00  0.00    +0.000 N 
ATOM     10  N   UNL     1       7.149   5.371  14.679  0.00  0.00    +0.000 NA
ATOM     11  H   UNL     1       3.659   3.932  16.839  0.00  0.00    +0.000 HD
ENDROOT
BRANCH   5  12
ATOM     12  C   UNL     1       3.568   5.409  18.912  0.00  0.00    +0.000 A 
ATOM     13  C   UNL     1       3.235   4.189  19.515  0.00  0.00    +0.000 A 
ATOM     14  C   UNL     1       2.269   4.129  20.532  0.00  0.00    +0.000 A 
ATOM     15  C   UNL     1       1.640   5.316  20.941  0.00  0.00    +0.000 A 
ATOM     16  C   UNL     1       1.961   6.550  20.350  0.00  0.00    +0.000 A 
ATOM     17  C   UNL     1       2.929   6.584  19.332  0.00  0.00    +0.000 A 
BRANCH  14  18
ATOM     18  C   UNL     1       1.909   2.818  21.191  0.00  0.00    +0.000 C 
ATOM     19  F   UNL     1       1.644   1.819  20.305  0.00  0.00    +0.000 F 
ATOM     20  F   UNL     1       2.904   2.352  21.994  0.00  0.00    +0.000 F 
ATOM     21  F   UNL     1       0.804   2.922  21.980  0.00  0.00    +0.000 F 
ENDBRANCH  14  18
BRANCH  16  22
ATOM     22  C   UNL     1       1.285   7.824  20.804  0.00  0.00    +0.000 C 
ATOM     23  F   UNL     1       0.020   7.626  21.269  0.00  0.00    +0.000 F 
ATOM     24  F   UNL     1       1.961   8.438  21.812  0.00  0.00    +0.000 F 
ATOM     25  F   UNL     1       1.176   8.741  19.806  0.00  0.00    +0.000 F 
ENDBRANCH  16  22
ENDBRANCH   5  12
BRANCH   1  26
ATOM     26  C   UNL     1       7.123   4.005  12.628  0.00  0.00    +0.000 C 
BRANCH  26  27
ATOM     27  C   UNL     1       6.139   3.159  11.820  0.00  0.00    +0.000 C 
BRANCH  27  29
ATOM     28  C   UNL     1       3.820   2.975  10.886  0.00  0.00    +0.000 C 
ATOM     29  C   UNL     1       4.728   3.746  11.831  0.00  0.00    +0.000 C 
ENDBRANCH  27  29
ENDBRANCH  26  27
ENDBRANCH   1  26
TORSDOF 6
ENDMDL
MODEL 5
REMARK VINA RESULT:      -9.0      0.550      3.327
REMARK  Name = 
REMARK  7 active torsions:
REMARK  status: ('A' for Active; 'I' for Inactive)
REMARK    1  A    between atoms: C_1  and  C_2
REMARK    2  A    between atoms: C_2  and  C_3
REMARK    3  A    between atoms: C_3  and  C_4
REMARK    4  A    between atoms: C_4  and  C_5
REMARK    5  A    between atoms: C_9  and  C_10
REMARK    6  A    between atoms: C_12  and  C_13
REMARK    7  A    between atoms: C_18  and  C_19
REMARK                            x       y       z     vdW  Elec       q    Type
REMARK                         _______ _______ _______ _____ _____    ______ ____
ROOT
ATOM      1  C   UNL     1       6.770   4.597  13.927  0.00  0.00    +0.000 A 
ATOM      2  C   UNL     1       5.558   4.092  14.462  0.00  0.00    +0.000 A 
ATOM      3  C   UNL     1       5.408   4.743  15.658  0.00  0.00    +0.000 A 
ATOM      4  N   UNL     1       4.458   4.744  16.617  0.00  0.00    +0.000 N 
ATOM      5  C   UNL     1       4.575   5.555  17.732  0.00  0.00    +0.000 A 
ATOM      6  C   UNL     1       5.633   6.359  17.935  0.00  0.00    +0.000 A 
ATOM      7  C   UNL     1       6.730   6.396  16.924  0.00  0.00    +0.000 A 
ATOM      8  O   UNL     1       7.725   7.100  17.037  0.00  0.00    +0.000 OA
ATOM      9  N   UNL     1       6.516   5.558  15.814  0.00  0.00    +0.000 N 
ATOM     10  N   UNL     1       7.359   5.477  14.751  0.00  0.00    +0.000 NA
ATOM     11  H   UNL     1       3.598   4.206  16.528  0.00  0.00    +0.000 HD
ENDROOT
BRANCH   5  12
ATOM     12  C   UNL     1       3.466   5.532  18.698  0.00  0.00    +0.000 A 
ATOM     13  C   UNL     1       2.907   4.308  19.090  0.00  0.00    +0.000 A 
ATOM     14  C   UNL     1       1.860   4.261  20.024  0.00  0.00    +0.000 A 
ATOM     15  C   UNL     1       1.380   5.464  20.565  0.00  0.00    +0.000 A 
ATOM     16  C   UNL     1       1.928   6.701  20.188  0.00  0.00    +0.000 A 
ATOM     17  C   UNL     1       2.973   6.723  19.249  0.00  0.00    +0.000 A 
BRANCH  14  18
ATOM     18  C   UNL     1       1.256   2.944  20.454  0.00  0.00    +0.000 C 
ATOM     19  F   UNL     1       0.936   2.899  21.776  0.00  0.00    +0.000 F 
ATOM     20  F   UNL     1       0.109   2.658  19.781  0.00  0.00    +0.000 F 
ATOM     21  F   UNL     1       2.095   1.894  20.235  0.00  0.00    +0.000 F 
ENDBRANCH  14  18
BRANCH  16  22
ATOM     22  C   UNL     1       1.409   7.991  20.784  0.00  0.00    +0.000 C 
ATOM     23  F   UNL     1       2.165   8.448  21.821  0.00  0.00    +0.000 F 
ATOM     24  F   UNL     1       1.371   9.002  19.876  0.00  0.00    +0.000 F 
ATOM     25  F   UNL     1       0.144   7.869  21.269  0.00  0.00    +0.000 F 
ENDBRANCH  16  22
ENDBRANCH   5  12
BRANCH   1  26
ATOM     26  C   UNL     1       7.382   4.270  12.602  0.00  0.00    +0.000 C 
BRANCH  26  27
ATOM     27  C   UNL     1       6.358   3.729  11.604  0.00  0.00    +0.000 C 
BRANCH  27  29
ATOM     28  C   UNL     1       6.918   1.377  10.944  0.00  0.00    +0.000 C 
ATOM     29  C   UNL     1       6.050   2.251  11.837  0.00  0.00    +0.000 C 
ENDBRANCH  27  29
ENDBRANCH  26  27
ENDBRANCH   1  26
TORSDOF 6
ENDMDL
MODEL 6
REMARK VINA RESULT:      -8.9      0.728      1.207
REMARK  Name = 
REMARK  7 active torsions:
REMARK  status: ('A' for Active; 'I' for Inactive)
REMARK    1  A    between atoms: C_1  and  C_2
REMARK    2  A    between atoms: C_2  and  C_3
REMARK    3  A    between atoms: C_3  and  C_4
REMARK    4  A    between atoms: C_4  and  C_5
REMARK    5  A    between atoms: C_9  and  C_10
REMARK    6  A    between atoms: C_12  and  C_13
REMARK    7  A    between atoms: C_18  and  C_19
REMARK                            x       y       z     vdW  Elec       q    Type
REMARK                         _______ _______ _______ _____ _____    ______ ____
ROOT
ATOM      1  C   UNL     1       6.574   4.424  13.975  0.00  0.00    +0.000 A 
ATOM      2  C   UNL     1       5.417   3.892  14.599  0.00  0.00    +0.000 A 
ATOM      3  C   UNL     1       5.281   4.617  15.753  0.00  0.00    +0.000 A 
ATOM      4  N   UNL     1       4.373   4.634  16.753  0.00  0.00    +0.000 N 
ATOM      5  C   UNL     1       4.490   5.528  17.803  0.00  0.00    +0.000 A 
ATOM      6  C   UNL     1       5.508   6.401  17.902  0.00  0.00    +0.000 A 
ATOM      7  C   UNL     1       6.557   6.426  16.841  0.00  0.00    +0.000 A 
ATOM      8  O   UNL     1       7.514   7.190  16.859  0.00  0.00    +0.000 OA
ATOM      9  N   UNL     1       6.345   5.501  15.802  0.00  0.00    +0.000 N 
ATOM     10  N   UNL     1       7.146   5.391  14.709  0.00  0.00    +0.000 NA
ATOM     11  H   UNL     1       3.543   4.046  16.741  0.00  0.00    +0.000 HD
ENDROOT
BRANCH   5  12
ATOM     12  C   UNL     1       3.427   5.513  18.819  0.00  0.00    +0.000 A 
ATOM     13  C   UNL     1       2.933   6.721  19.330  0.00  0.00    +0.000 A 
ATOM     14  C   UNL     1       1.906   6.731  20.287  0.00  0.00    +0.000 A 
ATOM     15  C   UNL     1       1.376   5.507  20.727  0.00  0.00    +0.000 A 
ATOM     16  C   UNL     1       1.856   4.285  20.226  0.00  0.00    +0.000 A 
ATOM     17  C   UNL     1       2.886   4.301  19.270  0.00  0.00    +0.000 A 
BRANCH  14  18
ATOM     18  C   UNL     1       1.365   8.030  20.839  0.00  0.00    +0.000 C 
ATOM     19  F   UNL     1       2.079   8.512  21.893  0.00  0.00    +0.000 F 
ATOM     20  F   UNL     1       1.355   9.022  19.907  0.00  0.00    +0.000 F 
ATOM     21  F   UNL     1       0.081   7.911  21.277  0.00  0.00    +0.000 F 
ENDBRANCH  14  18
BRANCH  16  22
ATOM     22  C   UNL     1       1.273   2.973  20.700  0.00  0.00    +0.000 C 
ATOM     23  F   UNL     1       2.055   1.897  20.406  0.00  0.00    +0.000 F 
ATOM     24  F   UNL     1       1.090   2.944  22.048  0.00  0.00    +0.000 F 
ATOM     25  F   UNL     1       0.058   2.713  20.147  0.00  0.00    +0.000 F 
ENDBRANCH  16  22
ENDBRANCH   5  12
BRANCH   1  26
ATOM     26  C   UNL     1       7.148   4.037  12.649  0.00  0.00    +0.000 C 
BRANCH  26  27
ATOM     27  C   UNL     1       6.223   3.109  11.862  0.00  0.00    +0.000 C 
BRANCH  27  29
ATOM     28  C   UNL     1       3.825   2.911  11.157  0.00  0.00    +0.000 C 
ATOM     29  C   UNL     1       5.016   3.848  11.286  0.00  0.00    +0.000 C 
ENDBRANCH  27  29
ENDBRANCH  26  27
ENDBRANCH   1  26
TORSDOF 6
ENDMDL
MODEL 7
REMARK VINA RESULT:      -8.9      0.378      3.342
REMARK  Name = 
REMARK  7 active torsions:
REMARK  status: ('A' for Active; 'I' for Inactive)
REMARK    1  A    between atoms: C_1  and  C_2
REMARK    2  A    between atoms: C_2  and  C_3
REMARK    3  A    between atoms: C_3  and  C_4
REMARK    4  A    between atoms: C_4  and  C_5
REMARK    5  A    between atoms: C_9  and  C_10
REMARK    6  A    between atoms: C_12  and  C_13
REMARK    7  A    between atoms: C_18  and  C_19
REMARK                            x       y       z     vdW  Elec       q    Type
REMARK                         _______ _______ _______ _____ _____    ______ ____
ROOT
ATOM      1  C   UNL     1       6.630   4.548  13.670  0.00  0.00    +0.000 A 
ATOM      2  C   UNL     1       5.451   4.058  14.288  0.00  0.00    +0.000 A 
ATOM      3  C   UNL     1       5.422   4.667  15.514  0.00  0.00    +0.000 A 
ATOM      4  N   UNL     1       4.555   4.660  16.549  0.00  0.00    +0.000 N 
ATOM      5  C   UNL     1       4.790   5.425  17.678  0.00  0.00    +0.000 A 
ATOM      6  C   UNL     1       5.887   6.190  17.819  0.00  0.00    +0.000 A 
ATOM      7  C   UNL     1       6.896   6.234  16.721  0.00  0.00    +0.000 A 
ATOM      8  O   UNL     1       7.919   6.904  16.773  0.00  0.00    +0.000 OA
ATOM      9  N   UNL     1       6.564   5.444  15.604  0.00  0.00    +0.000 N 
ATOM     10  N   UNL     1       7.313   5.379  14.472  0.00  0.00    +0.000 NA
ATOM     11  H   UNL     1       3.674   4.151  16.515  0.00  0.00    +0.000 HD
ENDROOT
BRANCH   5  12
ATOM     12  C   UNL     1       3.765   5.398  18.733  0.00  0.00    +0.000 A 
ATOM     13  C   UNL     1       3.461   4.192  19.379  0.00  0.00    +0.000 A 
ATOM     14  C   UNL     1       2.500   4.146  20.401  0.00  0.00    +0.000 A 
ATOM     15  C   UNL     1       1.845   5.332  20.770  0.00  0.00    +0.000 A 
ATOM     16  C   UNL     1       2.136   6.552  20.136  0.00  0.00    +0.000 A 
ATOM     17  C   UNL     1       3.101   6.572  19.114  0.00  0.00    +0.000 A 
BRANCH  14  18
ATOM     18  C   UNL     1       2.170   2.850  21.105  0.00  0.00    +0.000 C 
ATOM     19  F   UNL     1       3.269   2.164  21.522  0.00  0.00    +0.000 F 
ATOM     20  F   UNL     1       1.407   3.045  22.214  0.00  0.00    +0.000 F 
ATOM     21  F   UNL     1       1.471   1.993  20.312  0.00  0.00    +0.000 F 
ENDBRANCH  14  18
BRANCH  16  22
ATOM     22  C   UNL     1       1.431   7.825  20.547  0.00  0.00    +0.000 C 
ATOM     23  F   UNL     1       1.265   8.705  19.521  0.00  0.00    +0.000 F 
ATOM     24  F   UNL     1       0.186   7.590  21.042  0.00  0.00    +0.000 F 
ATOM     25  F   UNL     1       2.103   8.503  21.516  0.00  0.00    +0.000 F 
ENDBRANCH  16  22
ENDBRANCH   5  12
BRANCH   1  26
ATOM     26  C   UNL     1       7.119   4.253  12.288  0.00  0.00    +0.000 C 
BRANCH  26  27
ATOM     27  C   UNL     1       7.222   2.752  12.014  0.00  0.00    +0.000 C 
BRANCH  27  29
ATOM     28  C   UNL     1       6.149   0.740  10.973  0.00  0.00    +0.000 C 
ATOM     29  C   UNL     1       5.950   2.192  11.379  0.00  0.00    +0.000 C 
ENDBRANCH  27  29
ENDBRANCH  26  27
ENDBRANCH   1  26
TORSDOF 6
ENDMDL
MODEL 8
REMARK VINA RESULT:      -8.8      4.339      8.793
REMARK  Name = 
REMARK  7 active torsions:
REMARK  status: ('A' for Active; 'I' for Inactive)
REMARK    1  A    between atoms: C_1  and  C_2
REMARK    2  A    between atoms: C_2  and  C_3
REMARK    3  A    between atoms: C_3  and  C_4
REMARK    4  A    between atoms: C_4  and  C_5
REMARK    5  A    between atoms: C_9  and  C_10
REMARK    6  A    between atoms: C_12  and  C_13
REMARK    7  A    between atoms: C_18  and  C_19
REMARK                            x       y       z     vdW  Elec       q    Type
REMARK                         _______ _______ _______ _____ _____    ______ ____
ROOT
ATOM      1  C   UNL     1       0.397   9.730  21.414  0.00  0.00    +0.000 A 
ATOM      2  C   UNL     1       0.882   8.414  21.621  0.00  0.00    +0.000 A 
ATOM      3  C   UNL     1       1.511   8.088  20.448  0.00  0.00    +0.000 A 
ATOM      4  N   UNL     1       2.204   7.012  20.019  0.00  0.00    +0.000 N 
ATOM      5  C   UNL     1       2.764   6.986  18.754  0.00  0.00    +0.000 A 
ATOM      6  C   UNL     1       2.634   8.002  17.883  0.00  0.00    +0.000 A 
ATOM      7  C   UNL     1       1.865   9.217  18.284  0.00  0.00    +0.000 A 
ATOM      8  O   UNL     1       1.702  10.182  17.549  0.00  0.00    +0.000 OA
ATOM      9  N   UNL     1       1.353   9.165  19.594  0.00  0.00    +0.000 N 
ATOM     10  N   UNL     1       0.670  10.183  20.181  0.00  0.00    +0.000 NA
ATOM     11  H   UNL     1       2.398   6.215  20.623  0.00  0.00    +0.000 HD
ENDROOT
BRANCH   5  12
ATOM     12  C   UNL     1       3.549   5.796  18.391  0.00  0.00    +0.000 A 
ATOM     13  C   UNL     1       2.968   4.523  18.480  0.00  0.00    +0.000 A 
ATOM     14  C   UNL     1       3.692   3.375  18.122  0.00  0.00    +0.000 A 
ATOM     15  C   UNL     1       5.013   3.520  17.669  0.00  0.00    +0.000 A 
ATOM     16  C   UNL     1       5.614   4.787  17.571  0.00  0.00    +0.000 A 
ATOM     17  C   UNL     1       4.869   5.921  17.937  0.00  0.00    +0.000 A 
BRANCH  14  18
ATOM     18  C   UNL     1       3.070   2.000  18.211  0.00  0.00    +0.000 C 
ATOM     19  F   UNL     1       2.212   1.726  17.191  0.00  0.00    +0.000 F 
ATOM     20  F   UNL     1       4.003   1.010  18.193  0.00  0.00    +0.000 F 
ATOM     21  F   UNL     1       2.358   1.828  19.358  0.00  0.00    +0.000 F 
ENDBRANCH  14  18
BRANCH  16  22
ATOM     22  C   UNL     1       7.034   4.933  17.073  0.00  0.00    +0.000 C 
ATOM     23  F   UNL     1       7.407   6.229  16.881  0.00  0.00    +0.000 F 
ATOM     24  F   UNL     1       7.942   4.408  17.940  0.00  0.00    +0.000 F 
ATOM     25  F   UNL     1       7.237   4.305  15.884  0.00  0.00    +0.000 F 
ENDBRANCH  16  22
ENDBRANCH   5  12
BRANCH   1  26
ATOM     26  C   UNL     1      -0.319  10.597  22.401  0.00  0.00    +0.000 C 
BRANCH  26  27
ATOM     27  C   UNL     1      -0.363  12.062  21.965  0.00  0.00    +0.000 C 
BRANCH  27  29
ATOM     28  C   UNL     1      -2.540  12.008  23.207  0.00  0.00    +0.000 C 
ATOM     29  C   UNL     1      -1.366  12.877  22.780  0.00  0.00    +0.000 C 
ENDBRANCH  27  29
ENDBRANCH  26  27
ENDBRANCH   1  26
TORSDOF 6
ENDMDL
MODEL 9
REMARK VINA RESULT:      -8.7      4.319      8.964
REMARK  Name = 
REMARK  7 active torsions:
REMARK  status: ('A' for Active; 'I' for Inactive)
REMARK    1  A    between atoms: C_1  and  C_2
REMARK    2  A    between atoms: C_2  and  C_3
REMARK    3  A    between atoms: C_3  and  C_4
REMARK    4  A    between atoms: C_4  and  C_5
REMARK    5  A    between atoms: C_9  and  C_10
REMARK    6  A    between atoms: C_12  and  C_13
REMARK    7  A    between atoms: C_18  and  C_19
REMARK                            x       y       z     vdW  Elec       q    Type
REMARK                         _______ _______ _______ _____ _____    ______ ____
ROOT
ATOM      1  C   UNL     1       0.355   9.720  21.611  0.00  0.00    +0.000 A 
ATOM      2  C   UNL     1       0.831   8.388  21.704  0.00  0.00    +0.000 A 
ATOM      3  C   UNL     1       1.436   8.150  20.499  0.00  0.00    +0.000 A 
ATOM      4  N   UNL     1       2.112   7.106  19.974  0.00  0.00    +0.000 N 
ATOM      5  C   UNL     1       2.650   7.176  18.701  0.00  0.00    +0.000 A 
ATOM      6  C   UNL     1       2.516   8.259  17.916  0.00  0.00    +0.000 A 
ATOM      7  C   UNL     1       1.766   9.444  18.425  0.00  0.00    +0.000 A 
ATOM      8  O   UNL     1       1.600  10.467  17.772  0.00  0.00    +0.000 OA
ATOM      9  N   UNL     1       1.275   9.294  19.735  0.00  0.00    +0.000 N 
ATOM     10  N   UNL     1       0.612  10.267  20.413  0.00  0.00    +0.000 NA
ATOM     11  H   UNL     1       2.308   6.263  20.509  0.00  0.00    +0.000 HD
ENDROOT
BRANCH   5  12
ATOM     12  C   UNL     1       3.417   6.011  18.231  0.00  0.00    +0.000 A 
ATOM     13  C   UNL     1       2.909   4.719  18.420  0.00  0.00    +0.000 A 
ATOM     14  C   UNL     1       3.614   3.594  17.965  0.00  0.00    +0.000 A 
ATOM     15  C   UNL     1       4.843   3.784  17.312  0.00  0.00    +0.000 A 
ATOM     16  C   UNL     1       5.370   5.071  17.111  0.00  0.00    +0.000 A 
ATOM     17  C   UNL     1       4.645   6.181  17.578  0.00  0.00    +0.000 A 
BRANCH  14  18
ATOM     18  C   UNL     1       3.069   2.198  18.160  0.00  0.00    +0.000 C 
ATOM     19  F   UNL     1       2.411   2.033  19.339  0.00  0.00    +0.000 F 
ATOM     20  F   UNL     1       2.188   1.847  17.185  0.00  0.00    +0.000 F 
ATOM     21  F   UNL     1       4.049   1.253  18.142  0.00  0.00    +0.000 F 
ENDBRANCH  14  18
BRANCH  16  22
ATOM     22  C   UNL     1       6.689   5.264  16.398  0.00  0.00    +0.000 C 
ATOM     23  F   UNL     1       7.570   4.246  16.611  0.00  0.00    +0.000 F 
ATOM     24  F   UNL     1       6.540   5.352  15.049  0.00  0.00    +0.000 F 
ATOM     25  F   UNL     1       7.329   6.399  16.785  0.00  0.00    +0.000 F 
ENDBRANCH  16  22
ENDBRANCH   5  12
BRANCH   1  26
ATOM     26  C   UNL     1      -0.336  10.513  22.675  0.00  0.00    +0.000 C 
BRANCH  26  27
ATOM     27  C   UNL     1      -1.101  11.709  22.108  0.00  0.00    +0.000 C 
BRANCH  27  29
ATOM     28  C   UNL     1      -3.102  12.268  23.510  0.00  0.00    +0.000 C 
ATOM     29  C   UNL     1      -1.653  12.615  23.208  0.00  0.00    +0.000 C 
ENDBRANCH  27  29
ENDBRANCH  26  27
ENDBRANCH   1  26
TORSDOF 6
ENDMDL
