MODEL 1
REMARK VINA RESULT:      -6.8      0.000      0.000
REMARK  Name = 
REMARK  13 active torsions:
REMARK  status: ('A' for Active; 'I' for Inactive)
REMARK    1  A    between atoms: C_2  and  C_3
REMARK    2  A    between atoms: C_3  and  C_4
REMARK    3  A    between atoms: C_3  and  N_13
REMARK    4  A    between atoms: C_4  and  O_5
REMARK    5  A    between atoms: O_5  and  C_6
REMARK    6  A    between atoms: C_6  and  C_7
REMARK    7  A    between atoms: N_13  and  S_21
REMARK    8  A    between atoms: C_14  and  O_16
REMARK    9  A    between atoms: O_16  and  C_17
REMARK   10  A    between atoms: C_17  and  C_18
REMARK   11  A    between atoms: C_17  and  C_19
REMARK   12  A    between atoms: C_17  and  C_20
REMARK   13  A    between atoms: S_21  and  C_24
REMARK                            x       y       z     vdW  Elec       q    Type
REMARK                         _______ _______ _______ _____ _____    ______ ____
ROOT
ATOM      1  N   UNL     1      -0.046  11.019  18.940  0.00  0.00    +0.000 N 
ATOM      2  C   UNL     1      -0.948  10.525  17.983  0.00  0.00    +0.000 C 
ATOM      3  O   UNL     1      -0.777   9.423  17.472  0.00  0.00    +0.000 OA
ENDROOT
BRANCH   1   4
ATOM      4  S   UNL     1       0.178  12.682  19.185  0.00  0.00    +0.000 S 
ATOM      5  O   UNL     1       1.550  12.984  19.524  0.00  0.00    +0.000 OA
ATOM      6  O   UNL     1      -0.438  13.355  18.064  0.00  0.00    +0.000 OA
BRANCH   4   7
ATOM      7  C   UNL     1      -0.724  13.008  20.700  0.00  0.00    +0.000 A 
ATOM      8  C   UNL     1      -1.954  12.329  20.846  0.00  0.00    +0.000 A 
ATOM      9  C   UNL     1      -2.637  12.335  22.064  0.00  0.00    +0.000 A 
ATOM     10  C   UNL     1      -2.081  12.982  23.159  0.00  0.00    +0.000 A 
ATOM     11  C   UNL     1      -0.883  13.683  23.015  0.00  0.00    +0.000 A 
ATOM     12  C   UNL     1      -0.214  13.733  21.780  0.00  0.00    +0.000 A 
ATOM     13 BR   UNL     1       1.312  14.858  21.747  0.00  0.00    +0.000 Br
ENDBRANCH   4   7
ENDBRANCH   1   4
BRANCH   1  14
ATOM     14  C   UNL     1       0.883  10.132  19.688  0.00  0.00    +0.000 C 
BRANCH  14  16
ATOM     15  C   UNL     1       0.131   9.510  22.039  0.00  0.00    +0.000 C 
ATOM     16  C   UNL     1       0.070   9.345  20.709  0.00  0.00    +0.000 C 
ENDBRANCH  14  16
BRANCH  14  17
ATOM     17  C   UNL     1       1.691   9.206  18.743  0.00  0.00    +0.000 C 
BRANCH  17  18
ATOM     18  O   UNL     1       2.208   8.034  19.388  0.00  0.00    +0.000 OA
BRANCH  18  19
ATOM     19  C   UNL     1       2.591   7.012  18.470  0.00  0.00    +0.000 C 
BRANCH  19  20
ATOM     20  C   UNL     1       2.014   5.693  18.881  0.00  0.00    +0.000 A 
ATOM     21  C   UNL     1       1.868   4.671  17.930  0.00  0.00    +0.000 A 
ATOM     22  C   UNL     1       1.405   3.418  18.312  0.00  0.00    +0.000 A 
ATOM     23  C   UNL     1       1.092   3.173  19.648  0.00  0.00    +0.000 A 
ATOM     24  C   UNL     1       1.250   4.177  20.603  0.00  0.00    +0.000 A 
ATOM     25  C   UNL     1       1.715   5.433  20.221  0.00  0.00    +0.000 A 
ENDBRANCH  19  20
ENDBRANCH  18  19
ENDBRANCH  17  18
ENDBRANCH  14  17
ENDBRANCH   1  14
BRANCH   2  26
ATOM     26  O   UNL     1      -1.984  11.339  17.682  0.00  0.00    +0.000 OA
BRANCH  26  27
ATOM     27  C   UNL     1      -3.242  10.853  17.158  0.00  0.00    +0.000 C 
ATOM     28  C   UNL     1      -3.587   9.457  17.687  0.00  0.00    +0.000 C 
ATOM     29  C   UNL     1      -4.298  11.844  17.675  0.00  0.00    +0.000 C 
ATOM     30  C   UNL     1      -3.234  10.909  15.628  0.00  0.00    +0.000 C 
ENDBRANCH  26  27
ENDBRANCH   2  26
TORSDOF 10
ENDMDL
MODEL 2
REMARK VINA RESULT:      -6.8      1.793      2.787
REMARK  Name = 
REMARK  13 active torsions:
REMARK  status: ('A' for Active; 'I' for Inactive)
REMARK    1  A    between atoms: C_2  and  C_3
REMARK    2  A    between atoms: C_3  and  C_4
REMARK    3  A    between atoms: C_3  and  N_13
REMARK    4  A    between atoms: C_4  and  O_5
REMARK    5  A    between atoms: O_5  and  C_6
REMARK    6  A    between atoms: C_6  and  C_7
REMARK    7  A    between atoms: N_13  and  S_21
REMARK    8  A    between atoms: C_14  and  O_16
REMARK    9  A    between atoms: O_16  and  C_17
REMARK   10  A    between atoms: C_17  and  C_18
REMARK   11  A    between atoms: C_17  and  C_19
REMARK   12  A    between atoms: C_17  and  C_20
REMARK   13  A    between atoms: S_21  and  C_24
REMARK                            x       y       z     vdW  Elec       q    Type
REMARK                         _______ _______ _______ _____ _____    ______ ____
ROOT
ATOM      1  N   UNL     1      -0.290  10.911  19.657  0.00  0.00    +0.000 N 
ATOM      2  C   UNL     1      -0.806  10.651  18.376  0.00  0.00    +0.000 C 
ATOM      3  O   UNL     1      -0.333   9.760  17.679  0.00  0.00    +0.000 OA
ENDROOT
BRANCH   1   4
ATOM      4  S   UNL     1      -0.403  12.444  20.373  0.00  0.00    +0.000 S 
ATOM      5  O   UNL     1      -1.563  13.163  19.896  0.00  0.00    +0.000 OA
ATOM      6  O   UNL     1      -0.225  12.253  21.795  0.00  0.00    +0.000 OA
BRANCH   4   7
ATOM      7  C   UNL     1       0.981  13.340  19.670  0.00  0.00    +0.000 A 
ATOM      8  C   UNL     1       1.760  12.633  18.727  0.00  0.00    +0.000 A 
ATOM      9  C   UNL     1       2.724  13.288  17.959  0.00  0.00    +0.000 A 
ATOM     10  C   UNL     1       2.894  14.660  18.092  0.00  0.00    +0.000 A 
ATOM     11  C   UNL     1       2.153  15.359  19.045  0.00  0.00    +0.000 A 
ATOM     12  C   UNL     1       1.218  14.702  19.866  0.00  0.00    +0.000 A 
ATOM     13 BR   UNL     1       0.425  15.793  21.198  0.00  0.00    +0.000 Br
ENDBRANCH   4   7
ENDBRANCH   1   4
BRANCH   1  14
ATOM     14  C   UNL     1       0.522   9.915  20.402  0.00  0.00    +0.000 C 
BRANCH  14  16
ATOM     15  C   UNL     1      -0.491   8.880  22.495  0.00  0.00    +0.000 C 
ATOM     16  C   UNL     1      -0.428   8.997  21.160  0.00  0.00    +0.000 C 
ENDBRANCH  14  16
BRANCH  14  17
ATOM     17  C   UNL     1       1.478   9.127  19.469  0.00  0.00    +0.000 C 
BRANCH  17  18
ATOM     18  O   UNL     1       1.919   7.878  20.017  0.00  0.00    +0.000 OA
BRANCH  18  19
ATOM     19  C   UNL     1       2.544   7.032  19.054  0.00  0.00    +0.000 C 
BRANCH  19  20
ATOM     20  C   UNL     1       2.077   5.619  19.213  0.00  0.00    +0.000 A 
ATOM     21  C   UNL     1       1.667   5.159  20.474  0.00  0.00    +0.000 A 
ATOM     22  C   UNL     1       1.161   3.873  20.621  0.00  0.00    +0.000 A 
ATOM     23  C   UNL     1       1.053   3.040  19.510  0.00  0.00    +0.000 A 
ATOM     24  C   UNL     1       1.442   3.494  18.250  0.00  0.00    +0.000 A 
ATOM     25  C   UNL     1       1.949   4.782  18.100  0.00  0.00    +0.000 A 
ENDBRANCH  19  20
ENDBRANCH  18  19
ENDBRANCH  17  18
ENDBRANCH  14  17
ENDBRANCH   1  14
BRANCH   2  26
ATOM     26  O   UNL     1      -1.833  11.441  17.988  0.00  0.00    +0.000 OA
BRANCH  26  27
ATOM     27  C   UNL     1      -2.995  10.937  17.290  0.00  0.00    +0.000 C 
ATOM     28  C   UNL     1      -2.782  10.894  15.773  0.00  0.00    +0.000 C 
ATOM     29  C   UNL     1      -3.173   9.497  17.798  0.00  0.00    +0.000 C 
ATOM     30  C   UNL     1      -4.236  11.744  17.680  0.00  0.00    +0.000 C 
ENDBRANCH  26  27
ENDBRANCH   2  26
TORSDOF 10
ENDMDL
MODEL 3
REMARK VINA RESULT:      -6.6      2.397      3.996
REMARK  Name = 
REMARK  13 active torsions:
REMARK  status: ('A' for Active; 'I' for Inactive)
REMARK    1  A    between atoms: C_2  and  C_3
REMARK    2  A    between atoms: C_3  and  C_4
REMARK    3  A    between atoms: C_3  and  N_13
REMARK    4  A    between atoms: C_4  and  O_5
REMARK    5  A    between atoms: O_5  and  C_6
REMARK    6  A    between atoms: C_6  and  C_7
REMARK    7  A    between atoms: N_13  and  S_21
REMARK    8  A    between atoms: C_14  and  O_16
REMARK    9  A    between atoms: O_16  and  C_17
REMARK   10  A    between atoms: C_17  and  C_18
REMARK   11  A    between atoms: C_17  and  C_19
REMARK   12  A    between atoms: C_17  and  C_20
REMARK   13  A    between atoms: S_21  and  C_24
REMARK                            x       y       z     vdW  Elec       q    Type
REMARK                         _______ _______ _______ _____ _____    ______ ____
ROOT
ATOM      1  N   UNL     1      -0.090  11.765  21.111  0.00  0.00    +0.000 N 
ATOM      2  C   UNL     1       0.794  12.767  20.675  0.00  0.00    +0.000 C 
ATOM      3  O   UNL     1       1.798  12.480  20.031  0.00  0.00    +0.000 OA
ENDROOT
BRANCH   1   4
ATOM      4  S   UNL     1      -1.063  11.966  22.485  0.00  0.00    +0.000 S 
ATOM      5  O   UNL     1      -1.350  10.697  23.116  0.00  0.00    +0.000 OA
ATOM      6  O   UNL     1      -0.467  13.024  23.268  0.00  0.00    +0.000 OA
BRANCH   4   7
ATOM      7  C   UNL     1      -2.641  12.480  21.810  0.00  0.00    +0.000 A 
ATOM      8  C   UNL     1      -2.750  12.453  20.402  0.00  0.00    +0.000 A 
ATOM      9  C   UNL     1      -3.986  12.624  19.775  0.00  0.00    +0.000 A 
ATOM     10  C   UNL     1      -5.131  12.782  20.544  0.00  0.00    +0.000 A 
ATOM     11  C   UNL     1      -5.027  12.844  21.934  0.00  0.00    +0.000 A 
ATOM     12  C   UNL     1      -3.782  12.730  22.576  0.00  0.00    +0.000 A 
ATOM     13 BR   UNL     1      -3.829  12.992  24.454  0.00  0.00    +0.000 Br
ENDBRANCH   4   7
ENDBRANCH   1   4
BRANCH   1  14
ATOM     14  C   UNL     1      -0.120  10.412  20.498  0.00  0.00    +0.000 C 
BRANCH  14  16
ATOM     15  C   UNL     1      -1.061  10.106  18.153  0.00  0.00    +0.000 C 
ATOM     16  C   UNL     1      -0.118  10.575  18.983  0.00  0.00    +0.000 C 
ENDBRANCH  14  16
BRANCH  14  17
ATOM     17  C   UNL     1       1.050   9.522  20.993  0.00  0.00    +0.000 C 
BRANCH  17  18
ATOM     18  O   UNL     1       0.918   8.142  20.631  0.00  0.00    +0.000 OA
BRANCH  18  19
ATOM     19  C   UNL     1       2.168   7.506  20.375  0.00  0.00    +0.000 C 
BRANCH  19  20
ATOM     20  C   UNL     1       1.957   6.143  19.793  0.00  0.00    +0.000 A 
ATOM     21  C   UNL     1       1.410   5.124  20.588  0.00  0.00    +0.000 A 
ATOM     22  C   UNL     1       1.138   3.876  20.040  0.00  0.00    +0.000 A 
ATOM     23  C   UNL     1       1.405   3.638  18.693  0.00  0.00    +0.000 A 
ATOM     24  C   UNL     1       1.933   4.650  17.891  0.00  0.00    +0.000 A 
ATOM     25  C   UNL     1       2.205   5.901  18.439  0.00  0.00    +0.000 A 
ENDBRANCH  19  20
ENDBRANCH  18  19
ENDBRANCH  17  18
ENDBRANCH  14  17
ENDBRANCH   1  14
BRANCH   2  26
ATOM     26  O   UNL     1       0.457  14.031  21.015  0.00  0.00    +0.000 OA
BRANCH  26  27
ATOM     27  C   UNL     1       0.135  15.050  20.041  0.00  0.00    +0.000 C 
ATOM     28  C   UNL     1       1.327  15.970  19.753  0.00  0.00    +0.000 C 
ATOM     29  C   UNL     1      -0.207  14.280  18.756  0.00  0.00    +0.000 C 
ATOM     30  C   UNL     1      -1.106  15.830  20.483  0.00  0.00    +0.000 C 
ENDBRANCH  26  27
ENDBRANCH   2  26
TORSDOF 10
ENDMDL
MODEL 4
REMARK VINA RESULT:      -6.5      4.075      8.732
REMARK  Name = 
REMARK  13 active torsions:
REMARK  status: ('A' for Active; 'I' for Inactive)
REMARK    1  A    between atoms: C_2  and  C_3
REMARK    2  A    between atoms: C_3  and  C_4
REMARK    3  A    between atoms: C_3  and  N_13
REMARK    4  A    between atoms: C_4  and  O_5
REMARK    5  A    between atoms: O_5  and  C_6
REMARK    6  A    between atoms: C_6  and  C_7
REMARK    7  A    between atoms: N_13  and  S_21
REMARK    8  A    between atoms: C_14  and  O_16
REMARK    9  A    between atoms: O_16  and  C_17
REMARK   10  A    between atoms: C_17  and  C_18
REMARK   11  A    between atoms: C_17  and  C_19
REMARK   12  A    between atoms: C_17  and  C_20
REMARK   13  A    between atoms: S_21  and  C_24
REMARK                            x       y       z     vdW  Elec       q    Type
REMARK                         _______ _______ _______ _____ _____    ______ ____
ROOT
ATOM      1  N   UNL     1       3.132   5.948  17.856  0.00  0.00    +0.000 N 
ATOM      2  C   UNL     1       4.404   6.307  17.379  0.00  0.00    +0.000 C 
ATOM      3  O   UNL     1       4.659   7.472  17.091  0.00  0.00    +0.000 OA
ENDROOT
BRANCH   1   4
ATOM      4  S   UNL     1       2.506   4.386  17.648  0.00  0.00    +0.000 S 
ATOM      5  O   UNL     1       1.153   4.425  17.139  0.00  0.00    +0.000 OA
ATOM      6  O   UNL     1       3.507   3.627  16.934  0.00  0.00    +0.000 OA
BRANCH   4   7
ATOM      7  C   UNL     1       2.320   3.781  19.325  0.00  0.00    +0.000 A 
ATOM      8  C   UNL     1       0.998   3.718  19.817  0.00  0.00    +0.000 A 
ATOM      9  C   UNL     1       0.710   3.069  21.019  0.00  0.00    +0.000 A 
ATOM     10  C   UNL     1       1.729   2.440  21.721  0.00  0.00    +0.000 A 
ATOM     11  C   UNL     1       3.043   2.526  21.260  0.00  0.00    +0.000 A 
ATOM     12  C   UNL     1       3.355   3.226  20.081  0.00  0.00    +0.000 A 
ATOM     13 BR   UNL     1       5.208   3.359  19.703  0.00  0.00    +0.000 Br
ENDBRANCH   4   7
ENDBRANCH   1   4
BRANCH   1  14
ATOM     14  C   UNL     1       2.190   6.943  18.431  0.00  0.00    +0.000 C 
BRANCH  14  16
ATOM     15  C   UNL     1       1.506   7.337  20.851  0.00  0.00    +0.000 C 
ATOM     16  C   UNL     1       2.430   7.012  19.934  0.00  0.00    +0.000 C 
ENDBRANCH  14  16
BRANCH  14  17
ATOM     17  C   UNL     1       2.324   8.331  17.752  0.00  0.00    +0.000 C 
BRANCH  17  18
ATOM     18  O   UNL     1       1.066   8.964  17.482  0.00  0.00    +0.000 OA
BRANCH  18  19
ATOM     19  C   UNL     1       0.787  10.053  18.359  0.00  0.00    +0.000 C 
BRANCH  19  20
ATOM     20  C   UNL     1      -0.665  10.415  18.303  0.00  0.00    +0.000 A 
ATOM     21  C   UNL     1      -1.166  11.417  19.149  0.00  0.00    +0.000 A 
ATOM     22  C   UNL     1      -2.494  11.815  19.055  0.00  0.00    +0.000 A 
ATOM     23  C   UNL     1      -3.330  11.221  18.112  0.00  0.00    +0.000 A 
ATOM     24  C   UNL     1      -2.837  10.236  17.256  0.00  0.00    +0.000 A 
ATOM     25  C   UNL     1      -1.506   9.837  17.348  0.00  0.00    +0.000 A 
ENDBRANCH  19  20
ENDBRANCH  18  19
ENDBRANCH  17  18
ENDBRANCH  14  17
ENDBRANCH   1  14
BRANCH   2  26
ATOM     26  O   UNL     1       5.293   5.295  17.266  0.00  0.00    +0.000 OA
BRANCH  26  27
ATOM     27  C   UNL     1       6.671   5.495  16.876  0.00  0.00    +0.000 C 
ATOM     28  C   UNL     1       7.603   4.444  17.489  0.00  0.00    +0.000 C 
ATOM     29  C   UNL     1       6.682   5.323  15.348  0.00  0.00    +0.000 C 
ATOM     30  C   UNL     1       7.111   6.924  17.204  0.00  0.00    +0.000 C 
ENDBRANCH  26  27
ENDBRANCH   2  26
TORSDOF 10
ENDMDL
MODEL 5
REMARK VINA RESULT:      -6.4      2.498      3.988
REMARK  Name = 
REMARK  13 active torsions:
REMARK  status: ('A' for Active; 'I' for Inactive)
REMARK    1  A    between atoms: C_2  and  C_3
REMARK    2  A    between atoms: C_3  and  C_4
REMARK    3  A    between atoms: C_3  and  N_13
REMARK    4  A    between atoms: C_4  and  O_5
REMARK    5  A    between atoms: O_5  and  C_6
REMARK    6  A    between atoms: C_6  and  C_7
REMARK    7  A    between atoms: N_13  and  S_21
REMARK    8  A    between atoms: C_14  and  O_16
REMARK    9  A    between atoms: O_16  and  C_17
REMARK   10  A    between atoms: C_17  and  C_18
REMARK   11  A    between atoms: C_17  and  C_19
REMARK   12  A    between atoms: C_17  and  C_20
REMARK   13  A    between atoms: S_21  and  C_24
REMARK                            x       y       z     vdW  Elec       q    Type
REMARK                         _______ _______ _______ _____ _____    ______ ____
ROOT
ATOM      1  N   UNL     1      -0.038  12.421  20.747  0.00  0.00    +0.000 N 
ATOM      2  C   UNL     1      -1.406  12.525  20.443  0.00  0.00    +0.000 C 
ATOM      3  O   UNL     1      -1.912  11.813  19.582  0.00  0.00    +0.000 OA
ENDROOT
BRANCH   1   4
ATOM      4  S   UNL     1       0.840  13.726  21.380  0.00  0.00    +0.000 S 
ATOM      5  O   UNL     1       0.217  14.249  22.575  0.00  0.00    +0.000 OA
ATOM      6  O   UNL     1       2.224  13.312  21.430  0.00  0.00    +0.000 OA
BRANCH   4   7
ATOM      7  C   UNL     1       0.603  15.021  20.165  0.00  0.00    +0.000 A 
ATOM      8  C   UNL     1      -0.343  16.016  20.498  0.00  0.00    +0.000 A 
ATOM      9  C   UNL     1      -0.458  17.180  19.736  0.00  0.00    +0.000 A 
ATOM     10  C   UNL     1       0.396  17.385  18.661  0.00  0.00    +0.000 A 
ATOM     11  C   UNL     1       1.311  16.393  18.305  0.00  0.00    +0.000 A 
ATOM     12  C   UNL     1       1.398  15.190  19.029  0.00  0.00    +0.000 A 
ATOM     13 BR   UNL     1       2.590  13.909  18.300  0.00  0.00    +0.000 Br
ENDBRANCH   4   7
ENDBRANCH   1   4
BRANCH   1  14
ATOM     14  C   UNL     1       0.764  11.222  20.393  0.00  0.00    +0.000 C 
BRANCH  14  16
ATOM     15  C   UNL     1       1.058   9.390  22.136  0.00  0.00    +0.000 C 
ATOM     16  C   UNL     1       0.294  10.061  21.261  0.00  0.00    +0.000 C 
ENDBRANCH  14  16
BRANCH  14  17
ATOM     17  C   UNL     1       0.683  10.893  18.880  0.00  0.00    +0.000 C 
BRANCH  17  18
ATOM     18  O   UNL     1       0.837   9.498  18.584  0.00  0.00    +0.000 OA
BRANCH  18  19
ATOM     19  C   UNL     1       2.004   9.214  17.815  0.00  0.00    +0.000 C 
BRANCH  19  20
ATOM     20  C   UNL     1       2.635   7.935  18.269  0.00  0.00    +0.000 A 
ATOM     21  C   UNL     1       2.167   7.300  19.430  0.00  0.00    +0.000 A 
ATOM     22  C   UNL     1       2.692   6.075  19.820  0.00  0.00    +0.000 A 
ATOM     23  C   UNL     1       3.684   5.470  19.051  0.00  0.00    +0.000 A 
ATOM     24  C   UNL     1       4.144   6.084  17.887  0.00  0.00    +0.000 A 
ATOM     25  C   UNL     1       3.618   7.312  17.493  0.00  0.00    +0.000 A 
ENDBRANCH  19  20
ENDBRANCH  18  19
ENDBRANCH  17  18
ENDBRANCH  14  17
ENDBRANCH   1  14
BRANCH   2  26
ATOM     26  O   UNL     1      -2.094  13.447  21.153  0.00  0.00    +0.000 OA
BRANCH  26  27
ATOM     27  C   UNL     1      -3.042  13.099  22.188  0.00  0.00    +0.000 C 
ATOM     28  C   UNL     1      -2.508  11.999  23.113  0.00  0.00    +0.000 C 
ATOM     29  C   UNL     1      -3.222  14.384  23.013  0.00  0.00    +0.000 C 
ATOM     30  C   UNL     1      -4.391  12.730  21.566  0.00  0.00    +0.000 C 
ENDBRANCH  26  27
ENDBRANCH   2  26
TORSDOF 10
ENDMDL
MODEL 6
REMARK VINA RESULT:      -6.4      1.884      3.489
REMARK  Name = 
REMARK  13 active torsions:
REMARK  status: ('A' for Active; 'I' for Inactive)
REMARK    1  A    between atoms: C_2  and  C_3
REMARK    2  A    between atoms: C_3  and  C_4
REMARK    3  A    between atoms: C_3  and  N_13
REMARK    4  A    between atoms: C_4  and  O_5
REMARK    5  A    between atoms: O_5  and  C_6
REMARK    6  A    between atoms: C_6  and  C_7
REMARK    7  A    between atoms: N_13  and  S_21
REMARK    8  A    between atoms: C_14  and  O_16
REMARK    9  A    between atoms: O_16  and  C_17
REMARK   10  A    between atoms: C_17  and  C_18
REMARK   11  A    between atoms: C_17  and  C_19
REMARK   12  A    between atoms: C_17  and  C_20
REMARK   13  A    between atoms: S_21  and  C_24
REMARK                            x       y       z     vdW  Elec       q    Type
REMARK                         _______ _______ _______ _____ _____    ______ ____
ROOT
ATOM      1  N   UNL     1       0.412  11.126  19.613  0.00  0.00    +0.000 N 
ATOM      2  C   UNL     1       1.365  12.087  19.236  0.00  0.00    +0.000 C 
ATOM      3  O   UNL     1       2.202  11.836  18.376  0.00  0.00    +0.000 OA
ENDROOT
BRANCH   1   4
ATOM      4  S   UNL     1      -0.299  11.124  21.152  0.00  0.00    +0.000 S 
ATOM      5  O   UNL     1      -0.855   9.829  21.473  0.00  0.00    +0.000 OA
ATOM      6  O   UNL     1       0.658  11.725  22.054  0.00  0.00    +0.000 OA
BRANCH   4   7
ATOM      7  C   UNL     1      -1.737  12.175  20.952  0.00  0.00    +0.000 A 
ATOM      8  C   UNL     1      -2.534  11.922  19.814  0.00  0.00    +0.000 A 
ATOM      9  C   UNL     1      -3.785  12.526  19.665  0.00  0.00    +0.000 A 
ATOM     10  C   UNL     1      -4.271  13.355  20.668  0.00  0.00    +0.000 A 
ATOM     11  C   UNL     1      -3.475  13.636  21.779  0.00  0.00    +0.000 A 
ATOM     12  C   UNL     1      -2.191  13.080  21.914  0.00  0.00    +0.000 A 
ATOM     13 BR   UNL     1      -1.210  13.702  23.413  0.00  0.00    +0.000 Br
ENDBRANCH   4   7
ENDBRANCH   1   4
BRANCH   1  14
ATOM     14  C   UNL     1       0.078   9.961  18.754  0.00  0.00    +0.000 C 
BRANCH  14  16
ATOM     15  C   UNL     1      -1.793   9.763  17.039  0.00  0.00    +0.000 C 
ATOM     16  C   UNL     1      -0.788  10.452  17.600  0.00  0.00    +0.000 C 
ENDBRANCH  14  16
BRANCH  14  17
ATOM     17  C   UNL     1       1.347   9.220  18.259  0.00  0.00    +0.000 C 
BRANCH  17  18
ATOM     18  O   UNL     1       1.869   8.276  19.203  0.00  0.00    +0.000 OA
BRANCH  18  19
ATOM     19  C   UNL     1       2.699   7.283  18.604  0.00  0.00    +0.000 C 
BRANCH  19  20
ATOM     20  C   UNL     1       2.213   5.910  18.950  0.00  0.00    +0.000 A 
ATOM     21  C   UNL     1       1.927   5.589  20.286  0.00  0.00    +0.000 A 
ATOM     22  C   UNL     1       1.403   4.343  20.611  0.00  0.00    +0.000 A 
ATOM     23  C   UNL     1       1.154   3.412  19.604  0.00  0.00    +0.000 A 
ATOM     24  C   UNL     1       1.419   3.729  18.272  0.00  0.00    +0.000 A 
ATOM     25  C   UNL     1       1.943   4.977  17.944  0.00  0.00    +0.000 A 
ENDBRANCH  19  20
ENDBRANCH  18  19
ENDBRANCH  17  18
ENDBRANCH  14  17
ENDBRANCH   1  14
BRANCH   2  26
ATOM     26  O   UNL     1       1.285  13.272  19.882  0.00  0.00    +0.000 OA
BRANCH  26  27
ATOM     27  C   UNL     1       0.827  14.487  19.246  0.00  0.00    +0.000 C 
ATOM     28  C   UNL     1      -0.286  14.220  18.226  0.00  0.00    +0.000 C 
ATOM     29  C   UNL     1       0.246  15.340  20.386  0.00  0.00    +0.000 C 
ATOM     30  C   UNL     1       2.009  15.242  18.632  0.00  0.00    +0.000 C 
ENDBRANCH  26  27
ENDBRANCH   2  26
TORSDOF 10
ENDMDL
MODEL 7
REMARK VINA RESULT:      -6.3      1.836      2.566
REMARK  Name = 
REMARK  13 active torsions:
REMARK  status: ('A' for Active; 'I' for Inactive)
REMARK    1  A    between atoms: C_2  and  C_3
REMARK    2  A    between atoms: C_3  and  C_4
REMARK    3  A    between atoms: C_3  and  N_13
REMARK    4  A    between atoms: C_4  and  O_5
REMARK    5  A    between atoms: O_5  and  C_6
REMARK    6  A    between atoms: C_6  and  C_7
REMARK    7  A    between atoms: N_13  and  S_21
REMARK    8  A    between atoms: C_14  and  O_16
REMARK    9  A    between atoms: O_16  and  C_17
REMARK   10  A    between atoms: C_17  and  C_18
REMARK   11  A    between atoms: C_17  and  C_19
REMARK   12  A    between atoms: C_17  and  C_20
REMARK   13  A    between atoms: S_21  and  C_24
REMARK                            x       y       z     vdW  Elec       q    Type
REMARK                         _______ _______ _______ _____ _____    ______ ____
ROOT
ATOM      1  N   UNL     1      -0.040  10.889  19.778  0.00  0.00    +0.000 N 
ATOM      2  C   UNL     1      -0.717  10.630  18.575  0.00  0.00    +0.000 C 
ATOM      3  O   UNL     1      -0.299   9.784  17.791  0.00  0.00    +0.000 OA
ENDROOT
BRANCH   1   4
ATOM      4  S   UNL     1      -0.133  12.395  20.552  0.00  0.00    +0.000 S 
ATOM      5  O   UNL     1      -1.342  13.099  20.188  0.00  0.00    +0.000 OA
ATOM      6  O   UNL     1       0.158  12.165  21.949  0.00  0.00    +0.000 OA
BRANCH   4   7
ATOM      7  C   UNL     1       1.172  13.347  19.776  0.00  0.00    +0.000 A 
ATOM      8  C   UNL     1       1.912  12.681  18.773  0.00  0.00    +0.000 A 
ATOM      9  C   UNL     1       2.802  13.379  17.955  0.00  0.00    +0.000 A 
ATOM     10  C   UNL     1       2.935  14.753  18.100  0.00  0.00    +0.000 A 
ATOM     11  C   UNL     1       2.233  15.413  19.109  0.00  0.00    +0.000 A 
ATOM     12  C   UNL     1       1.377  14.714  19.977  0.00  0.00    +0.000 A 
ATOM     13 BR   UNL     1       0.635  15.759  21.375  0.00  0.00    +0.000 Br
ENDBRANCH   4   7
ENDBRANCH   1   4
BRANCH   1  14
ATOM     14  C   UNL     1       0.922   9.924  20.372  0.00  0.00    +0.000 C 
BRANCH  14  16
ATOM     15  C   UNL     1      -0.579   8.201  21.494  0.00  0.00    +0.000 C 
ATOM     16  C   UNL     1       0.249   9.254  21.564  0.00  0.00    +0.000 C 
ENDBRANCH  14  16
BRANCH  14  17
ATOM     17  C   UNL     1       1.429   8.893  19.330  0.00  0.00    +0.000 C 
BRANCH  17  18
ATOM     18  O   UNL     1       2.219   7.840  19.899  0.00  0.00    +0.000 OA
BRANCH  18  19
ATOM     19  C   UNL     1       2.680   6.899  18.931  0.00  0.00    +0.000 C 
BRANCH  19  20
ATOM     20  C   UNL     1       2.044   5.562  19.151  0.00  0.00    +0.000 A 
ATOM     21  C   UNL     1       1.922   4.664  18.080  0.00  0.00    +0.000 A 
ATOM     22  C   UNL     1       1.403   3.391  18.286  0.00  0.00    +0.000 A 
ATOM     23  C   UNL     1       1.010   3.003  19.565  0.00  0.00    +0.000 A 
ATOM     24  C   UNL     1       1.143   3.882  20.640  0.00  0.00    +0.000 A 
ATOM     25  C   UNL     1       1.664   5.158  20.434  0.00  0.00    +0.000 A 
ENDBRANCH  19  20
ENDBRANCH  18  19
ENDBRANCH  17  18
ENDBRANCH  14  17
ENDBRANCH   1  14
BRANCH   2  26
ATOM     26  O   UNL     1      -1.828  11.368  18.359  0.00  0.00    +0.000 OA
BRANCH  26  27
ATOM     27  C   UNL     1      -2.933  10.911  17.546  0.00  0.00    +0.000 C 
ATOM     28  C   UNL     1      -3.317   9.460  17.857  0.00  0.00    +0.000 C 
ATOM     29  C   UNL     1      -4.113  11.819  17.928  0.00  0.00    +0.000 C 
ATOM     30  C   UNL     1      -2.620  11.123  16.062  0.00  0.00    +0.000 C 
ENDBRANCH  26  27
ENDBRANCH   2  26
TORSDOF 10
ENDMDL
MODEL 8
REMARK VINA RESULT:      -6.3      4.007      8.629
REMARK  Name = 
REMARK  13 active torsions:
REMARK  status: ('A' for Active; 'I' for Inactive)
REMARK    1  A    between atoms: C_2  and  C_3
REMARK    2  A    between atoms: C_3  and  C_4
REMARK    3  A    between atoms: C_3  and  N_13
REMARK    4  A    between atoms: C_4  and  O_5
REMARK    5  A    between atoms: O_5  and  C_6
REMARK    6  A    between atoms: C_6  and  C_7
REMARK    7  A    between atoms: N_13  and  S_21
REMARK    8  A    between atoms: C_14  and  O_16
REMARK    9  A    between atoms: O_16  and  C_17
REMARK   10  A    between atoms: C_17  and  C_18
REMARK   11  A    between atoms: C_17  and  C_19
REMARK   12  A    between atoms: C_17  and  C_20
REMARK   13  A    between atoms: S_21  and  C_24
REMARK                            x       y       z     vdW  Elec       q    Type
REMARK                         _______ _______ _______ _____ _____    ______ ____
ROOT
ATOM      1  N   UNL     1       3.010   6.024  17.923  0.00  0.00    +0.000 N 
ATOM      2  C   UNL     1       4.284   6.434  17.495  0.00  0.00    +0.000 C 
ATOM      3  O   UNL     1       4.507   7.609  17.224  0.00  0.00    +0.000 OA
ENDROOT
BRANCH   1   4
ATOM      4  S   UNL     1       2.450   4.442  17.683  0.00  0.00    +0.000 S 
ATOM      5  O   UNL     1       1.094   4.435  17.182  0.00  0.00    +0.000 OA
ATOM      6  O   UNL     1       3.479   3.743  16.946  0.00  0.00    +0.000 OA
BRANCH   4   7
ATOM      7  C   UNL     1       2.301   3.792  19.346  0.00  0.00    +0.000 A 
ATOM      8  C   UNL     1       0.986   3.679  19.851  0.00  0.00    +0.000 A 
ATOM      9  C   UNL     1       0.731   2.993  21.039  0.00  0.00    +0.000 A 
ATOM     10  C   UNL     1       1.776   2.378  21.716  0.00  0.00    +0.000 A 
ATOM     11  C   UNL     1       3.081   2.513  21.242  0.00  0.00    +0.000 A 
ATOM     12  C   UNL     1       3.360   3.249  20.078  0.00  0.00    +0.000 A 
ATOM     13 BR   UNL     1       5.204   3.445  19.683  0.00  0.00    +0.000 Br
ENDBRANCH   4   7
ENDBRANCH   1   4
BRANCH   1  14
ATOM     14  C   UNL     1       2.012   6.980  18.469  0.00  0.00    +0.000 C 
BRANCH  14  16
ATOM     15  C   UNL     1       1.475   7.058  20.956  0.00  0.00    +0.000 C 
ATOM     16  C   UNL     1       2.335   7.217  19.939  0.00  0.00    +0.000 C 
ENDBRANCH  14  16
BRANCH  14  17
ATOM     17  C   UNL     1       1.967   8.301  17.659  0.00  0.00    +0.000 C 
BRANCH  17  18
ATOM     18  O   UNL     1       1.648   9.453  18.452  0.00  0.00    +0.000 OA
BRANCH  18  19
ATOM     19  C   UNL     1       0.359   9.991  18.166  0.00  0.00    +0.000 C 
BRANCH  19  20
ATOM     20  C   UNL     1      -0.239  10.608  19.392  0.00  0.00    +0.000 A 
ATOM     21  C   UNL     1       0.366  10.400  20.642  0.00  0.00    +0.000 A 
ATOM     22  C   UNL     1      -0.133  11.027  21.776  0.00  0.00    +0.000 A 
ATOM     23  C   UNL     1      -1.236  11.872  21.671  0.00  0.00    +0.000 A 
ATOM     24  C   UNL     1      -1.834  12.099  20.432  0.00  0.00    +0.000 A 
ATOM     25  C   UNL     1      -1.334  11.471  19.293  0.00  0.00    +0.000 A 
ENDBRANCH  19  20
ENDBRANCH  18  19
ENDBRANCH  17  18
ENDBRANCH  14  17
ENDBRANCH   1  14
BRANCH   2  26
ATOM     26  O   UNL     1       5.213   5.455  17.408  0.00  0.00    +0.000 OA
BRANCH  26  27
ATOM     27  C   UNL     1       6.468   5.619  16.708  0.00  0.00    +0.000 C 
ATOM     28  C   UNL     1       7.423   4.446  16.952  0.00  0.00    +0.000 C 
ATOM     29  C   UNL     1       6.093   5.639  15.217  0.00  0.00    +0.000 C 
ATOM     30  C   UNL     1       7.100   6.967  17.065  0.00  0.00    +0.000 C 
ENDBRANCH  26  27
ENDBRANCH   2  26
TORSDOF 10
ENDMDL
MODEL 9
REMARK VINA RESULT:      -6.2      2.288      4.250
REMARK  Name = 
REMARK  13 active torsions:
REMARK  status: ('A' for Active; 'I' for Inactive)
REMARK    1  A    between atoms: C_2  and  C_3
REMARK    2  A    between atoms: C_3  and  C_4
REMARK    3  A    between atoms: C_3  and  N_13
REMARK    4  A    between atoms: C_4  and  O_5
REMARK    5  A    between atoms: O_5  and  C_6
REMARK    6  A    between atoms: C_6  and  C_7
REMARK    7  A    between atoms: N_13  and  S_21
REMARK    8  A    between atoms: C_14  and  O_16
REMARK    9  A    between atoms: O_16  and  C_17
REMARK   10  A    between atoms: C_17  and  C_18
REMARK   11  A    between atoms: C_17  and  C_19
REMARK   12  A    between atoms: C_17  and  C_20
REMARK   13  A    between atoms: S_21  and  C_24
REMARK                            x       y       z     vdW  Elec       q    Type
REMARK                         _______ _______ _______ _____ _____    ______ ____
ROOT
ATOM      1  N   UNL     1       0.697  10.531  19.060  0.00  0.00    +0.000 N 
ATOM      2  C   UNL     1       1.505  11.599  18.634  0.00  0.00    +0.000 C 
ATOM      3  O   UNL     1       2.709  11.442  18.459  0.00  0.00    +0.000 OA
ENDROOT
BRANCH   1   4
ATOM      4  S   UNL     1      -0.738  10.784  19.928  0.00  0.00    +0.000 S 
ATOM      5  O   UNL     1      -1.172   9.574  20.590  0.00  0.00    +0.000 OA
ATOM      6  O   UNL     1      -0.547  11.986  20.707  0.00  0.00    +0.000 OA
BRANCH   4   7
ATOM      7  C   UNL     1      -1.964  11.040  18.646  0.00  0.00    +0.000 A 
ATOM      8  C   UNL     1      -1.733  10.368  17.425  0.00  0.00    +0.000 A 
ATOM      9  C   UNL     1      -2.717  10.318  16.436  0.00  0.00    +0.000 A 
ATOM     10  C   UNL     1      -3.956  10.901  16.669  0.00  0.00    +0.000 A 
ATOM     11  C   UNL     1      -4.181  11.595  17.859  0.00  0.00    +0.000 A 
ATOM     12  C   UNL     1      -3.179  11.702  18.839  0.00  0.00    +0.000 A 
ATOM     13 BR   UNL     1      -3.624  12.811  20.312  0.00  0.00    +0.000 Br
ENDBRANCH   4   7
ENDBRANCH   1   4
BRANCH   1  14
ATOM     14  C   UNL     1       1.117   9.112  18.919  0.00  0.00    +0.000 C 
BRANCH  14  16
ATOM     15  C   UNL     1       3.020   8.129  17.545  0.00  0.00    +0.000 C 
ATOM     16  C   UNL     1       2.013   9.002  17.691  0.00  0.00    +0.000 C 
ENDBRANCH  14  16
BRANCH  14  17
ATOM     17  C   UNL     1       1.810   8.580  20.200  0.00  0.00    +0.000 C 
BRANCH  17  18
ATOM     18  O   UNL     1       1.377   7.269  20.586  0.00  0.00    +0.000 OA
BRANCH  18  19
ATOM     19  C   UNL     1       2.425   6.302  20.557  0.00  0.00    +0.000 C 
BRANCH  19  20
ATOM     20  C   UNL     1       1.958   5.038  19.904  0.00  0.00    +0.000 A 
ATOM     21  C   UNL     1       1.315   4.054  20.670  0.00  0.00    +0.000 A 
ATOM     22  C   UNL     1       0.809   2.911  20.063  0.00  0.00    +0.000 A 
ATOM     23  C   UNL     1       0.936   2.745  18.686  0.00  0.00    +0.000 A 
ATOM     24  C   UNL     1       1.558   3.725  17.913  0.00  0.00    +0.000 A 
ATOM     25  C   UNL     1       2.065   4.872  18.520  0.00  0.00    +0.000 A 
ENDBRANCH  19  20
ENDBRANCH  18  19
ENDBRANCH  17  18
ENDBRANCH  14  17
ENDBRANCH   1  14
BRANCH   2  26
ATOM     26  O   UNL     1       0.866  12.775  18.444  0.00  0.00    +0.000 OA
BRANCH  26  27
ATOM     27  C   UNL     1       1.374  14.036  18.935  0.00  0.00    +0.000 C 
ATOM     28  C   UNL     1       2.015  13.900  20.321  0.00  0.00    +0.000 C 
ATOM     29  C   UNL     1       2.466  14.445  17.933  0.00  0.00    +0.000 C 
ATOM     30  C   UNL     1       0.271  15.097  18.907  0.00  0.00    +0.000 C 
ENDBRANCH  26  27
ENDBRANCH   2  26
TORSDOF 10
ENDMDL
