MODEL 1
REMARK VINA RESULT:      -7.6      0.000      0.000
REMARK  Name = 
REMARK  2 active torsions:
REMARK  status: ('A' for Active; 'I' for Inactive)
REMARK    1  A    between atoms: N_12  and  C_13
REMARK    2  A    between atoms: C_13  and  C_14
REMARK                            x       y       z     vdW  Elec       q    Type
REMARK                         _______ _______ _______ _____ _____    ______ ____
ROOT
ATOM      1  N   UNL     1       1.262   3.570  18.782  0.00  0.00    +0.000 N 
ATOM      2  C   UNL     1       2.427   3.986  18.264  0.00  0.00    +0.000 A 
ATOM      3  N   UNL     1       2.985   3.511  17.181  0.00  0.00    +0.000 NA
ATOM      4  C   UNL     1       4.135   4.233  17.008  0.00  0.00    +0.000 A 
ATOM      5  C   UNL     1       5.078   4.160  15.972  0.00  0.00    +0.000 A 
ATOM      6  C   UNL     1       6.174   5.031  15.998  0.00  0.00    +0.000 A 
ATOM      7 CL   UNL     1       7.290   4.934  14.678  0.00  0.00    +0.000 Cl
ATOM      8  C   UNL     1       6.341   5.942  17.049  0.00  0.00    +0.000 A 
ATOM      9 CL   UNL     1       7.682   7.033  17.116  0.00  0.00    +0.000 Cl
ATOM     10  C   UNL     1       5.408   6.019  18.096  0.00  0.00    +0.000 A 
ATOM     11  C   UNL     1       4.305   5.157  18.036  0.00  0.00    +0.000 A 
ATOM     12  N   UNL     1       3.186   4.988  18.826  0.00  0.00    +0.000 N 
ATOM     13  H   UNL     1       0.892   2.714  18.376  0.00  0.00    +0.000 HD
ATOM     14  H   UNL     1       1.062   3.651  19.774  0.00  0.00    +0.000 HD
ENDROOT
BRANCH  12  15
ATOM     15  C   UNL     1       2.779   5.853  19.924  0.00  0.00    +0.000 C 
BRANCH  15  16
ATOM     16  C   UNL     1       2.142   7.163  19.515  0.00  0.00    +0.000 A 
ATOM     17  C   UNL     1       2.214   7.698  18.219  0.00  0.00    +0.000 A 
ATOM     18  C   UNL     1       1.706   8.971  17.938  0.00  0.00    +0.000 A 
ATOM     19  C   UNL     1       1.116   9.730  18.946  0.00  0.00    +0.000 A 
ATOM     20  C   UNL     1       1.024   9.208  20.233  0.00  0.00    +0.000 A 
ATOM     21 CL   UNL     1       0.303  10.141  21.485  0.00  0.00    +0.000 Cl
ATOM     22  C   UNL     1       1.532   7.940  20.519  0.00  0.00    +0.000 A 
ENDBRANCH  15  16
ENDBRANCH  12  15
TORSDOF 2
ENDMDL
MODEL 2
REMARK VINA RESULT:      -7.6      1.650      5.992
REMARK  Name = 
REMARK  2 active torsions:
REMARK  status: ('A' for Active; 'I' for Inactive)
REMARK    1  A    between atoms: N_12  and  C_13
REMARK    2  A    between atoms: C_13  and  C_14
REMARK                            x       y       z     vdW  Elec       q    Type
REMARK                         _______ _______ _______ _____ _____    ______ ____
ROOT
ATOM      1  N   UNL     1       2.576   1.620  18.974  0.00  0.00    +0.000 N 
ATOM      2  C   UNL     1       2.410   2.943  19.116  0.00  0.00    +0.000 A 
ATOM      3  N   UNL     1       1.981   3.539  20.198  0.00  0.00    +0.000 NA
ATOM      4  C   UNL     1       1.990   4.878  19.913  0.00  0.00    +0.000 A 
ATOM      5  C   UNL     1       1.669   5.962  20.743  0.00  0.00    +0.000 A 
ATOM      6  C   UNL     1       1.779   7.260  20.230  0.00  0.00    +0.000 A 
ATOM      7 CL   UNL     1       1.413   8.567  21.303  0.00  0.00    +0.000 Cl
ATOM      8  C   UNL     1       2.180   7.474  18.905  0.00  0.00    +0.000 A 
ATOM      9 CL   UNL     1       2.328   9.062  18.234  0.00  0.00    +0.000 Cl
ATOM     10  C   UNL     1       2.497   6.397  18.060  0.00  0.00    +0.000 A 
ATOM     11  C   UNL     1       2.404   5.108  18.604  0.00  0.00    +0.000 A 
ATOM     12  N   UNL     1       2.682   3.848  18.114  0.00  0.00    +0.000 N 
ATOM     13  H   UNL     1       2.177   1.054  19.719  0.00  0.00    +0.000 HD
ATOM     14  H   UNL     1       2.516   1.171  18.066  0.00  0.00    +0.000 HD
ENDROOT
BRANCH  12  15
ATOM     15  C   UNL     1       3.342   3.550  16.851  0.00  0.00    +0.000 C 
BRANCH  15  16
ATOM     16  C   UNL     1       4.802   3.940  16.775  0.00  0.00    +0.000 A 
ATOM     17  C   UNL     1       5.610   4.171  17.900  0.00  0.00    +0.000 A 
ATOM     18  C   UNL     1       6.918   4.646  17.760  0.00  0.00    +0.000 A 
ATOM     19  C   UNL     1       7.442   4.897  16.493  0.00  0.00    +0.000 A 
ATOM     20  C   UNL     1       6.658   4.661  15.368  0.00  0.00    +0.000 A 
ATOM     21 CL   UNL     1       7.295   4.975  13.801  0.00  0.00    +0.000 Cl
ATOM     22  C   UNL     1       5.351   4.190  15.503  0.00  0.00    +0.000 A 
ENDBRANCH  15  16
ENDBRANCH  12  15
TORSDOF 2
ENDMDL
MODEL 3
REMARK VINA RESULT:      -7.5      2.608      3.914
REMARK  Name = 
REMARK  2 active torsions:
REMARK  status: ('A' for Active; 'I' for Inactive)
REMARK    1  A    between atoms: N_12  and  C_13
REMARK    2  A    between atoms: C_13  and  C_14
REMARK                            x       y       z     vdW  Elec       q    Type
REMARK                         _______ _______ _______ _____ _____    ______ ____
ROOT
ATOM      1  N   UNL     1       6.857   5.000  19.520  0.00  0.00    +0.000 N 
ATOM      2  C   UNL     1       6.720   4.888  18.191  0.00  0.00    +0.000 A 
ATOM      3  N   UNL     1       7.601   5.278  17.306  0.00  0.00    +0.000 NA
ATOM      4  C   UNL     1       7.071   4.953  16.087  0.00  0.00    +0.000 A 
ATOM      5  C   UNL     1       7.629   5.109  14.810  0.00  0.00    +0.000 A 
ATOM      6  C   UNL     1       6.898   4.673  13.698  0.00  0.00    +0.000 A 
ATOM      7 CL   UNL     1       7.643   4.847  12.145  0.00  0.00    +0.000 Cl
ATOM      8  C   UNL     1       5.624   4.111  13.853  0.00  0.00    +0.000 A 
ATOM      9 CL   UNL     1       4.690   3.561  12.504  0.00  0.00    +0.000 Cl
ATOM     10  C   UNL     1       5.050   3.957  15.127  0.00  0.00    +0.000 A 
ATOM     11  C   UNL     1       5.811   4.377  16.226  0.00  0.00    +0.000 A 
ATOM     12  N   UNL     1       5.612   4.334  17.592  0.00  0.00    +0.000 N 
ATOM     13  H   UNL     1       7.633   5.580  19.827  0.00  0.00    +0.000 HD
ATOM     14  H   UNL     1       6.051   5.070  20.134  0.00  0.00    +0.000 HD
ENDROOT
BRANCH  12  15
ATOM     15  C   UNL     1       4.531   3.638  18.274  0.00  0.00    +0.000 C 
BRANCH  15  16
ATOM     16  C   UNL     1       3.612   4.516  19.097  0.00  0.00    +0.000 A 
ATOM     17  C   UNL     1       2.936   4.080  20.247  0.00  0.00    +0.000 A 
ATOM     18  C   UNL     1       2.009   4.906  20.891  0.00  0.00    +0.000 A 
ATOM     19  C   UNL     1       1.743   6.182  20.398  0.00  0.00    +0.000 A 
ATOM     20  C   UNL     1       2.415   6.634  19.267  0.00  0.00    +0.000 A 
ATOM     21 CL   UNL     1       2.088   8.204  18.648  0.00  0.00    +0.000 Cl
ATOM     22  C   UNL     1       3.339   5.812  18.619  0.00  0.00    +0.000 A 
ENDBRANCH  15  16
ENDBRANCH  12  15
TORSDOF 2
ENDMDL
MODEL 4
REMARK VINA RESULT:      -7.4      4.271      7.094
REMARK  Name = 
REMARK  2 active torsions:
REMARK  status: ('A' for Active; 'I' for Inactive)
REMARK    1  A    between atoms: N_12  and  C_13
REMARK    2  A    between atoms: C_13  and  C_14
REMARK                            x       y       z     vdW  Elec       q    Type
REMARK                         _______ _______ _______ _____ _____    ______ ____
ROOT
ATOM      1  N   UNL     1       7.739   5.434  17.196  0.00  0.00    +0.000 N 
ATOM      2  C   UNL     1       6.602   4.891  17.654  0.00  0.00    +0.000 A 
ATOM      3  N   UNL     1       6.444   4.353  18.835  0.00  0.00    +0.000 NA
ATOM      4  C   UNL     1       5.136   3.953  18.889  0.00  0.00    +0.000 A 
ATOM      5  C   UNL     1       4.435   3.363  19.951  0.00  0.00    +0.000 A 
ATOM      6  C   UNL     1       3.078   3.061  19.776  0.00  0.00    +0.000 A 
ATOM      7 CL   UNL     1       2.243   2.373  21.127  0.00  0.00    +0.000 Cl
ATOM      8  C   UNL     1       2.437   3.323  18.558  0.00  0.00    +0.000 A 
ATOM      9 CL   UNL     1       0.763   2.965  18.305  0.00  0.00    +0.000 Cl
ATOM     10  C   UNL     1       3.131   3.906  17.485  0.00  0.00    +0.000 A 
ATOM     11  C   UNL     1       4.480   4.223  17.691  0.00  0.00    +0.000 A 
ATOM     12  N   UNL     1       5.441   4.839  16.915  0.00  0.00    +0.000 N 
ATOM     13  H   UNL     1       8.562   5.254  17.764  0.00  0.00    +0.000 HD
ATOM     14  H   UNL     1       7.950   5.470  16.203  0.00  0.00    +0.000 HD
ENDROOT
BRANCH  12  15
ATOM     15  C   UNL     1       5.211   5.501  15.639  0.00  0.00    +0.000 C 
BRANCH  15  16
ATOM     16  C   UNL     1       5.977   4.929  14.465  0.00  0.00    +0.000 A 
ATOM     17  C   UNL     1       7.234   5.395  14.050  0.00  0.00    +0.000 A 
ATOM     18  C   UNL     1       7.833   4.904  12.884  0.00  0.00    +0.000 A 
ATOM     19  C   UNL     1       7.185   3.939  12.115  0.00  0.00    +0.000 A 
ATOM     20  C   UNL     1       5.945   3.458  12.521  0.00  0.00    +0.000 A 
ATOM     21 CL   UNL     1       5.136   2.272  11.574  0.00  0.00    +0.000 Cl
ATOM     22  C   UNL     1       5.342   3.947  13.682  0.00  0.00    +0.000 A 
ENDBRANCH  15  16
ENDBRANCH  12  15
TORSDOF 2
ENDMDL
MODEL 5
REMARK VINA RESULT:      -7.4      3.151      4.369
REMARK  Name = 
REMARK  2 active torsions:
REMARK  status: ('A' for Active; 'I' for Inactive)
REMARK    1  A    between atoms: N_12  and  C_13
REMARK    2  A    between atoms: C_13  and  C_14
REMARK                            x       y       z     vdW  Elec       q    Type
REMARK                         _______ _______ _______ _____ _____    ______ ____
ROOT
ATOM      1  N   UNL     1       6.548   4.742  19.374  0.00  0.00    +0.000 N 
ATOM      2  C   UNL     1       6.509   4.693  18.035  0.00  0.00    +0.000 A 
ATOM      3  N   UNL     1       7.370   5.263  17.232  0.00  0.00    +0.000 NA
ATOM      4  C   UNL     1       6.969   4.938  15.965  0.00  0.00    +0.000 A 
ATOM      5  C   UNL     1       7.571   5.253  14.738  0.00  0.00    +0.000 A 
ATOM      6  C   UNL     1       6.982   4.781  13.558  0.00  0.00    +0.000 A 
ATOM      7 CL   UNL     1       7.782   5.159  12.071  0.00  0.00    +0.000 Cl
ATOM      8  C   UNL     1       5.801   4.028  13.599  0.00  0.00    +0.000 A 
ATOM      9 CL   UNL     1       5.044   3.428  12.163  0.00  0.00    +0.000 Cl
ATOM     10  C   UNL     1       5.184   3.712  14.821  0.00  0.00    +0.000 A 
ATOM     11  C   UNL     1       5.805   4.173  15.989  0.00  0.00    +0.000 A 
ATOM     12  N   UNL     1       5.535   4.017  17.334  0.00  0.00    +0.000 N 
ATOM     13  H   UNL     1       7.208   5.411  19.762  0.00  0.00    +0.000 HD
ATOM     14  H   UNL     1       5.706   4.653  19.934  0.00  0.00    +0.000 HD
ENDROOT
BRANCH  12  15
ATOM     15  C   UNL     1       4.535   3.127  17.905  0.00  0.00    +0.000 C 
BRANCH  15  16
ATOM     16  C   UNL     1       3.464   3.804  18.734  0.00  0.00    +0.000 A 
ATOM     17  C   UNL     1       3.105   5.154  18.597  0.00  0.00    +0.000 A 
ATOM     18  C   UNL     1       2.193   5.747  19.477  0.00  0.00    +0.000 A 
ATOM     19  C   UNL     1       1.623   5.000  20.507  0.00  0.00    +0.000 A 
ATOM     20  C   UNL     1       1.959   3.658  20.647  0.00  0.00    +0.000 A 
ATOM     21 CL   UNL     1       1.265   2.731  21.919  0.00  0.00    +0.000 Cl
ATOM     22  C   UNL     1       2.871   3.062  19.774  0.00  0.00    +0.000 A 
ENDBRANCH  15  16
ENDBRANCH  12  15
TORSDOF 2
ENDMDL
MODEL 6
REMARK VINA RESULT:      -7.4      1.673      5.926
REMARK  Name = 
REMARK  2 active torsions:
REMARK  status: ('A' for Active; 'I' for Inactive)
REMARK    1  A    between atoms: N_12  and  C_13
REMARK    2  A    between atoms: C_13  and  C_14
REMARK                            x       y       z     vdW  Elec       q    Type
REMARK                         _______ _______ _______ _____ _____    ______ ____
ROOT
ATOM      1  N   UNL     1       2.836   2.497  20.778  0.00  0.00    +0.000 N 
ATOM      2  C   UNL     1       2.567   3.772  20.465  0.00  0.00    +0.000 A 
ATOM      3  N   UNL     1       2.040   4.654  21.275  0.00  0.00    +0.000 NA
ATOM      4  C   UNL     1       1.965   5.818  20.560  0.00  0.00    +0.000 A 
ATOM      5  C   UNL     1       1.524   7.084  20.972  0.00  0.00    +0.000 A 
ATOM      6  C   UNL     1       1.564   8.143  20.057  0.00  0.00    +0.000 A 
ATOM      7 CL   UNL     1       1.049   9.695  20.623  0.00  0.00    +0.000 Cl
ATOM      8  C   UNL     1       2.015   7.940  18.746  0.00  0.00    +0.000 A 
ATOM      9 CL   UNL     1       2.079   9.222  17.587  0.00  0.00    +0.000 Cl
ATOM     10  C   UNL     1       2.452   6.675  18.318  0.00  0.00    +0.000 A 
ATOM     11  C   UNL     1       2.427   5.637  19.259  0.00  0.00    +0.000 A 
ATOM     12  N   UNL     1       2.822   4.314  19.225  0.00  0.00    +0.000 N 
ATOM     13  H   UNL     1       2.443   2.177  21.659  0.00  0.00    +0.000 HD
ATOM     14  H   UNL     1       2.856   1.768  20.071  0.00  0.00    +0.000 HD
ENDROOT
BRANCH  12  15
ATOM     15  C   UNL     1       3.565   3.673  18.150  0.00  0.00    +0.000 C 
BRANCH  15  16
ATOM     16  C   UNL     1       4.954   4.222  17.906  0.00  0.00    +0.000 A 
ATOM     17  C   UNL     1       5.760   4.784  18.908  0.00  0.00    +0.000 A 
ATOM     18  C   UNL     1       6.985   5.382  18.593  0.00  0.00    +0.000 A 
ATOM     19  C   UNL     1       7.425   5.427  17.271  0.00  0.00    +0.000 A 
ATOM     20  C   UNL     1       6.644   4.862  16.269  0.00  0.00    +0.000 A 
ATOM     21 CL   UNL     1       7.177   4.918  14.635  0.00  0.00    +0.000 Cl
ATOM     22  C   UNL     1       5.420   4.266  16.578  0.00  0.00    +0.000 A 
ENDBRANCH  15  16
ENDBRANCH  12  15
TORSDOF 2
ENDMDL
MODEL 7
REMARK VINA RESULT:      -7.4      1.706      5.688
REMARK  Name = 
REMARK  2 active torsions:
REMARK  status: ('A' for Active; 'I' for Inactive)
REMARK    1  A    between atoms: N_12  and  C_13
REMARK    2  A    between atoms: C_13  and  C_14
REMARK                            x       y       z     vdW  Elec       q    Type
REMARK                         _______ _______ _______ _____ _____    ______ ____
ROOT
ATOM      1  N   UNL     1       2.869   2.284  19.920  0.00  0.00    +0.000 N 
ATOM      2  C   UNL     1       2.606   3.594  19.806  0.00  0.00    +0.000 A 
ATOM      3  N   UNL     1       2.187   4.368  20.774  0.00  0.00    +0.000 NA
ATOM      4  C   UNL     1       2.075   5.618  20.228  0.00  0.00    +0.000 A 
ATOM      5  C   UNL     1       1.712   6.824  20.845  0.00  0.00    +0.000 A 
ATOM      6  C   UNL     1       1.693   7.994  20.077  0.00  0.00    +0.000 A 
ATOM      7 CL   UNL     1       1.279   9.465  20.890  0.00  0.00    +0.000 Cl
ATOM      8  C   UNL     1       2.008   7.961  18.712  0.00  0.00    +0.000 A 
ATOM      9 CL   UNL     1       1.995   9.385  17.730  0.00  0.00    +0.000 Cl
ATOM     10  C   UNL     1       2.365   6.758  18.080  0.00  0.00    +0.000 A 
ATOM     11  C   UNL     1       2.403   5.604  18.875  0.00  0.00    +0.000 A 
ATOM     12  N   UNL     1       2.754   4.292  18.628  0.00  0.00    +0.000 N 
ATOM     13  H   UNL     1       2.555   1.856  20.787  0.00  0.00    +0.000 HD
ATOM     14  H   UNL     1       2.798   1.656  19.126  0.00  0.00    +0.000 HD
ENDROOT
BRANCH  12  15
ATOM     15  C   UNL     1       3.370   3.788  17.410  0.00  0.00    +0.000 C 
BRANCH  15  16
ATOM     16  C   UNL     1       4.787   4.258  17.158  0.00  0.00    +0.000 A 
ATOM     17  C   UNL     1       5.433   4.164  15.915  0.00  0.00    +0.000 A 
ATOM     18  C   UNL     1       6.783   4.505  15.780  0.00  0.00    +0.000 A 
ATOM     19  C   UNL     1       7.509   4.948  16.884  0.00  0.00    +0.000 A 
ATOM     20  C   UNL     1       6.879   5.060  18.119  0.00  0.00    +0.000 A 
ATOM     21 CL   UNL     1       7.770   5.600  19.488  0.00  0.00    +0.000 Cl
ATOM     22  C   UNL     1       5.533   4.718  18.260  0.00  0.00    +0.000 A 
ENDBRANCH  15  16
ENDBRANCH  12  15
TORSDOF 2
ENDMDL
MODEL 8
REMARK VINA RESULT:      -7.2      3.106      6.660
REMARK  Name = 
REMARK  2 active torsions:
REMARK  status: ('A' for Active; 'I' for Inactive)
REMARK    1  A    between atoms: N_12  and  C_13
REMARK    2  A    between atoms: C_13  and  C_14
REMARK                            x       y       z     vdW  Elec       q    Type
REMARK                         _______ _______ _______ _____ _____    ______ ____
ROOT
ATOM      1  N   UNL     1       3.916   6.880  17.167  0.00  0.00    +0.000 N 
ATOM      2  C   UNL     1       3.041   7.549  17.932  0.00  0.00    +0.000 A 
ATOM      3  N   UNL     1       2.305   8.554  17.535  0.00  0.00    +0.000 NA
ATOM      4  C   UNL     1       1.549   8.911  18.619  0.00  0.00    +0.000 A 
ATOM      5  C   UNL     1       0.559   9.899  18.720  0.00  0.00    +0.000 A 
ATOM      6  C   UNL     1      -0.104  10.066  19.942  0.00  0.00    +0.000 A 
ATOM      7 CL   UNL     1      -1.347  11.268  20.008  0.00  0.00    +0.000 Cl
ATOM      8  C   UNL     1       0.229   9.277  21.051  0.00  0.00    +0.000 A 
ATOM      9 CL   UNL     1      -0.568   9.452  22.577  0.00  0.00    +0.000 Cl
ATOM     10  C   UNL     1       1.224   8.289  20.965  0.00  0.00    +0.000 A 
ATOM     11  C   UNL     1       1.856   8.123  19.725  0.00  0.00    +0.000 A 
ATOM     12  N   UNL     1       2.811   7.244  19.255  0.00  0.00    +0.000 N 
ATOM     13  H   UNL     1       4.120   7.310  16.269  0.00  0.00    +0.000 HD
ATOM     14  H   UNL     1       4.722   6.410  17.567  0.00  0.00    +0.000 HD
ENDROOT
BRANCH  12  15
ATOM     15  C   UNL     1       3.319   6.078  19.963  0.00  0.00    +0.000 C 
BRANCH  15  16
ATOM     16  C   UNL     1       2.588   4.782  19.685  0.00  0.00    +0.000 A 
ATOM     17  C   UNL     1       1.301   4.491  20.164  0.00  0.00    +0.000 A 
ATOM     18  C   UNL     1       0.733   3.227  19.972  0.00  0.00    +0.000 A 
ATOM     19  C   UNL     1       1.440   2.234  19.297  0.00  0.00    +0.000 A 
ATOM     20  C   UNL     1       2.711   2.511  18.805  0.00  0.00    +0.000 A 
ATOM     21 CL   UNL     1       3.593   1.289  17.976  0.00  0.00    +0.000 Cl
ATOM     22  C   UNL     1       3.284   3.770  18.996  0.00  0.00    +0.000 A 
ENDBRANCH  15  16
ENDBRANCH  12  15
TORSDOF 2
ENDMDL
MODEL 9
REMARK VINA RESULT:      -7.1      2.778      5.564
REMARK  Name = 
REMARK  2 active torsions:
REMARK  status: ('A' for Active; 'I' for Inactive)
REMARK    1  A    between atoms: N_12  and  C_13
REMARK    2  A    between atoms: C_13  and  C_14
REMARK                            x       y       z     vdW  Elec       q    Type
REMARK                         _______ _______ _______ _____ _____    ______ ____
ROOT
ATOM      1  N   UNL     1       5.678   3.964  15.157  0.00  0.00    +0.000 N 
ATOM      2  C   UNL     1       4.834   4.141  16.183  0.00  0.00    +0.000 A 
ATOM      3  N   UNL     1       4.174   3.189  16.792  0.00  0.00    +0.000 NA
ATOM      4  C   UNL     1       3.461   3.807  17.784  0.00  0.00    +0.000 A 
ATOM      5  C   UNL     1       2.628   3.240  18.759  0.00  0.00    +0.000 A 
ATOM      6  C   UNL     1       2.017   4.082  19.696  0.00  0.00    +0.000 A 
ATOM      7 CL   UNL     1       1.031   3.335  20.905  0.00  0.00    +0.000 Cl
ATOM      8  C   UNL     1       2.216   5.468  19.648  0.00  0.00    +0.000 A 
ATOM      9 CL   UNL     1       1.479   6.542  20.788  0.00  0.00    +0.000 Cl
ATOM     10  C   UNL     1       3.041   6.050  18.672  0.00  0.00    +0.000 A 
ATOM     11  C   UNL     1       3.662   5.184  17.761  0.00  0.00    +0.000 A 
ATOM     12  N   UNL     1       4.561   5.375  16.730  0.00  0.00    +0.000 N 
ATOM     13  H   UNL     1       5.658   3.038  14.737  0.00  0.00    +0.000 HD
ATOM     14  H   UNL     1       5.849   4.698  14.476  0.00  0.00    +0.000 HD
ENDROOT
BRANCH  12  15
ATOM     15  C   UNL     1       5.252   6.617  16.420  0.00  0.00    +0.000 C 
BRANCH  15  16
ATOM     16  C   UNL     1       6.475   6.906  17.263  0.00  0.00    +0.000 A 
ATOM     17  C   UNL     1       7.033   5.992  18.171  0.00  0.00    +0.000 A 
ATOM     18  C   UNL     1       8.091   6.366  19.007  0.00  0.00    +0.000 A 
ATOM     19  C   UNL     1       8.610   7.658  18.949  0.00  0.00    +0.000 A 
ATOM     20  C   UNL     1       8.076   8.571  18.045  0.00  0.00    +0.000 A 
ATOM     21 CL   UNL     1       8.707  10.169  17.971  0.00  0.00    +0.000 Cl
ATOM     22  C   UNL     1       7.019   8.204  17.211  0.00  0.00    +0.000 A 
ENDBRANCH  15  16
ENDBRANCH  12  15
TORSDOF 2
ENDMDL
