MODEL 1
REMARK VINA RESULT:      -7.3      0.000      0.000
REMARK  Name = 
REMARK  6 active torsions:
REMARK  status: ('A' for Active; 'I' for Inactive)
REMARK    1  A    between atoms: C_2  and  C_4
REMARK    2  A    between atoms: C_4  and  N_5
REMARK    3  A    between atoms: N_5  and  O_6
REMARK    4  A    between atoms: N_9  and  C_10
REMARK    5  A    between atoms: C_17  and  C_18
REMARK    6  A    between atoms: N_25  and  C_26
REMARK                            x       y       z     vdW  Elec       q    Type
REMARK                         _______ _______ _______ _____ _____    ______ ____
ROOT
ATOM      1  C   UNL     1      -3.104  13.909  21.336  0.00  0.00    +0.000 A 
ATOM      2  N   UNL     1      -3.108  15.279  21.257  0.00  0.00    +0.000 NA
ATOM      3  C   UNL     1      -1.954  15.907  20.935  0.00  0.00    +0.000 A 
ATOM      4  N   UNL     1      -0.758  15.375  20.634  0.00  0.00    +0.000 NA
ATOM      5  C   UNL     1      -0.799  14.029  20.663  0.00  0.00    +0.000 A 
ATOM      6  C   UNL     1      -1.901  13.256  20.992  0.00  0.00    +0.000 A 
ATOM      7  N   UNL     1      -1.588  11.921  20.884  0.00  0.00    +0.000 NA
ATOM      8  C   UNL     1      -0.331  11.843  20.486  0.00  0.00    +0.000 A 
ATOM      9  N   UNL     1       0.193  13.137  20.289  0.00  0.00    +0.000 N 
ENDROOT
BRANCH   8  10
ATOM     10  C   UNL     1       0.404  10.563  20.373  0.00  0.00    +0.000 A 
ATOM     11  C   UNL     1       0.984  10.184  19.144  0.00  0.00    +0.000 A 
ATOM     12  C   UNL     1       1.575   8.937  18.952  0.00  0.00    +0.000 A 
ATOM     13  C   UNL     1       1.722   8.083  20.030  0.00  0.00    +0.000 A 
ATOM     14  C   UNL     1       1.230   8.456  21.281  0.00  0.00    +0.000 A 
ATOM     15  C   UNL     1       0.553   9.674  21.454  0.00  0.00    +0.000 A 
ATOM     16 CL   UNL     1      -0.109   9.961  23.028  0.00  0.00    +0.000 Cl
ENDBRANCH   8  10
BRANCH   9  17
ATOM     17  C   UNL     1       1.490  13.488  19.805  0.00  0.00    +0.000 A 
ATOM     18  C   UNL     1       2.525  13.786  20.707  0.00  0.00    +0.000 A 
ATOM     19  C   UNL     1       3.733  14.312  20.252  0.00  0.00    +0.000 A 
ATOM     20  C   UNL     1       3.939  14.476  18.887  0.00  0.00    +0.000 A 
ATOM     21 CL   UNL     1       5.439  15.100  18.328  0.00  0.00    +0.000 Cl
ATOM     22  C   UNL     1       2.938  14.136  17.976  0.00  0.00    +0.000 A 
ATOM     23  C   UNL     1       1.711  13.640  18.431  0.00  0.00    +0.000 A 
ENDBRANCH   9  17
BRANCH   1  27
ATOM     24  C   UNL     1      -6.856  13.249  22.910  0.00  0.00    +0.000 C 
ATOM     25  C   UNL     1      -6.609  13.814  21.492  0.00  0.00    +0.000 C 
ATOM     26  C   UNL     1      -5.402  13.176  20.817  0.00  0.00    +0.000 C 
ATOM     27  N   UNL     1      -4.259  13.257  21.714  0.00  0.00    +0.000 N 
ATOM     28  C   UNL     1      -4.387  12.587  22.995  0.00  0.00    +0.000 C 
ATOM     29  C   UNL     1      -5.558  13.221  23.757  0.00  0.00    +0.000 C 
BRANCH  24  31
ATOM     30  N   UNL     1      -7.584  11.290  21.533  0.00  0.00    +0.000 N 
ATOM     31  C   UNL     1      -7.425  11.795  22.791  0.00  0.00    +0.000 C 
ATOM     32  O   UNL     1      -7.766  11.096  23.749  0.00  0.00    +0.000 OA
ATOM     33  H   UNL     1      -7.862  10.315  21.505  0.00  0.00    +0.000 HD
ATOM     34  H   UNL     1      -6.989  11.605  20.781  0.00  0.00    +0.000 HD
ENDBRANCH  24  31
BRANCH  24  35
ATOM     35  N   UNL     1      -7.916  14.070  23.585  0.00  0.00    +0.000 NA
ATOM     36  H   UNL     1      -8.840  13.735  23.309  0.00  0.00    +0.000 HD
BRANCH  35  37
ATOM     37  O   UNL     1      -7.916  13.697  24.998  0.00  0.00    +0.000 OA
ATOM     38  H   UNL     1      -7.965  12.720  24.970  0.00  0.00    +0.000 HD
ENDBRANCH  35  37
ENDBRANCH  24  35
ENDBRANCH   1  27
TORSDOF 6
ENDMDL
MODEL 2
REMARK VINA RESULT:      -7.1      4.646      8.022
REMARK  Name = 
REMARK  6 active torsions:
REMARK  status: ('A' for Active; 'I' for Inactive)
REMARK    1  A    between atoms: C_2  and  C_4
REMARK    2  A    between atoms: C_4  and  N_5
REMARK    3  A    between atoms: N_5  and  O_6
REMARK    4  A    between atoms: N_9  and  C_10
REMARK    5  A    between atoms: C_17  and  C_18
REMARK    6  A    between atoms: N_25  and  C_26
REMARK                            x       y       z     vdW  Elec       q    Type
REMARK                         _______ _______ _______ _____ _____    ______ ____
ROOT
ATOM      1  C   UNL     1       2.071  15.518  20.247  0.00  0.00    +0.000 A 
ATOM      2  N   UNL     1       1.655  16.537  19.427  0.00  0.00    +0.000 NA
ATOM      3  C   UNL     1       0.533  16.355  18.695  0.00  0.00    +0.000 A 
ATOM      4  N   UNL     1      -0.296  15.299  18.667  0.00  0.00    +0.000 NA
ATOM      5  C   UNL     1       0.104  14.339  19.524  0.00  0.00    +0.000 A 
ATOM      6  C   UNL     1       1.238  14.380  20.319  0.00  0.00    +0.000 A 
ATOM      7  N   UNL     1       1.313  13.244  21.090  0.00  0.00    +0.000 NA
ATOM      8  C   UNL     1       0.255  12.506  20.806  0.00  0.00    +0.000 A 
ATOM      9  N   UNL     1      -0.556  13.170  19.863  0.00  0.00    +0.000 N 
ENDROOT
BRANCH   8  10
ATOM     10  C   UNL     1       0.048  11.145  21.350  0.00  0.00    +0.000 A 
ATOM     11  C   UNL     1      -0.543  10.970  22.618  0.00  0.00    +0.000 A 
ATOM     12  C   UNL     1      -0.644   9.721  23.228  0.00  0.00    +0.000 A 
ATOM     13  C   UNL     1      -0.276   8.590  22.522  0.00  0.00    +0.000 A 
ATOM     14  C   UNL     1       0.241   8.717  21.232  0.00  0.00    +0.000 A 
ATOM     15  C   UNL     1       0.429   9.982  20.653  0.00  0.00    +0.000 A 
ATOM     16 CL   UNL     1       1.188  10.003  19.097  0.00  0.00    +0.000 Cl
ENDBRANCH   8  10
BRANCH   9  17
ATOM     17  C   UNL     1      -1.816  12.741  19.342  0.00  0.00    +0.000 A 
ATOM     18  C   UNL     1      -2.995  12.959  20.074  0.00  0.00    +0.000 A 
ATOM     19  C   UNL     1      -4.196  12.379  19.670  0.00  0.00    +0.000 A 
ATOM     20  C   UNL     1      -4.240  11.639  18.495  0.00  0.00    +0.000 A 
ATOM     21 CL   UNL     1      -5.730  10.947  17.986  0.00  0.00    +0.000 Cl
ATOM     22  C   UNL     1      -3.087  11.457  17.731  0.00  0.00    +0.000 A 
ATOM     23  C   UNL     1      -1.871  12.008  18.151  0.00  0.00    +0.000 A 
ENDBRANCH   9  17
BRANCH   1  27
ATOM     24  C   UNL     1       4.892  15.083  23.220  0.00  0.00    +0.000 C 
ATOM     25  C   UNL     1       4.714  14.081  22.056  0.00  0.00    +0.000 C 
ATOM     26  C   UNL     1       4.371  14.776  20.743  0.00  0.00    +0.000 C 
ATOM     27  N   UNL     1       3.242  15.667  20.960  0.00  0.00    +0.000 N 
ATOM     28  C   UNL     1       3.430  16.735  21.925  0.00  0.00    +0.000 C 
ATOM     29  C   UNL     1       3.727  16.102  23.292  0.00  0.00    +0.000 C 
BRANCH  24  31
ATOM     30  N   UNL     1       7.328  15.124  22.646  0.00  0.00    +0.000 N 
ATOM     31  C   UNL     1       6.241  15.855  23.031  0.00  0.00    +0.000 C 
ATOM     32  O   UNL     1       6.392  17.062  23.235  0.00  0.00    +0.000 OA
ATOM     33  H   UNL     1       8.154  15.677  22.442  0.00  0.00    +0.000 HD
ATOM     34  H   UNL     1       7.207  14.285  22.098  0.00  0.00    +0.000 HD
ENDBRANCH  24  31
BRANCH  24  35
ATOM     35  N   UNL     1       5.013  14.319  24.506  0.00  0.00    +0.000 NA
ATOM     36  H   UNL     1       4.084  14.082  24.857  0.00  0.00    +0.000 HD
BRANCH  35  37
ATOM     37  O   UNL     1       5.511  12.986  24.170  0.00  0.00    +0.000 OA
ATOM     38  H   UNL     1       6.397  13.167  23.796  0.00  0.00    +0.000 HD
ENDBRANCH  35  37
ENDBRANCH  24  35
ENDBRANCH   1  27
TORSDOF 6
ENDMDL
MODEL 3
REMARK VINA RESULT:      -7.0      4.564      8.396
REMARK  Name = 
REMARK  6 active torsions:
REMARK  status: ('A' for Active; 'I' for Inactive)
REMARK    1  A    between atoms: C_2  and  C_4
REMARK    2  A    between atoms: C_4  and  N_5
REMARK    3  A    between atoms: N_5  and  O_6
REMARK    4  A    between atoms: N_9  and  C_10
REMARK    5  A    between atoms: C_17  and  C_18
REMARK    6  A    between atoms: N_25  and  C_26
REMARK                            x       y       z     vdW  Elec       q    Type
REMARK                         _______ _______ _______ _____ _____    ______ ____
ROOT
ATOM      1  C   UNL     1       0.642  16.260  20.923  0.00  0.00    +0.000 A 
ATOM      2  N   UNL     1      -0.082  17.412  21.096  0.00  0.00    +0.000 NA
ATOM      3  C   UNL     1      -1.382  17.306  21.454  0.00  0.00    +0.000 A 
ATOM      4  N   UNL     1      -2.100  16.201  21.711  0.00  0.00    +0.000 NA
ATOM      5  C   UNL     1      -1.349  15.089  21.591  0.00  0.00    +0.000 A 
ATOM      6  C   UNL     1      -0.016  15.046  21.214  0.00  0.00    +0.000 A 
ATOM      7  N   UNL     1       0.435  13.746  21.229  0.00  0.00    +0.000 NA
ATOM      8  C   UNL     1      -0.573  12.985  21.614  0.00  0.00    +0.000 A 
ATOM      9  N   UNL     1      -1.700  13.785  21.896  0.00  0.00    +0.000 N 
ENDROOT
BRANCH   8  10
ATOM     10  C   UNL     1      -0.509  11.507  21.635  0.00  0.00    +0.000 A 
ATOM     11  C   UNL     1      -0.599  10.810  22.859  0.00  0.00    +0.000 A 
ATOM     12  C   UNL     1      -0.418   9.431  22.946  0.00  0.00    +0.000 A 
ATOM     13  C   UNL     1      -0.274   8.690  21.786  0.00  0.00    +0.000 A 
ATOM     14  C   UNL     1      -0.260   9.337  20.550  0.00  0.00    +0.000 A 
ATOM     15  C   UNL     1      -0.350  10.736  20.468  0.00  0.00    +0.000 A 
ATOM     16 CL   UNL     1      -0.200  11.417  18.884  0.00  0.00    +0.000 Cl
ENDBRANCH   8  10
BRANCH   9  17
ATOM     17  C   UNL     1      -2.968  13.358  22.397  0.00  0.00    +0.000 A 
ATOM     18  C   UNL     1      -4.032  13.115  21.513  0.00  0.00    +0.000 A 
ATOM     19  C   UNL     1      -5.318  12.886  21.997  0.00  0.00    +0.000 A 
ATOM     20  C   UNL     1      -5.535  12.828  23.369  0.00  0.00    +0.000 A 
ATOM     21 CL   UNL     1      -7.118  12.520  23.962  0.00  0.00    +0.000 Cl
ATOM     22  C   UNL     1      -4.478  13.018  24.259  0.00  0.00    +0.000 A 
ATOM     23  C   UNL     1      -3.190  13.282  23.777  0.00  0.00    +0.000 A 
ENDBRANCH   9  17
BRANCH   1  27
ATOM     24  C   UNL     1       4.123  15.497  18.850  0.00  0.00    +0.000 C 
ATOM     25  C   UNL     1       2.984  16.393  18.311  0.00  0.00    +0.000 C 
ATOM     26  C   UNL     1       2.334  17.226  19.409  0.00  0.00    +0.000 C 
ATOM     27  N   UNL     1       1.955  16.350  20.506  0.00  0.00    +0.000 N 
ATOM     28  C   UNL     1       3.025  15.619  21.158  0.00  0.00    +0.000 C 
ATOM     29  C   UNL     1       3.693  14.712  20.115  0.00  0.00    +0.000 C 
BRANCH  24  31
ATOM     30  N   UNL     1       6.202  15.943  20.171  0.00  0.00    +0.000 N 
ATOM     31  C   UNL     1       5.360  16.393  19.196  0.00  0.00    +0.000 C 
ATOM     32  O   UNL     1       5.603  17.483  18.672  0.00  0.00    +0.000 OA
ATOM     33  H   UNL     1       7.039  16.503  20.294  0.00  0.00    +0.000 HD
ATOM     34  H   UNL     1       6.301  14.953  20.338  0.00  0.00    +0.000 HD
ENDBRANCH  24  31
BRANCH  24  35
ATOM     35  N   UNL     1       4.562  14.561  17.763  0.00  0.00    +0.000 NA
ATOM     36  H   UNL     1       4.259  14.917  16.856  0.00  0.00    +0.000 HD
BRANCH  35  37
ATOM     37  O   UNL     1       6.010  14.707  17.627  0.00  0.00    +0.000 OA
ATOM     38  H   UNL     1       6.241  14.028  16.961  0.00  0.00    +0.000 HD
ENDBRANCH  35  37
ENDBRANCH  24  35
ENDBRANCH   1  27
TORSDOF 6
ENDMDL
MODEL 4
REMARK VINA RESULT:      -7.0      4.735      7.984
REMARK  Name = 
REMARK  6 active torsions:
REMARK  status: ('A' for Active; 'I' for Inactive)
REMARK    1  A    between atoms: C_2  and  C_4
REMARK    2  A    between atoms: C_4  and  N_5
REMARK    3  A    between atoms: N_5  and  O_6
REMARK    4  A    between atoms: N_9  and  C_10
REMARK    5  A    between atoms: C_17  and  C_18
REMARK    6  A    between atoms: N_25  and  C_26
REMARK                            x       y       z     vdW  Elec       q    Type
REMARK                         _______ _______ _______ _____ _____    ______ ____
ROOT
ATOM      1  C   UNL     1       2.196  15.535  20.294  0.00  0.00    +0.000 A 
ATOM      2  N   UNL     1       1.791  16.546  19.460  0.00  0.00    +0.000 NA
ATOM      3  C   UNL     1       0.685  16.352  18.704  0.00  0.00    +0.000 A 
ATOM      4  N   UNL     1      -0.135  15.290  18.666  0.00  0.00    +0.000 NA
ATOM      5  C   UNL     1       0.253  14.338  19.536  0.00  0.00    +0.000 A 
ATOM      6  C   UNL     1       1.370  14.392  20.355  0.00  0.00    +0.000 A 
ATOM      7  N   UNL     1       1.437  13.261  21.135  0.00  0.00    +0.000 NA
ATOM      8  C   UNL     1       0.391  12.514  20.832  0.00  0.00    +0.000 A 
ATOM      9  N   UNL     1      -0.405  13.166  19.869  0.00  0.00    +0.000 N 
ENDROOT
BRANCH   8  10
ATOM     10  C   UNL     1       0.183  11.154  21.380  0.00  0.00    +0.000 A 
ATOM     11  C   UNL     1       0.793  10.040  20.765  0.00  0.00    +0.000 A 
ATOM     12  C   UNL     1       0.528   8.732  21.163  0.00  0.00    +0.000 A 
ATOM     13  C   UNL     1      -0.255   8.508  22.281  0.00  0.00    +0.000 A 
ATOM     14  C   UNL     1      -0.812   9.590  22.963  0.00  0.00    +0.000 A 
ATOM     15  C   UNL     1      -0.621  10.904  22.508  0.00  0.00    +0.000 A 
ATOM     16 CL   UNL     1      -1.465  12.142  23.376  0.00  0.00    +0.000 Cl
ENDBRANCH   8  10
BRANCH   9  17
ATOM     17  C   UNL     1      -1.650  12.725  19.323  0.00  0.00    +0.000 A 
ATOM     18  C   UNL     1      -2.846  12.938  20.028  0.00  0.00    +0.000 A 
ATOM     19  C   UNL     1      -4.034  12.348  19.603  0.00  0.00    +0.000 A 
ATOM     20  C   UNL     1      -4.048  11.600  18.432  0.00  0.00    +0.000 A 
ATOM     21 CL   UNL     1      -5.521  10.894  17.896  0.00  0.00    +0.000 Cl
ATOM     22  C   UNL     1      -2.877  11.421  17.694  0.00  0.00    +0.000 A 
ATOM     23  C   UNL     1      -1.674  11.984  18.136  0.00  0.00    +0.000 A 
ENDBRANCH   9  17
BRANCH   1  27
ATOM     24  C   UNL     1       4.961  15.130  23.324  0.00  0.00    +0.000 C 
ATOM     25  C   UNL     1       4.818  14.128  22.155  0.00  0.00    +0.000 C 
ATOM     26  C   UNL     1       4.494  14.819  20.836  0.00  0.00    +0.000 C 
ATOM     27  N   UNL     1       3.351  15.698  21.031  0.00  0.00    +0.000 N 
ATOM     28  C   UNL     1       3.507  16.767  22.000  0.00  0.00    +0.000 C 
ATOM     29  C   UNL     1       3.783  16.136  23.372  0.00  0.00    +0.000 C 
BRANCH  24  31
ATOM     30  N   UNL     1       7.398  15.208  22.758  0.00  0.00    +0.000 N 
ATOM     31  C   UNL     1       6.305  15.918  23.162  0.00  0.00    +0.000 C 
ATOM     32  O   UNL     1       6.446  17.119  23.405  0.00  0.00    +0.000 OA
ATOM     33  H   UNL     1       8.220  15.773  22.573  0.00  0.00    +0.000 HD
ATOM     34  H   UNL     1       7.285  14.386  22.184  0.00  0.00    +0.000 HD
ENDBRANCH  24  31
BRANCH  24  35
ATOM     35  N   UNL     1       5.064  14.367  24.612  0.00  0.00    +0.000 NA
ATOM     36  H   UNL     1       4.131  14.136  24.953  0.00  0.00    +0.000 HD
BRANCH  35  37
ATOM     37  O   UNL     1       5.557  13.030  24.282  0.00  0.00    +0.000 OA
ATOM     38  H   UNL     1       4.734  12.512  24.170  0.00  0.00    +0.000 HD
ENDBRANCH  35  37
ENDBRANCH  24  35
ENDBRANCH   1  27
TORSDOF 6
ENDMDL
MODEL 5
REMARK VINA RESULT:      -7.0      4.624      8.428
REMARK  Name = 
REMARK  6 active torsions:
REMARK  status: ('A' for Active; 'I' for Inactive)
REMARK    1  A    between atoms: C_2  and  C_4
REMARK    2  A    between atoms: C_4  and  N_5
REMARK    3  A    between atoms: N_5  and  O_6
REMARK    4  A    between atoms: N_9  and  C_10
REMARK    5  A    between atoms: C_17  and  C_18
REMARK    6  A    between atoms: N_25  and  C_26
REMARK                            x       y       z     vdW  Elec       q    Type
REMARK                         _______ _______ _______ _____ _____    ______ ____
ROOT
ATOM      1  C   UNL     1       0.532  16.372  19.965  0.00  0.00    +0.000 A 
ATOM      2  N   UNL     1      -0.217  17.501  19.751  0.00  0.00    +0.000 NA
ATOM      3  C   UNL     1      -1.561  17.414  19.875  0.00  0.00    +0.000 A 
ATOM      4  N   UNL     1      -2.310  16.355  20.223  0.00  0.00    +0.000 NA
ATOM      5  C   UNL     1      -1.544  15.278  20.484  0.00  0.00    +0.000 A 
ATOM      6  C   UNL     1      -0.164  15.217  20.380  0.00  0.00    +0.000 A 
ATOM      7  N   UNL     1       0.282  13.971  20.754  0.00  0.00    +0.000 NA
ATOM      8  C   UNL     1      -0.778  13.262  21.098  0.00  0.00    +0.000 A 
ATOM      9  N   UNL     1      -1.941  14.051  20.989  0.00  0.00    +0.000 N 
ENDROOT
BRANCH   8  10
ATOM     10  C   UNL     1      -0.712  11.824  21.444  0.00  0.00    +0.000 A 
ATOM     11  C   UNL     1      -0.894  11.407  22.780  0.00  0.00    +0.000 A 
ATOM     12  C   UNL     1      -0.717  10.084  23.178  0.00  0.00    +0.000 A 
ATOM     13  C   UNL     1      -0.483   9.112  22.221  0.00  0.00    +0.000 A 
ATOM     14  C   UNL     1      -0.375   9.476  20.878  0.00  0.00    +0.000 A 
ATOM     15  C   UNL     1      -0.462  10.822  20.488  0.00  0.00    +0.000 A 
ATOM     16 CL   UNL     1      -0.191  11.147  18.809  0.00  0.00    +0.000 Cl
ENDBRANCH   8  10
BRANCH   9  17
ATOM     17  C   UNL     1      -3.280  13.680  21.324  0.00  0.00    +0.000 A 
ATOM     18  C   UNL     1      -3.762  13.877  22.628  0.00  0.00    +0.000 A 
ATOM     19  C   UNL     1      -4.992  13.348  23.016  0.00  0.00    +0.000 A 
ATOM     20  C   UNL     1      -5.777  12.681  22.083  0.00  0.00    +0.000 A 
ATOM     21 CL   UNL     1      -7.305  12.052  22.559  0.00  0.00    +0.000 Cl
ATOM     22  C   UNL     1      -5.333  12.522  20.771  0.00  0.00    +0.000 A 
ATOM     23  C   UNL     1      -4.083  13.022  20.385  0.00  0.00    +0.000 A 
ENDBRANCH   9  17
BRANCH   1  27
ATOM     24  C   UNL     1       4.325  15.456  18.635  0.00  0.00    +0.000 C 
ATOM     25  C   UNL     1       3.315  16.301  17.826  0.00  0.00    +0.000 C 
ATOM     26  C   UNL     1       2.484  17.219  18.715  0.00  0.00    +0.000 C 
ATOM     27  N   UNL     1       1.900  16.433  19.791  0.00  0.00    +0.000 N 
ATOM     28  C   UNL     1       2.825  15.762  20.684  0.00  0.00    +0.000 C 
ATOM     29  C   UNL     1       3.662  14.775  19.859  0.00  0.00    +0.000 C 
BRANCH  24  31
ATOM     30  N   UNL     1       6.196  15.965  20.219  0.00  0.00    +0.000 N 
ATOM     31  C   UNL     1       5.488  16.382  19.128  0.00  0.00    +0.000 C 
ATOM     32  O   UNL     1       5.782  17.468  18.622  0.00  0.00    +0.000 OA
ATOM     33  H   UNL     1       6.998  16.544  20.443  0.00  0.00    +0.000 HD
ATOM     34  H   UNL     1       6.289  14.980  20.417  0.00  0.00    +0.000 HD
ENDBRANCH  24  31
BRANCH  24  35
ATOM     35  N   UNL     1       4.946  14.436  17.726  0.00  0.00    +0.000 NA
ATOM     36  H   UNL     1       4.683  14.629  16.759  0.00  0.00    +0.000 HD
BRANCH  35  37
ATOM     37  O   UNL     1       6.378  14.726  17.668  0.00  0.00    +0.000 OA
ATOM     38  H   UNL     1       6.662  14.625  18.599  0.00  0.00    +0.000 HD
ENDBRANCH  35  37
ENDBRANCH  24  35
ENDBRANCH   1  27
TORSDOF 6
ENDMDL
MODEL 6
REMARK VINA RESULT:      -6.9      5.155      8.943
REMARK  Name = 
REMARK  6 active torsions:
REMARK  status: ('A' for Active; 'I' for Inactive)
REMARK    1  A    between atoms: C_2  and  C_4
REMARK    2  A    between atoms: C_4  and  N_5
REMARK    3  A    between atoms: N_5  and  O_6
REMARK    4  A    between atoms: N_9  and  C_10
REMARK    5  A    between atoms: C_17  and  C_18
REMARK    6  A    between atoms: N_25  and  C_26
REMARK                            x       y       z     vdW  Elec       q    Type
REMARK                         _______ _______ _______ _____ _____    ______ ____
ROOT
ATOM      1  C   UNL     1       2.259  15.259  19.254  0.00  0.00    +0.000 A 
ATOM      2  N   UNL     1       1.735  16.381  18.664  0.00  0.00    +0.000 NA
ATOM      3  C   UNL     1       0.398  16.442  18.471  0.00  0.00    +0.000 A 
ATOM      4  N   UNL     1      -0.546  15.550  18.813  0.00  0.00    +0.000 NA
ATOM      5  C   UNL     1      -0.010  14.486  19.442  0.00  0.00    +0.000 A 
ATOM      6  C   UNL     1       1.338  14.282  19.690  0.00  0.00    +0.000 A 
ATOM      7  N   UNL     1       1.517  13.106  20.381  0.00  0.00    +0.000 NA
ATOM      8  C   UNL     1       0.321  12.582  20.579  0.00  0.00    +0.000 A 
ATOM      9  N   UNL     1      -0.672  13.432  20.049  0.00  0.00    +0.000 N 
ENDROOT
BRANCH   8  10
ATOM     10  C   UNL     1       0.113  11.248  21.186  0.00  0.00    +0.000 A 
ATOM     11  C   UNL     1      -0.461  11.134  22.470  0.00  0.00    +0.000 A 
ATOM     12  C   UNL     1      -0.561   9.914  23.135  0.00  0.00    +0.000 A 
ATOM     13  C   UNL     1      -0.211   8.749  22.475  0.00  0.00    +0.000 A 
ATOM     14  C   UNL     1       0.287   8.815  21.174  0.00  0.00    +0.000 A 
ATOM     15  C   UNL     1       0.475  10.053  20.536  0.00  0.00    +0.000 A 
ATOM     16 CL   UNL     1       1.210   9.998  18.970  0.00  0.00    +0.000 Cl
ENDBRANCH   8  10
BRANCH   9  17
ATOM     17  C   UNL     1      -2.089  13.260  20.110  0.00  0.00    +0.000 A 
ATOM     18  C   UNL     1      -2.832  13.875  21.131  0.00  0.00    +0.000 A 
ATOM     19  C   UNL     1      -4.178  13.562  21.314  0.00  0.00    +0.000 A 
ATOM     20  C   UNL     1      -4.806  12.689  20.434  0.00  0.00    +0.000 A 
ATOM     21 CL   UNL     1      -6.472  12.326  20.648  0.00  0.00    +0.000 Cl
ATOM     22  C   UNL     1      -4.092  12.109  19.385  0.00  0.00    +0.000 A 
ATOM     23  C   UNL     1      -2.731  12.394  19.218  0.00  0.00    +0.000 A 
ENDBRANCH   9  17
BRANCH   1  27
ATOM     24  C   UNL     1       6.261  16.241  19.166  0.00  0.00    +0.000 C 
ATOM     25  C   UNL     1       5.295  16.683  20.290  0.00  0.00    +0.000 C 
ATOM     26  C   UNL     1       4.275  15.605  20.634  0.00  0.00    +0.000 C 
ATOM     27  N   UNL     1       3.626  15.160  19.410  0.00  0.00    +0.000 N 
ATOM     28  C   UNL     1       4.481  14.575  18.394  0.00  0.00    +0.000 C 
ATOM     29  C   UNL     1       5.505  15.632  17.959  0.00  0.00    +0.000 C 
BRANCH  24  31
ATOM     30  N   UNL     1       7.673  15.345  21.028  0.00  0.00    +0.000 N 
ATOM     31  C   UNL     1       7.261  15.180  19.738  0.00  0.00    +0.000 C 
ATOM     32  O   UNL     1       7.720  14.233  19.094  0.00  0.00    +0.000 OA
ATOM     33  H   UNL     1       8.241  14.584  21.387  0.00  0.00    +0.000 HD
ATOM     34  H   UNL     1       7.075  15.807  21.697  0.00  0.00    +0.000 HD
ENDBRANCH  24  31
BRANCH  24  35
ATOM     35  N   UNL     1       7.086  17.421  18.741  0.00  0.00    +0.000 NA
ATOM     36  H   UNL     1       7.251  18.034  19.540  0.00  0.00    +0.000 HD
BRANCH  35  37
ATOM     37  O   UNL     1       8.444  16.934  18.504  0.00  0.00    +0.000 OA
ATOM     38  H   UNL     1       8.933  17.248  19.291  0.00  0.00    +0.000 HD
ENDBRANCH  35  37
ENDBRANCH  24  35
ENDBRANCH   1  27
TORSDOF 6
ENDMDL
MODEL 7
REMARK VINA RESULT:      -6.9      5.241      8.824
REMARK  Name = 
REMARK  6 active torsions:
REMARK  status: ('A' for Active; 'I' for Inactive)
REMARK    1  A    between atoms: C_2  and  C_4
REMARK    2  A    between atoms: C_4  and  N_5
REMARK    3  A    between atoms: N_5  and  O_6
REMARK    4  A    between atoms: N_9  and  C_10
REMARK    5  A    between atoms: C_17  and  C_18
REMARK    6  A    between atoms: N_25  and  C_26
REMARK                            x       y       z     vdW  Elec       q    Type
REMARK                         _______ _______ _______ _____ _____    ______ ____
ROOT
ATOM      1  C   UNL     1       2.341  15.300  19.338  0.00  0.00    +0.000 A 
ATOM      2  N   UNL     1       1.675  16.389  18.836  0.00  0.00    +0.000 NA
ATOM      3  C   UNL     1       0.379  16.240  18.476  0.00  0.00    +0.000 A 
ATOM      4  N   UNL     1      -0.402  15.152  18.568  0.00  0.00    +0.000 NA
ATOM      5  C   UNL     1       0.261  14.116  19.118  0.00  0.00    +0.000 A 
ATOM      6  C   UNL     1       1.589  14.120  19.515  0.00  0.00    +0.000 A 
ATOM      7  N   UNL     1       1.919  12.902  20.062  0.00  0.00    +0.000 NA
ATOM      8  C   UNL     1       0.834  12.149  20.027  0.00  0.00    +0.000 A 
ATOM      9  N   UNL     1      -0.243  12.880  19.487  0.00  0.00    +0.000 N 
ENDROOT
BRANCH   8  10
ATOM     10  C   UNL     1       0.828  10.722  20.420  0.00  0.00    +0.000 A 
ATOM     11  C   UNL     1       0.381  10.340  21.702  0.00  0.00    +0.000 A 
ATOM     12  C   UNL     1       0.473   9.029  22.164  0.00  0.00    +0.000 A 
ATOM     13  C   UNL     1       0.893   8.033  21.301  0.00  0.00    +0.000 A 
ATOM     14  C   UNL     1       1.269   8.361  19.998  0.00  0.00    +0.000 A 
ATOM     15  C   UNL     1       1.264   9.695  19.561  0.00  0.00    +0.000 A 
ATOM     16 CL   UNL     1       1.866   9.975  17.962  0.00  0.00    +0.000 Cl
ENDBRANCH   8  10
BRANCH   9  17
ATOM     17  C   UNL     1      -1.597  12.452  19.334  0.00  0.00    +0.000 A 
ATOM     18  C   UNL     1      -1.985  11.726  18.196  0.00  0.00    +0.000 A 
ATOM     19  C   UNL     1      -3.332  11.470  17.944  0.00  0.00    +0.000 A 
ATOM     20  C   UNL     1      -4.292  11.877  18.863  0.00  0.00    +0.000 A 
ATOM     21 CL   UNL     1      -5.949  11.536  18.561  0.00  0.00    +0.000 Cl
ATOM     22  C   UNL     1      -3.916  12.555  20.023  0.00  0.00    +0.000 A 
ATOM     23  C   UNL     1      -2.568  12.844  20.264  0.00  0.00    +0.000 A 
ENDBRANCH   9  17
BRANCH   1  27
ATOM     24  C   UNL     1       6.028  17.004  20.041  0.00  0.00    +0.000 C 
ATOM     25  C   UNL     1       4.889  16.966  21.086  0.00  0.00    +0.000 C 
ATOM     26  C   UNL     1       4.098  15.665  21.032  0.00  0.00    +0.000 C 
ATOM     27  N   UNL     1       3.677  15.423  19.661  0.00  0.00    +0.000 N 
ATOM     28  C   UNL     1       4.729  15.278  18.672  0.00  0.00    +0.000 C 
ATOM     29  C   UNL     1       5.538  16.582  18.634  0.00  0.00    +0.000 C 
BRANCH  24  31
ATOM     30  N   UNL     1       7.426  15.962  21.838  0.00  0.00    +0.000 N 
ATOM     31  C   UNL     1       7.175  16.040  20.498  0.00  0.00    +0.000 C 
ATOM     32  O   UNL     1       7.881  15.380  19.733  0.00  0.00    +0.000 OA
ATOM     33  H   UNL     1       8.108  15.256  22.096  0.00  0.00    +0.000 HD
ATOM     34  H   UNL     1       6.685  16.129  22.503  0.00  0.00    +0.000 HD
ENDBRANCH  24  31
BRANCH  24  35
ATOM     35  N   UNL     1       6.616  18.385  20.011  0.00  0.00    +0.000 NA
ATOM     36  H   UNL     1       7.079  18.583  20.899  0.00  0.00    +0.000 HD
BRANCH  35  37
ATOM     37  O   UNL     1       7.774  18.341  19.120  0.00  0.00    +0.000 OA
ATOM     38  H   UNL     1       7.873  17.385  18.932  0.00  0.00    +0.000 HD
ENDBRANCH  35  37
ENDBRANCH  24  35
ENDBRANCH   1  27
TORSDOF 6
ENDMDL
MODEL 8
REMARK VINA RESULT:      -6.8      5.150      8.760
REMARK  Name = 
REMARK  6 active torsions:
REMARK  status: ('A' for Active; 'I' for Inactive)
REMARK    1  A    between atoms: C_2  and  C_4
REMARK    2  A    between atoms: C_4  and  N_5
REMARK    3  A    between atoms: N_5  and  O_6
REMARK    4  A    between atoms: N_9  and  C_10
REMARK    5  A    between atoms: C_17  and  C_18
REMARK    6  A    between atoms: N_25  and  C_26
REMARK                            x       y       z     vdW  Elec       q    Type
REMARK                         _______ _______ _______ _____ _____    ______ ____
ROOT
ATOM      1  C   UNL     1       2.333  15.569  19.604  0.00  0.00    +0.000 A 
ATOM      2  N   UNL     1       1.733  16.659  19.027  0.00  0.00    +0.000 NA
ATOM      3  C   UNL     1       0.477  16.520  18.543  0.00  0.00    +0.000 A 
ATOM      4  N   UNL     1      -0.323  15.442  18.568  0.00  0.00    +0.000 NA
ATOM      5  C   UNL     1       0.271  14.405  19.192  0.00  0.00    +0.000 A 
ATOM      6  C   UNL     1       1.553  14.399  19.717  0.00  0.00    +0.000 A 
ATOM      7  N   UNL     1       1.813  13.184  20.308  0.00  0.00    +0.000 NA
ATOM      8  C   UNL     1       0.728  12.442  20.174  0.00  0.00    +0.000 A 
ATOM      9  N   UNL     1      -0.282  13.179  19.522  0.00  0.00    +0.000 N 
ENDROOT
BRANCH   8  10
ATOM     10  C   UNL     1       0.666  11.020  20.579  0.00  0.00    +0.000 A 
ATOM     11  C   UNL     1       0.152  10.664  21.844  0.00  0.00    +0.000 A 
ATOM     12  C   UNL     1       0.189   9.356  22.322  0.00  0.00    +0.000 A 
ATOM     13  C   UNL     1       0.620   8.340  21.487  0.00  0.00    +0.000 A 
ATOM     14  C   UNL     1       1.062   8.644  20.199  0.00  0.00    +0.000 A 
ATOM     15  C   UNL     1       1.112   9.974  19.750  0.00  0.00    +0.000 A 
ATOM     16 CL   UNL     1       1.791  10.221  18.177  0.00  0.00    +0.000 Cl
ENDBRANCH   8  10
BRANCH   9  17
ATOM     17  C   UNL     1      -1.620  12.764  19.241  0.00  0.00    +0.000 A 
ATOM     18  C   UNL     1      -2.653  13.045  20.150  0.00  0.00    +0.000 A 
ATOM     19  C   UNL     1      -3.917  12.483  19.983  0.00  0.00    +0.000 A 
ATOM     20  C   UNL     1      -4.175  11.694  18.868  0.00  0.00    +0.000 A 
ATOM     21 CL   UNL     1      -5.743  11.024  18.652  0.00  0.00    +0.000 Cl
ATOM     22  C   UNL     1      -3.172  11.447  17.930  0.00  0.00    +0.000 A 
ATOM     23  C   UNL     1      -1.891  11.982  18.112  0.00  0.00    +0.000 A 
ENDBRANCH   9  17
BRANCH   1  27
ATOM     24  C   UNL     1       6.115  17.089  20.223  0.00  0.00    +0.000 C 
ATOM     25  C   UNL     1       4.876  17.512  21.046  0.00  0.00    +0.000 C 
ATOM     26  C   UNL     1       3.933  16.345  21.314  0.00  0.00    +0.000 C 
ATOM     27  N   UNL     1       3.632  15.681  20.055  0.00  0.00    +0.000 N 
ATOM     28  C   UNL     1       4.755  15.114  19.332  0.00  0.00    +0.000 C 
ATOM     29  C   UNL     1       5.726  16.250  18.980  0.00  0.00    +0.000 C 
BRANCH  24  31
ATOM     30  N   UNL     1       8.055  15.534  20.510  0.00  0.00    +0.000 N 
ATOM     31  C   UNL     1       7.073  16.248  21.133  0.00  0.00    +0.000 C 
ATOM     32  O   UNL     1       6.978  16.165  22.360  0.00  0.00    +0.000 OA
ATOM     33  H   UNL     1       8.710  15.083  21.142  0.00  0.00    +0.000 HD
ATOM     34  H   UNL     1       8.432  15.851  19.630  0.00  0.00    +0.000 HD
ENDBRANCH  24  31
BRANCH  24  35
ATOM     35  N   UNL     1       6.876  18.319  19.821  0.00  0.00    +0.000 NA
ATOM     36  H   UNL     1       7.654  18.469  20.464  0.00  0.00    +0.000 HD
BRANCH  35  37
ATOM     37  O   UNL     1       7.609  17.991  18.599  0.00  0.00    +0.000 OA
ATOM     38  H   UNL     1       7.589  18.831  18.097  0.00  0.00    +0.000 HD
ENDBRANCH  35  37
ENDBRANCH  24  35
ENDBRANCH   1  27
TORSDOF 6
ENDMDL
MODEL 9
REMARK VINA RESULT:      -6.8      4.570      8.417
REMARK  Name = 
REMARK  6 active torsions:
REMARK  status: ('A' for Active; 'I' for Inactive)
REMARK    1  A    between atoms: C_2  and  C_4
REMARK    2  A    between atoms: C_4  and  N_5
REMARK    3  A    between atoms: N_5  and  O_6
REMARK    4  A    between atoms: N_9  and  C_10
REMARK    5  A    between atoms: C_17  and  C_18
REMARK    6  A    between atoms: N_25  and  C_26
REMARK                            x       y       z     vdW  Elec       q    Type
REMARK                         _______ _______ _______ _____ _____    ______ ____
ROOT
ATOM      1  C   UNL     1       0.594  16.026  20.113  0.00  0.00    +0.000 A 
ATOM      2  N   UNL     1      -0.179  17.136  19.882  0.00  0.00    +0.000 NA
ATOM      3  C   UNL     1      -1.524  17.007  19.947  0.00  0.00    +0.000 A 
ATOM      4  N   UNL     1      -2.255  15.921  20.249  0.00  0.00    +0.000 NA
ATOM      5  C   UNL     1      -1.469  14.863  20.528  0.00  0.00    +0.000 A 
ATOM      6  C   UNL     1      -0.084  14.845  20.482  0.00  0.00    +0.000 A 
ATOM      7  N   UNL     1       0.383  13.607  20.859  0.00  0.00    +0.000 NA
ATOM      8  C   UNL     1      -0.669  12.862  21.147  0.00  0.00    +0.000 A 
ATOM      9  N   UNL     1      -1.850  13.618  20.999  0.00  0.00    +0.000 N 
ENDROOT
BRANCH   8  10
ATOM     10  C   UNL     1      -0.575  11.422  21.477  0.00  0.00    +0.000 A 
ATOM     11  C   UNL     1      -0.698  10.991  22.815  0.00  0.00    +0.000 A 
ATOM     12  C   UNL     1      -0.491   9.666  23.193  0.00  0.00    +0.000 A 
ATOM     13  C   UNL     1      -0.288   8.706  22.218  0.00  0.00    +0.000 A 
ATOM     14  C   UNL     1      -0.239   9.083  20.875  0.00  0.00    +0.000 A 
ATOM     15  C   UNL     1      -0.355  10.432  20.502  0.00  0.00    +0.000 A 
ATOM     16 CL   UNL     1      -0.158  10.775  18.816  0.00  0.00    +0.000 Cl
ENDBRANCH   8  10
BRANCH   9  17
ATOM     17  C   UNL     1      -3.190  13.203  21.271  0.00  0.00    +0.000 A 
ATOM     18  C   UNL     1      -4.011  12.737  20.231  0.00  0.00    +0.000 A 
ATOM     19  C   UNL     1      -5.369  12.513  20.446  0.00  0.00    +0.000 A 
ATOM     20  C   UNL     1      -5.900  12.685  21.719  0.00  0.00    +0.000 A 
ATOM     21 CL   UNL     1      -7.571  12.383  21.987  0.00  0.00    +0.000 Cl
ATOM     22  C   UNL     1      -5.086  13.100  22.774  0.00  0.00    +0.000 A 
ATOM     23  C   UNL     1      -3.728  13.359  22.554  0.00  0.00    +0.000 A 
ENDBRANCH   9  17
BRANCH   1  27
ATOM     24  C   UNL     1       4.433  15.446  18.728  0.00  0.00    +0.000 C 
ATOM     25  C   UNL     1       3.437  16.447  18.098  0.00  0.00    +0.000 C 
ATOM     26  C   UNL     1       2.571  17.139  19.144  0.00  0.00    +0.000 C 
ATOM     27  N   UNL     1       1.965  16.130  19.999  0.00  0.00    +0.000 N 
ATOM     28  C   UNL     1       2.871  15.279  20.747  0.00  0.00    +0.000 C 
ATOM     29  C   UNL     1       3.742  14.506  19.748  0.00  0.00    +0.000 C 
BRANCH  24  31
ATOM     30  N   UNL     1       6.148  17.269  18.761  0.00  0.00    +0.000 N 
ATOM     31  C   UNL     1       5.571  16.242  19.451  0.00  0.00    +0.000 C 
ATOM     32  O   UNL     1       5.999  15.984  20.579  0.00  0.00    +0.000 OA
ATOM     33  H   UNL     1       6.810  17.817  19.300  0.00  0.00    +0.000 HD
ATOM     34  H   UNL     1       5.619  17.771  18.063  0.00  0.00    +0.000 HD
ENDBRANCH  24  31
BRANCH  24  35
ATOM     35  N   UNL     1       5.090  14.657  17.634  0.00  0.00    +0.000 NA
ATOM     36  H   UNL     1       5.219  15.248  16.811  0.00  0.00    +0.000 HD
BRANCH  35  37
ATOM     37  O   UNL     1       6.484  14.454  18.026  0.00  0.00    +0.000 OA
ATOM     38  H   UNL     1       6.493  14.732  18.965  0.00  0.00    +0.000 HD
ENDBRANCH  35  37
ENDBRANCH  24  35
ENDBRANCH   1  27
TORSDOF 6
ENDMDL
