MODEL 1
REMARK VINA RESULT:      -7.2      0.000      0.000
REMARK  Name = 
REMARK  7 active torsions:
REMARK  status: ('A' for Active; 'I' for Inactive)
REMARK    1  A    between atoms: C_1  and  C_2
REMARK    2  A    between atoms: C_2  and  O_3
REMARK    3  A    between atoms: O_3  and  C_4
REMARK    4  A    between atoms: C_4  and  C_6
REMARK    5  A    between atoms: C_6  and  N_7
REMARK    6  A    between atoms: C_10  and  C_11
REMARK    7  A    between atoms: C_11  and  C_12
REMARK                            x       y       z     vdW  Elec       q    Type
REMARK                         _______ _______ _______ _____ _____    ______ ____
ROOT
ATOM      1  N   UNL     1       5.918   5.788  16.867  0.00  0.00    +0.000 N 
ATOM      2  C   UNL     1       6.506   5.300  15.700  0.00  0.00    +0.000 C 
ATOM      3  O   UNL     1       7.646   5.598  15.348  0.00  0.00    +0.000 OA
ATOM      4  C   UNL     1       5.527   4.509  14.822  0.00  0.00    +0.000 C 
ATOM      5  O   UNL     1       4.727   3.565  15.522  0.00  0.00    +0.000 OA
ATOM      6  C   UNL     1       4.192   4.076  16.676  0.00  0.00    +0.000 A 
ATOM      7  C   UNL     1       3.057   3.413  17.151  0.00  0.00    +0.000 A 
ATOM      8  C   UNL     1       2.461   3.824  18.338  0.00  0.00    +0.000 A 
ATOM      9  C   UNL     1       3.016   4.878  19.051  0.00  0.00    +0.000 A 
ATOM     10 CL   UNL     1       2.303   5.363  20.544  0.00  0.00    +0.000 Cl
ATOM     11  C   UNL     1       4.155   5.543  18.586  0.00  0.00    +0.000 A 
ATOM     12  C   UNL     1       4.750   5.158  17.381  0.00  0.00    +0.000 A 
ENDROOT
BRANCH   4  13
ATOM     13  C   UNL     1       6.249   3.794  13.673  0.00  0.00    +0.000 C 
ATOM     14  C   UNL     1       5.321   3.525  12.495  0.00  0.00    +0.000 C 
ENDBRANCH   4  13
BRANCH   1  15
ATOM     15  C   UNL     1       6.577   6.907  17.539  0.00  0.00    +0.000 C 
BRANCH  15  16
ATOM     16  C   UNL     1       7.714   6.565  18.484  0.00  0.00    +0.000 C 
ATOM     17  O   UNL     1       7.834   5.462  19.008  0.00  0.00    +0.000 OA
BRANCH  16  18
ATOM     18  O   UNL     1       8.533   7.626  18.714  0.00  0.00    +0.000 OA
BRANCH  18  20
ATOM     19  C   UNL     1       8.922   9.974  18.656  0.00  0.00    +0.000 C 
ATOM     20  C   UNL     1       8.195   8.817  17.994  0.00  0.00    +0.000 C 
ENDBRANCH  18  20
ENDBRANCH  16  18
ENDBRANCH  15  16
ENDBRANCH   1  15
TORSDOF 5
ENDMDL
MODEL 2
REMARK VINA RESULT:      -7.2      2.655      6.105
REMARK  Name = 
REMARK  7 active torsions:
REMARK  status: ('A' for Active; 'I' for Inactive)
REMARK    1  A    between atoms: C_1  and  C_2
REMARK    2  A    between atoms: C_2  and  O_3
REMARK    3  A    between atoms: O_3  and  C_4
REMARK    4  A    between atoms: C_4  and  C_6
REMARK    5  A    between atoms: C_6  and  N_7
REMARK    6  A    between atoms: C_10  and  C_11
REMARK    7  A    between atoms: C_11  and  C_12
REMARK                            x       y       z     vdW  Elec       q    Type
REMARK                         _______ _______ _______ _____ _____    ______ ____
ROOT
ATOM      1  N   UNL     1       5.558   4.219  16.763  0.00  0.00    +0.000 N 
ATOM      2  C   UNL     1       6.198   4.969  17.749  0.00  0.00    +0.000 C 
ATOM      3  O   UNL     1       6.065   4.749  18.951  0.00  0.00    +0.000 OA
ATOM      4  C   UNL     1       6.932   6.194  17.188  0.00  0.00    +0.000 C 
ATOM      5  O   UNL     1       7.719   5.940  16.031  0.00  0.00    +0.000 OA
ATOM      6  C   UNL     1       7.063   5.177  15.101  0.00  0.00    +0.000 A 
ATOM      7  C   UNL     1       7.550   5.282  13.794  0.00  0.00    +0.000 A 
ATOM      8  C   UNL     1       6.982   4.517  12.780  0.00  0.00    +0.000 A 
ATOM      9  C   UNL     1       5.951   3.639  13.085  0.00  0.00    +0.000 A 
ATOM     10 CL   UNL     1       5.274   2.660  11.837  0.00  0.00    +0.000 Cl
ATOM     11  C   UNL     1       5.463   3.524  14.390  0.00  0.00    +0.000 A 
ATOM     12  C   UNL     1       6.005   4.306  15.414  0.00  0.00    +0.000 A 
ENDROOT
BRANCH   4  13
ATOM     13  C   UNL     1       7.812   6.863  18.251  0.00  0.00    +0.000 C 
ATOM     14  C   UNL     1       8.090   8.325  17.925  0.00  0.00    +0.000 C 
ENDBRANCH   4  13
BRANCH   1  15
ATOM     15  C   UNL     1       4.477   3.330  17.185  0.00  0.00    +0.000 C 
BRANCH  15  16
ATOM     16  C   UNL     1       3.099   3.949  17.333  0.00  0.00    +0.000 C 
ATOM     17  O   UNL     1       2.928   5.139  17.576  0.00  0.00    +0.000 OA
BRANCH  16  18
ATOM     18  O   UNL     1       2.104   3.030  17.221  0.00  0.00    +0.000 OA
BRANCH  18  20
ATOM     19  C   UNL     1       0.898   2.752  19.255  0.00  0.00    +0.000 C 
ATOM     20  C   UNL     1       1.957   2.157  18.346  0.00  0.00    +0.000 C 
ENDBRANCH  18  20
ENDBRANCH  16  18
ENDBRANCH  15  16
ENDBRANCH   1  15
TORSDOF 5
ENDMDL
MODEL 3
REMARK VINA RESULT:      -7.0      2.614      5.659
REMARK  Name = 
REMARK  7 active torsions:
REMARK  status: ('A' for Active; 'I' for Inactive)
REMARK    1  A    between atoms: C_1  and  C_2
REMARK    2  A    between atoms: C_2  and  O_3
REMARK    3  A    between atoms: O_3  and  C_4
REMARK    4  A    between atoms: C_4  and  C_6
REMARK    5  A    between atoms: C_6  and  N_7
REMARK    6  A    between atoms: C_10  and  C_11
REMARK    7  A    between atoms: C_11  and  C_12
REMARK                            x       y       z     vdW  Elec       q    Type
REMARK                         _______ _______ _______ _____ _____    ______ ____
ROOT
ATOM      1  N   UNL     1       5.604   4.164  16.741  0.00  0.00    +0.000 N 
ATOM      2  C   UNL     1       6.239   4.921  17.725  0.00  0.00    +0.000 C 
ATOM      3  O   UNL     1       6.126   4.688  18.927  0.00  0.00    +0.000 OA
ATOM      4  C   UNL     1       6.937   6.167  17.165  0.00  0.00    +0.000 C 
ATOM      5  O   UNL     1       7.715   5.941  15.997  0.00  0.00    +0.000 OA
ATOM      6  C   UNL     1       7.065   5.170  15.069  0.00  0.00    +0.000 A 
ATOM      7  C   UNL     1       7.532   5.297  13.757  0.00  0.00    +0.000 A 
ATOM      8  C   UNL     1       6.970   4.527  12.744  0.00  0.00    +0.000 A 
ATOM      9  C   UNL     1       5.963   3.622  13.053  0.00  0.00    +0.000 A 
ATOM     10 CL   UNL     1       5.294   2.637  11.807  0.00  0.00    +0.000 Cl
ATOM     11  C   UNL     1       5.495   3.485  14.364  0.00  0.00    +0.000 A 
ATOM     12  C   UNL     1       6.032   4.271  15.387  0.00  0.00    +0.000 A 
ENDROOT
BRANCH   4  13
ATOM     13  C   UNL     1       7.814   6.848  18.223  0.00  0.00    +0.000 C 
ATOM     14  C   UNL     1       8.069   8.314  17.896  0.00  0.00    +0.000 C 
ENDBRANCH   4  13
BRANCH   1  15
ATOM     15  C   UNL     1       4.550   3.245  17.169  0.00  0.00    +0.000 C 
BRANCH  15  16
ATOM     16  C   UNL     1       3.144   3.812  17.260  0.00  0.00    +0.000 C 
ATOM     17  O   UNL     1       2.140   3.127  17.093  0.00  0.00    +0.000 OA
BRANCH  16  18
ATOM     18  O   UNL     1       3.140   5.152  17.488  0.00  0.00    +0.000 OA
BRANCH  18  20
ATOM     19  C   UNL     1       2.848   5.375  19.840  0.00  0.00    +0.000 C 
ATOM     20  C   UNL     1       2.208   5.593  18.481  0.00  0.00    +0.000 C 
ENDBRANCH  18  20
ENDBRANCH  16  18
ENDBRANCH  15  16
ENDBRANCH   1  15
TORSDOF 5
ENDMDL
MODEL 4
REMARK VINA RESULT:      -6.7      0.850      1.015
REMARK  Name = 
REMARK  7 active torsions:
REMARK  status: ('A' for Active; 'I' for Inactive)
REMARK    1  A    between atoms: C_1  and  C_2
REMARK    2  A    between atoms: C_2  and  O_3
REMARK    3  A    between atoms: O_3  and  C_4
REMARK    4  A    between atoms: C_4  and  C_6
REMARK    5  A    between atoms: C_6  and  N_7
REMARK    6  A    between atoms: C_10  and  C_11
REMARK    7  A    between atoms: C_11  and  C_12
REMARK                            x       y       z     vdW  Elec       q    Type
REMARK                         _______ _______ _______ _____ _____    ______ ____
ROOT
ATOM      1  N   UNL     1       6.220   5.228  17.394  0.00  0.00    +0.000 N 
ATOM      2  C   UNL     1       6.729   4.738  16.192  0.00  0.00    +0.000 C 
ATOM      3  O   UNL     1       7.928   4.750  15.917  0.00  0.00    +0.000 OA
ATOM      4  C   UNL     1       5.633   4.356  15.189  0.00  0.00    +0.000 C 
ATOM      5  O   UNL     1       4.564   3.594  15.734  0.00  0.00    +0.000 OA
ATOM      6  C   UNL     1       4.113   4.093  16.928  0.00  0.00    +0.000 A 
ATOM      7  C   UNL     1       2.812   3.717  17.278  0.00  0.00    +0.000 A 
ATOM      8  C   UNL     1       2.274   4.134  18.491  0.00  0.00    +0.000 A 
ATOM      9  C   UNL     1       3.045   4.902  19.353  0.00  0.00    +0.000 A 
ATOM     10 CL   UNL     1       2.394   5.385  20.874  0.00  0.00    +0.000 Cl
ATOM     11  C   UNL     1       4.349   5.276  19.013  0.00  0.00    +0.000 A 
ATOM     12  C   UNL     1       4.894   4.888  17.786  0.00  0.00    +0.000 A 
ENDROOT
BRANCH   4  13
ATOM     13  C   UNL     1       6.208   3.611  13.978  0.00  0.00    +0.000 C 
ATOM     14  C   UNL     1       5.265   3.651  12.782  0.00  0.00    +0.000 C 
ENDBRANCH   4  13
BRANCH   1  15
ATOM     15  C   UNL     1       7.111   6.035  18.227  0.00  0.00    +0.000 C 
BRANCH  15  16
ATOM     16  C   UNL     1       7.403   7.446  17.749  0.00  0.00    +0.000 C 
ATOM     17  O   UNL     1       6.849   7.946  16.776  0.00  0.00    +0.000 OA
BRANCH  16  18
ATOM     18  O   UNL     1       8.374   8.050  18.484  0.00  0.00    +0.000 OA
BRANCH  18  20
ATOM     19  C   UNL     1       9.244  10.058  19.423  0.00  0.00    +0.000 C 
ATOM     20  C   UNL     1       8.553   9.446  18.218  0.00  0.00    +0.000 C 
ENDBRANCH  18  20
ENDBRANCH  16  18
ENDBRANCH  15  16
ENDBRANCH   1  15
TORSDOF 5
ENDMDL
MODEL 5
REMARK VINA RESULT:      -6.6      2.606      5.923
REMARK  Name = 
REMARK  7 active torsions:
REMARK  status: ('A' for Active; 'I' for Inactive)
REMARK    1  A    between atoms: C_1  and  C_2
REMARK    2  A    between atoms: C_2  and  O_3
REMARK    3  A    between atoms: O_3  and  C_4
REMARK    4  A    between atoms: C_4  and  C_6
REMARK    5  A    between atoms: C_6  and  N_7
REMARK    6  A    between atoms: C_10  and  C_11
REMARK    7  A    between atoms: C_11  and  C_12
REMARK                            x       y       z     vdW  Elec       q    Type
REMARK                         _______ _______ _______ _____ _____    ______ ____
ROOT
ATOM      1  N   UNL     1       5.014   4.935  16.653  0.00  0.00    +0.000 N 
ATOM      2  C   UNL     1       5.742   5.594  17.643  0.00  0.00    +0.000 C 
ATOM      3  O   UNL     1       5.429   5.572  18.832  0.00  0.00    +0.000 OA
ATOM      4  C   UNL     1       6.856   6.484  17.076  0.00  0.00    +0.000 C 
ATOM      5  O   UNL     1       7.647   5.877  16.063  0.00  0.00    +0.000 OA
ATOM      6  C   UNL     1       6.894   5.218  15.126  0.00  0.00    +0.000 A 
ATOM      7  C   UNL     1       7.520   5.018  13.892  0.00  0.00    +0.000 A 
ATOM      8  C   UNL     1       6.859   4.322  12.885  0.00  0.00    +0.000 A 
ATOM      9  C   UNL     1       5.590   3.812  13.128  0.00  0.00    +0.000 A 
ATOM     10 CL   UNL     1       4.787   2.913  11.895  0.00  0.00    +0.000 Cl
ATOM     11  C   UNL     1       4.960   4.002  14.362  0.00  0.00    +0.000 A 
ATOM     12  C   UNL     1       5.601   4.723  15.373  0.00  0.00    +0.000 A 
ENDROOT
BRANCH   4  13
ATOM     13  C   UNL     1       7.780   7.008  18.182  0.00  0.00    +0.000 C 
ATOM     14  C   UNL     1       8.161   8.467  17.964  0.00  0.00    +0.000 C 
ENDBRANCH   4  13
BRANCH   1  15
ATOM     15  C   UNL     1       3.683   4.443  17.006  0.00  0.00    +0.000 C 
BRANCH  15  16
ATOM     16  C   UNL     1       3.621   3.190  17.860  0.00  0.00    +0.000 C 
ATOM     17  O   UNL     1       4.056   2.107  17.484  0.00  0.00    +0.000 OA
BRANCH  16  18
ATOM     18  O   UNL     1       2.987   3.401  19.044  0.00  0.00    +0.000 OA
BRANCH  18  20
ATOM     19  C   UNL     1       1.013   3.359  20.374  0.00  0.00    +0.000 C 
ATOM     20  C   UNL     1       1.718   2.751  19.175  0.00  0.00    +0.000 C 
ENDBRANCH  18  20
ENDBRANCH  16  18
ENDBRANCH  15  16
ENDBRANCH   1  15
TORSDOF 5
ENDMDL
MODEL 6
REMARK VINA RESULT:      -6.6      2.958      5.297
REMARK  Name = 
REMARK  7 active torsions:
REMARK  status: ('A' for Active; 'I' for Inactive)
REMARK    1  A    between atoms: C_1  and  C_2
REMARK    2  A    between atoms: C_2  and  O_3
REMARK    3  A    between atoms: O_3  and  C_4
REMARK    4  A    between atoms: C_4  and  C_6
REMARK    5  A    between atoms: C_6  and  N_7
REMARK    6  A    between atoms: C_10  and  C_11
REMARK    7  A    between atoms: C_11  and  C_12
REMARK                            x       y       z     vdW  Elec       q    Type
REMARK                         _______ _______ _______ _____ _____    ______ ____
ROOT
ATOM      1  N   UNL     1       3.534   5.283  18.271  0.00  0.00    +0.000 N 
ATOM      2  C   UNL     1       3.631   4.124  19.041  0.00  0.00    +0.000 C 
ATOM      3  O   UNL     1       4.437   3.226  18.801  0.00  0.00    +0.000 OA
ATOM      4  C   UNL     1       2.521   4.008  20.093  0.00  0.00    +0.000 C 
ATOM      5  O   UNL     1       2.277   5.194  20.836  0.00  0.00    +0.000 OA
ATOM      6  C   UNL     1       2.216   6.312  20.046  0.00  0.00    +0.000 A 
ATOM      7  C   UNL     1       1.530   7.397  20.600  0.00  0.00    +0.000 A 
ATOM      8  C   UNL     1       1.446   8.595  19.898  0.00  0.00    +0.000 A 
ATOM      9  C   UNL     1       2.067   8.706  18.661  0.00  0.00    +0.000 A 
ATOM     10 CL   UNL     1       1.999  10.203  17.809  0.00  0.00    +0.000 Cl
ATOM     11  C   UNL     1       2.760   7.627  18.103  0.00  0.00    +0.000 A 
ATOM     12  C   UNL     1       2.830   6.409  18.785  0.00  0.00    +0.000 A 
ENDROOT
BRANCH   4  13
ATOM     13  C   UNL     1       2.784   2.854  21.068  0.00  0.00    +0.000 C 
ATOM     14  C   UNL     1       1.543   2.496  21.877  0.00  0.00    +0.000 C 
ENDBRANCH   4  13
BRANCH   1  15
ATOM     15  C   UNL     1       4.216   5.296  16.978  0.00  0.00    +0.000 C 
BRANCH  15  16
ATOM     16  C   UNL     1       5.637   5.830  16.960  0.00  0.00    +0.000 C 
ATOM     17  O   UNL     1       6.236   6.162  17.978  0.00  0.00    +0.000 OA
BRANCH  16  18
ATOM     18  O   UNL     1       6.130   5.945  15.698  0.00  0.00    +0.000 OA
BRANCH  18  20
ATOM     19  C   UNL     1       6.313   4.099  14.206  0.00  0.00    +0.000 C 
ATOM     20  C   UNL     1       7.012   4.891  15.295  0.00  0.00    +0.000 C 
ENDBRANCH  18  20
ENDBRANCH  16  18
ENDBRANCH  15  16
ENDBRANCH   1  15
TORSDOF 5
ENDMDL
MODEL 7
REMARK VINA RESULT:      -6.5      2.442      3.704
REMARK  Name = 
REMARK  7 active torsions:
REMARK  status: ('A' for Active; 'I' for Inactive)
REMARK    1  A    between atoms: C_1  and  C_2
REMARK    2  A    between atoms: C_2  and  O_3
REMARK    3  A    between atoms: O_3  and  C_4
REMARK    4  A    between atoms: C_4  and  C_6
REMARK    5  A    between atoms: C_6  and  N_7
REMARK    6  A    between atoms: C_10  and  C_11
REMARK    7  A    between atoms: C_11  and  C_12
REMARK                            x       y       z     vdW  Elec       q    Type
REMARK                         _______ _______ _______ _____ _____    ______ ____
ROOT
ATOM      1  N   UNL     1       4.701   5.486  16.741  0.00  0.00    +0.000 N 
ATOM      2  C   UNL     1       4.302   6.814  16.590  0.00  0.00    +0.000 C 
ATOM      3  O   UNL     1       4.713   7.539  15.685  0.00  0.00    +0.000 OA
ATOM      4  C   UNL     1       3.450   7.320  17.761  0.00  0.00    +0.000 C 
ATOM      5  O   UNL     1       2.417   6.434  18.173  0.00  0.00    +0.000 OA
ATOM      6  C   UNL     1       2.845   5.137  18.282  0.00  0.00    +0.000 A 
ATOM      7  C   UNL     1       2.067   4.321  19.110  0.00  0.00    +0.000 A 
ATOM      8  C   UNL     1       2.389   2.975  19.255  0.00  0.00    +0.000 A 
ATOM      9  C   UNL     1       3.469   2.452  18.556  0.00  0.00    +0.000 A 
ATOM     10 CL   UNL     1       3.844   0.776  18.704  0.00  0.00    +0.000 Cl
ATOM     11  C   UNL     1       4.247   3.261  17.722  0.00  0.00    +0.000 A 
ATOM     12  C   UNL     1       3.952   4.620  17.587  0.00  0.00    +0.000 A 
ENDROOT
BRANCH   4  13
ATOM     13  C   UNL     1       2.837   8.694  17.462  0.00  0.00    +0.000 C 
ATOM     14  C   UNL     1       1.646   8.996  18.364  0.00  0.00    +0.000 C 
ENDBRANCH   4  13
BRANCH   1  15
ATOM     15  C   UNL     1       5.857   5.035  15.967  0.00  0.00    +0.000 C 
BRANCH  15  16
ATOM     16  C   UNL     1       7.224   5.241  16.595  0.00  0.00    +0.000 C 
ATOM     17  O   UNL     1       7.890   4.318  17.054  0.00  0.00    +0.000 OA
BRANCH  16  18
ATOM     18  O   UNL     1       7.584   6.551  16.633  0.00  0.00    +0.000 OA
BRANCH  18  20
ATOM     19  C   UNL     1       7.996   8.587  17.796  0.00  0.00    +0.000 C 
ATOM     20  C   UNL     1       7.718   7.103  17.948  0.00  0.00    +0.000 C 
ENDBRANCH  18  20
ENDBRANCH  16  18
ENDBRANCH  15  16
ENDBRANCH   1  15
TORSDOF 5
ENDMDL
MODEL 8
REMARK VINA RESULT:      -6.4      2.784      5.854
REMARK  Name = 
REMARK  7 active torsions:
REMARK  status: ('A' for Active; 'I' for Inactive)
REMARK    1  A    between atoms: C_1  and  C_2
REMARK    2  A    between atoms: C_2  and  O_3
REMARK    3  A    between atoms: O_3  and  C_4
REMARK    4  A    between atoms: C_4  and  C_6
REMARK    5  A    between atoms: C_6  and  N_7
REMARK    6  A    between atoms: C_10  and  C_11
REMARK    7  A    between atoms: C_11  and  C_12
REMARK                            x       y       z     vdW  Elec       q    Type
REMARK                         _______ _______ _______ _____ _____    ______ ____
ROOT
ATOM      1  N   UNL     1       5.650   4.229  16.757  0.00  0.00    +0.000 N 
ATOM      2  C   UNL     1       6.272   5.014  17.727  0.00  0.00    +0.000 C 
ATOM      3  O   UNL     1       6.164   4.800  18.933  0.00  0.00    +0.000 OA
ATOM      4  C   UNL     1       6.949   6.262  17.144  0.00  0.00    +0.000 C 
ATOM      5  O   UNL     1       7.730   6.028  15.979  0.00  0.00    +0.000 OA
ATOM      6  C   UNL     1       7.092   5.231  15.065  0.00  0.00    +0.000 A 
ATOM      7  C   UNL     1       7.556   5.343  13.751  0.00  0.00    +0.000 A 
ATOM      8  C   UNL     1       7.006   4.545  12.752  0.00  0.00    +0.000 A 
ATOM      9  C   UNL     1       6.015   3.629  13.079  0.00  0.00    +0.000 A 
ATOM     10 CL   UNL     1       5.361   2.612  11.850  0.00  0.00    +0.000 Cl
ATOM     11  C   UNL     1       5.550   3.507  14.392  0.00  0.00    +0.000 A 
ATOM     12  C   UNL     1       6.074   4.320  15.401  0.00  0.00    +0.000 A 
ENDROOT
BRANCH   4  13
ATOM     13  C   UNL     1       7.815   6.975  18.189  0.00  0.00    +0.000 C 
ATOM     14  C   UNL     1       8.043   8.441  17.838  0.00  0.00    +0.000 C 
ENDBRANCH   4  13
BRANCH   1  15
ATOM     15  C   UNL     1       4.611   3.301  17.202  0.00  0.00    +0.000 C 
BRANCH  15  16
ATOM     16  C   UNL     1       3.392   3.908  17.872  0.00  0.00    +0.000 C 
ATOM     17  O   UNL     1       2.645   4.698  17.304  0.00  0.00    +0.000 OA
BRANCH  16  18
ATOM     18  O   UNL     1       3.267   3.518  19.169  0.00  0.00    +0.000 OA
BRANCH  18  20
ATOM     19  C   UNL     1       4.453   1.981  20.547  0.00  0.00    +0.000 C 
ATOM     20  C   UNL     1       3.467   2.119  19.402  0.00  0.00    +0.000 C 
ENDBRANCH  18  20
ENDBRANCH  16  18
ENDBRANCH  15  16
ENDBRANCH   1  15
TORSDOF 5
ENDMDL
MODEL 9
REMARK VINA RESULT:      -6.4      3.446      5.749
REMARK  Name = 
REMARK  7 active torsions:
REMARK  status: ('A' for Active; 'I' for Inactive)
REMARK    1  A    between atoms: C_1  and  C_2
REMARK    2  A    between atoms: C_2  and  O_3
REMARK    3  A    between atoms: O_3  and  C_4
REMARK    4  A    between atoms: C_4  and  C_6
REMARK    5  A    between atoms: C_6  and  N_7
REMARK    6  A    between atoms: C_10  and  C_11
REMARK    7  A    between atoms: C_11  and  C_12
REMARK                            x       y       z     vdW  Elec       q    Type
REMARK                         _______ _______ _______ _____ _____    ______ ____
ROOT
ATOM      1  N   UNL     1       3.181   5.211  20.073  0.00  0.00    +0.000 N 
ATOM      2  C   UNL     1       4.083   4.441  19.339  0.00  0.00    +0.000 C 
ATOM      3  O   UNL     1       4.294   3.252  19.572  0.00  0.00    +0.000 OA
ATOM      4  C   UNL     1       4.905   5.268  18.342  0.00  0.00    +0.000 C 
ATOM      5  O   UNL     1       4.151   6.194  17.571  0.00  0.00    +0.000 OA
ATOM      6  C   UNL     1       3.259   6.910  18.325  0.00  0.00    +0.000 A 
ATOM      7  C   UNL     1       2.843   8.122  17.766  0.00  0.00    +0.000 A 
ATOM      8  C   UNL     1       1.905   8.906  18.430  0.00  0.00    +0.000 A 
ATOM      9  C   UNL     1       1.374   8.462  19.634  0.00  0.00    +0.000 A 
ATOM     10 CL   UNL     1       0.181   9.412  20.438  0.00  0.00    +0.000 Cl
ATOM     11  C   UNL     1       1.780   7.247  20.196  0.00  0.00    +0.000 A 
ATOM     12  C   UNL     1       2.742   6.462  19.554  0.00  0.00    +0.000 A 
ENDROOT
BRANCH   4  13
ATOM     13  C   UNL     1       5.713   4.374  17.396  0.00  0.00    +0.000 C 
ATOM     14  C   UNL     1       5.043   4.230  16.034  0.00  0.00    +0.000 C 
ENDBRANCH   4  13
BRANCH   1  15
ATOM     15  C   UNL     1       2.687   4.658  21.333  0.00  0.00    +0.000 C 
BRANCH  15  16
ATOM     16  C   UNL     1       1.667   3.538  21.235  0.00  0.00    +0.000 C 
ATOM     17  O   UNL     1       1.711   2.535  21.941  0.00  0.00    +0.000 OA
BRANCH  16  18
ATOM     18  O   UNL     1       0.753   3.755  20.253  0.00  0.00    +0.000 OA
BRANCH  18  20
ATOM     19  C   UNL     1       1.188   3.431  17.935  0.00  0.00    +0.000 C 
ATOM     20  C   UNL     1       0.729   2.765  19.219  0.00  0.00    +0.000 C 
ENDBRANCH  18  20
ENDBRANCH  16  18
ENDBRANCH  15  16
ENDBRANCH   1  15
TORSDOF 5
ENDMDL
