MODEL 1
REMARK VINA RESULT:      -6.7      0.000      0.000
REMARK  Name = 
REMARK  9 active torsions:
REMARK  status: ('A' for Active; 'I' for Inactive)
REMARK    1  A    between atoms: C_1  and  C_2
REMARK    2  A    between atoms: C_2  and  C_3
REMARK    3  A    between atoms: C_2  and  C_4
REMARK    4  A    between atoms: C_2  and  C_5
REMARK    5  A    between atoms: C_5  and  O_7
REMARK    6  A    between atoms: O_7  and  C_8
REMARK    7  A    between atoms: C_8  and  S_9
REMARK    8  A    between atoms: S_9  and  C_10
REMARK    9  A    between atoms: C_12  and  C_13
REMARK                            x       y       z     vdW  Elec       q    Type
REMARK                         _______ _______ _______ _____ _____    ______ ____
ROOT
ATOM      1  C   UNL     1       5.787   5.589  17.715  0.00  0.00    +0.000 A 
ATOM      2  N   UNL     1       5.516   4.935  16.610  0.00  0.00    +0.000 NA
ATOM      3  C   UNL     1       6.534   5.326  15.763  0.00  0.00    +0.000 A 
ATOM      4  N   UNL     1       7.393   6.197  16.315  0.00  0.00    +0.000 NA
ATOM      5  O   UNL     1       6.903   6.366  17.607  0.00  0.00    +0.000 OA
ENDROOT
BRANCH   3   6
ATOM      6  C   UNL     1       6.654   4.820  14.400  0.00  0.00    +0.000 A 
ATOM      7  C   UNL     1       5.787   3.827  13.938  0.00  0.00    +0.000 A 
ATOM      8  C   UNL     1       5.927   3.378  12.636  0.00  0.00    +0.000 A 
ATOM      9  N   UNL     1       6.863   3.840  11.780  0.00  0.00    +0.000 NA
ATOM     10  C   UNL     1       7.695   4.793  12.244  0.00  0.00    +0.000 A 
ATOM     11  C   UNL     1       7.633   5.309  13.528  0.00  0.00    +0.000 A 
ENDBRANCH   3   6
BRANCH   1  12
ATOM     12  S   UNL     1       4.899   5.405  19.195  0.00  0.00    +0.000 S 
BRANCH  12  13
ATOM     13  C   UNL     1       5.022   3.614  19.433  0.00  0.00    +0.000 C 
BRANCH  13  14
ATOM     14  O   UNL     1       3.796   3.033  19.893  0.00  0.00    +0.000 OA
BRANCH  14  15
ATOM     15  C   UNL     1       2.969   2.561  18.918  0.00  0.00    +0.000 C 
ATOM     16  O   UNL     1       3.278   1.675  18.128  0.00  0.00    +0.000 OA
BRANCH  15  18
ATOM     17  C   UNL     1       1.562   4.261  17.756  0.00  0.00    +0.000 C 
ATOM     18  C   UNL     1       1.614   3.270  18.930  0.00  0.00    +0.000 C 
ATOM     19  C   UNL     1       1.433   4.047  20.241  0.00  0.00    +0.000 C 
ATOM     20  C   UNL     1       0.486   2.244  18.766  0.00  0.00    +0.000 C 
ENDBRANCH  15  18
ENDBRANCH  14  15
ENDBRANCH  13  14
ENDBRANCH  12  13
ENDBRANCH   1  12
TORSDOF 6
ENDMDL
MODEL 2
REMARK VINA RESULT:      -6.6      1.378      2.195
REMARK  Name = 
REMARK  9 active torsions:
REMARK  status: ('A' for Active; 'I' for Inactive)
REMARK    1  A    between atoms: C_1  and  C_2
REMARK    2  A    between atoms: C_2  and  C_3
REMARK    3  A    between atoms: C_2  and  C_4
REMARK    4  A    between atoms: C_2  and  C_5
REMARK    5  A    between atoms: C_5  and  O_7
REMARK    6  A    between atoms: O_7  and  C_8
REMARK    7  A    between atoms: C_8  and  S_9
REMARK    8  A    between atoms: S_9  and  C_10
REMARK    9  A    between atoms: C_12  and  C_13
REMARK                            x       y       z     vdW  Elec       q    Type
REMARK                         _______ _______ _______ _____ _____    ______ ____
ROOT
ATOM      1  C   UNL     1       6.082   5.071  18.008  0.00  0.00    +0.000 A 
ATOM      2  N   UNL     1       5.713   5.108  16.748  0.00  0.00    +0.000 NA
ATOM      3  C   UNL     1       6.841   4.667  16.084  0.00  0.00    +0.000 A 
ATOM      4  N   UNL     1       7.871   4.382  16.896  0.00  0.00    +0.000 NA
ATOM      5  O   UNL     1       7.367   4.642  18.167  0.00  0.00    +0.000 OA
ENDROOT
BRANCH   3   6
ATOM      6  C   UNL     1       6.886   4.522  14.633  0.00  0.00    +0.000 A 
ATOM      7  C   UNL     1       7.740   5.321  13.871  0.00  0.00    +0.000 A 
ATOM      8  C   UNL     1       7.761   5.148  12.497  0.00  0.00    +0.000 A 
ATOM      9  N   UNL     1       6.993   4.251  11.843  0.00  0.00    +0.000 NA
ATOM     10  C   UNL     1       6.169   3.492  12.593  0.00  0.00    +0.000 A 
ATOM     11  C   UNL     1       6.079   3.588  13.972  0.00  0.00    +0.000 A 
ENDBRANCH   3   6
BRANCH   1  12
ATOM     12  S   UNL     1       5.024   5.414  19.340  0.00  0.00    +0.000 S 
BRANCH  12  13
ATOM     13  C   UNL     1       3.504   5.839  18.454  0.00  0.00    +0.000 C 
BRANCH  13  14
ATOM     14  O   UNL     1       2.545   4.775  18.460  0.00  0.00    +0.000 OA
BRANCH  14  15
ATOM     15  C   UNL     1       1.951   4.527  19.661  0.00  0.00    +0.000 C 
ATOM     16  O   UNL     1       1.628   5.400  20.459  0.00  0.00    +0.000 OA
BRANCH  15  18
ATOM     17  C   UNL     1       3.045   2.288  19.556  0.00  0.00    +0.000 C 
ATOM     18  C   UNL     1       1.741   3.029  19.893  0.00  0.00    +0.000 C 
ATOM     19  C   UNL     1       0.625   2.504  18.981  0.00  0.00    +0.000 C 
ATOM     20  C   UNL     1       1.386   2.772  21.362  0.00  0.00    +0.000 C 
ENDBRANCH  15  18
ENDBRANCH  14  15
ENDBRANCH  13  14
ENDBRANCH  12  13
ENDBRANCH   1  12
TORSDOF 6
ENDMDL
MODEL 3
REMARK VINA RESULT:      -6.6      1.263      2.039
REMARK  Name = 
REMARK  9 active torsions:
REMARK  status: ('A' for Active; 'I' for Inactive)
REMARK    1  A    between atoms: C_1  and  C_2
REMARK    2  A    between atoms: C_2  and  C_3
REMARK    3  A    between atoms: C_2  and  C_4
REMARK    4  A    between atoms: C_2  and  C_5
REMARK    5  A    between atoms: C_5  and  O_7
REMARK    6  A    between atoms: O_7  and  C_8
REMARK    7  A    between atoms: C_8  and  S_9
REMARK    8  A    between atoms: S_9  and  C_10
REMARK    9  A    between atoms: C_12  and  C_13
REMARK                            x       y       z     vdW  Elec       q    Type
REMARK                         _______ _______ _______ _____ _____    ______ ____
ROOT
ATOM      1  C   UNL     1       5.750   5.211  17.810  0.00  0.00    +0.000 A 
ATOM      2  N   UNL     1       5.456   5.189  16.531  0.00  0.00    +0.000 NA
ATOM      3  C   UNL     1       6.630   4.752  15.952  0.00  0.00    +0.000 A 
ATOM      4  N   UNL     1       7.617   4.525  16.833  0.00  0.00    +0.000 NA
ATOM      5  O   UNL     1       7.033   4.822  18.062  0.00  0.00    +0.000 OA
ENDROOT
BRANCH   3   6
ATOM      6  C   UNL     1       6.764   4.551  14.513  0.00  0.00    +0.000 A 
ATOM      7  C   UNL     1       7.674   5.313  13.777  0.00  0.00    +0.000 A 
ATOM      8  C   UNL     1       7.779   5.088  12.414  0.00  0.00    +0.000 A 
ATOM      9  N   UNL     1       7.042   4.175  11.747  0.00  0.00    +0.000 NA
ATOM     10  C   UNL     1       6.164   3.453  12.472  0.00  0.00    +0.000 A 
ATOM     11  C   UNL     1       5.990   3.601  13.838  0.00  0.00    +0.000 A 
ENDBRANCH   3   6
BRANCH   1  12
ATOM     12  S   UNL     1       4.608   5.578  19.064  0.00  0.00    +0.000 S 
BRANCH  12  13
ATOM     13  C   UNL     1       3.184   6.096  18.073  0.00  0.00    +0.000 C 
BRANCH  13  14
ATOM     14  O   UNL     1       1.986   5.389  18.416  0.00  0.00    +0.000 OA
BRANCH  14  15
ATOM     15  C   UNL     1       1.980   4.062  18.107  0.00  0.00    +0.000 C 
ATOM     16  O   UNL     1       2.243   3.616  16.996  0.00  0.00    +0.000 OA
BRANCH  15  18
ATOM     17  C   UNL     1       2.865   2.495  19.834  0.00  0.00    +0.000 C 
ATOM     18  C   UNL     1       1.602   3.201  19.314  0.00  0.00    +0.000 C 
ATOM     19  C   UNL     1       0.575   2.138  18.906  0.00  0.00    +0.000 C 
ATOM     20  C   UNL     1       1.031   4.085  20.429  0.00  0.00    +0.000 C 
ENDBRANCH  15  18
ENDBRANCH  14  15
ENDBRANCH  13  14
ENDBRANCH  12  13
ENDBRANCH   1  12
TORSDOF 6
ENDMDL
MODEL 4
REMARK VINA RESULT:      -6.5      0.617      1.562
REMARK  Name = 
REMARK  9 active torsions:
REMARK  status: ('A' for Active; 'I' for Inactive)
REMARK    1  A    between atoms: C_1  and  C_2
REMARK    2  A    between atoms: C_2  and  C_3
REMARK    3  A    between atoms: C_2  and  C_4
REMARK    4  A    between atoms: C_2  and  C_5
REMARK    5  A    between atoms: C_5  and  O_7
REMARK    6  A    between atoms: O_7  and  C_8
REMARK    7  A    between atoms: C_8  and  S_9
REMARK    8  A    between atoms: S_9  and  C_10
REMARK    9  A    between atoms: C_12  and  C_13
REMARK                            x       y       z     vdW  Elec       q    Type
REMARK                         _______ _______ _______ _____ _____    ______ ____
ROOT
ATOM      1  C   UNL     1       6.043   4.963  17.884  0.00  0.00    +0.000 A 
ATOM      2  N   UNL     1       5.609   4.863  16.649  0.00  0.00    +0.000 NA
ATOM      3  C   UNL     1       6.769   4.652  15.931  0.00  0.00    +0.000 A 
ATOM      4  N   UNL     1       7.878   4.634  16.686  0.00  0.00    +0.000 NA
ATOM      5  O   UNL     1       7.398   4.833  17.978  0.00  0.00    +0.000 OA
ENDROOT
BRANCH   3   6
ATOM      6  C   UNL     1       6.769   4.457  14.485  0.00  0.00    +0.000 A 
ATOM      7  C   UNL     1       7.667   5.159  13.679  0.00  0.00    +0.000 A 
ATOM      8  C   UNL     1       7.642   4.942  12.311  0.00  0.00    +0.000 A 
ATOM      9  N   UNL     1       6.789   4.090  11.704  0.00  0.00    +0.000 NA
ATOM     10  C   UNL     1       5.924   3.425  12.496  0.00  0.00    +0.000 A 
ATOM     11  C   UNL     1       5.875   3.572  13.873  0.00  0.00    +0.000 A 
ENDBRANCH   3   6
BRANCH   1  12
ATOM     12  S   UNL     1       5.007   5.122  19.267  0.00  0.00    +0.000 S 
BRANCH  12  13
ATOM     13  C   UNL     1       4.923   3.399  19.818  0.00  0.00    +0.000 C 
BRANCH  13  14
ATOM     14  O   UNL     1       3.589   2.989  20.144  0.00  0.00    +0.000 OA
BRANCH  14  15
ATOM     15  C   UNL     1       2.857   2.495  19.107  0.00  0.00    +0.000 C 
ATOM     16  O   UNL     1       3.220   1.565  18.394  0.00  0.00    +0.000 OA
BRANCH  15  18
ATOM     17  C   UNL     1       1.236   4.020  20.232  0.00  0.00    +0.000 C 
ATOM     18  C   UNL     1       1.533   3.242  18.940  0.00  0.00    +0.000 C 
ATOM     19  C   UNL     1       0.392   2.249  18.688  0.00  0.00    +0.000 C 
ATOM     20  C   UNL     1       1.636   4.233  17.773  0.00  0.00    +0.000 C 
ENDBRANCH  15  18
ENDBRANCH  14  15
ENDBRANCH  13  14
ENDBRANCH  12  13
ENDBRANCH   1  12
TORSDOF 6
ENDMDL
MODEL 5
REMARK VINA RESULT:      -6.5      1.156      1.504
REMARK  Name = 
REMARK  9 active torsions:
REMARK  status: ('A' for Active; 'I' for Inactive)
REMARK    1  A    between atoms: C_1  and  C_2
REMARK    2  A    between atoms: C_2  and  C_3
REMARK    3  A    between atoms: C_2  and  C_4
REMARK    4  A    between atoms: C_2  and  C_5
REMARK    5  A    between atoms: C_5  and  O_7
REMARK    6  A    between atoms: O_7  and  C_8
REMARK    7  A    between atoms: C_8  and  S_9
REMARK    8  A    between atoms: S_9  and  C_10
REMARK    9  A    between atoms: C_12  and  C_13
REMARK                            x       y       z     vdW  Elec       q    Type
REMARK                         _______ _______ _______ _____ _____    ______ ____
ROOT
ATOM      1  C   UNL     1       5.760   5.611  17.714  0.00  0.00    +0.000 A 
ATOM      2  N   UNL     1       5.494   4.962  16.605  0.00  0.00    +0.000 NA
ATOM      3  C   UNL     1       6.531   5.334  15.773  0.00  0.00    +0.000 A 
ATOM      4  N   UNL     1       7.398   6.188  16.337  0.00  0.00    +0.000 NA
ATOM      5  O   UNL     1       6.893   6.367  17.623  0.00  0.00    +0.000 OA
ENDROOT
BRANCH   3   6
ATOM      6  C   UNL     1       6.661   4.825  14.412  0.00  0.00    +0.000 A 
ATOM      7  C   UNL     1       5.815   3.814  13.953  0.00  0.00    +0.000 A 
ATOM      8  C   UNL     1       5.963   3.363  12.652  0.00  0.00    +0.000 A 
ATOM      9  N   UNL     1       6.891   3.840  11.795  0.00  0.00    +0.000 NA
ATOM     10  C   UNL     1       7.704   4.811  12.256  0.00  0.00    +0.000 A 
ATOM     11  C   UNL     1       7.631   5.331  13.539  0.00  0.00    +0.000 A 
ENDBRANCH   3   6
BRANCH   1  12
ATOM     12  S   UNL     1       4.849   5.443  19.181  0.00  0.00    +0.000 S 
BRANCH  12  13
ATOM     13  C   UNL     1       3.300   6.249  18.702  0.00  0.00    +0.000 C 
BRANCH  13  14
ATOM     14  O   UNL     1       2.145   5.471  19.041  0.00  0.00    +0.000 OA
BRANCH  14  15
ATOM     15  C   UNL     1       2.062   4.252  18.439  0.00  0.00    +0.000 C 
ATOM     16  O   UNL     1       2.230   4.068  17.239  0.00  0.00    +0.000 OA
BRANCH  15  18
ATOM     17  C   UNL     1       0.623   2.258  18.857  0.00  0.00    +0.000 C 
ATOM     18  C   UNL     1       1.734   3.145  19.442  0.00  0.00    +0.000 C 
ATOM     19  C   UNL     1       1.237   3.753  20.760  0.00  0.00    +0.000 C 
ATOM     20  C   UNL     1       2.978   2.284  19.696  0.00  0.00    +0.000 C 
ENDBRANCH  15  18
ENDBRANCH  14  15
ENDBRANCH  13  14
ENDBRANCH  12  13
ENDBRANCH   1  12
TORSDOF 6
ENDMDL
MODEL 6
REMARK VINA RESULT:      -6.4      4.339      6.004
REMARK  Name = 
REMARK  9 active torsions:
REMARK  status: ('A' for Active; 'I' for Inactive)
REMARK    1  A    between atoms: C_1  and  C_2
REMARK    2  A    between atoms: C_2  and  C_3
REMARK    3  A    between atoms: C_2  and  C_4
REMARK    4  A    between atoms: C_2  and  C_5
REMARK    5  A    between atoms: C_5  and  O_7
REMARK    6  A    between atoms: O_7  and  C_8
REMARK    7  A    between atoms: C_8  and  S_9
REMARK    8  A    between atoms: S_9  and  C_10
REMARK    9  A    between atoms: C_12  and  C_13
REMARK                            x       y       z     vdW  Elec       q    Type
REMARK                         _______ _______ _______ _____ _____    ______ ____
ROOT
ATOM      1  C   UNL     1       7.748   7.002  18.016  0.00  0.00    +0.000 A 
ATOM      2  N   UNL     1       8.589   7.726  18.718  0.00  0.00    +0.000 NA
ATOM      3  C   UNL     1       8.358   9.005  18.253  0.00  0.00    +0.000 A 
ATOM      4  N   UNL     1       7.421   9.071  17.294  0.00  0.00    +0.000 NA
ATOM      5  O   UNL     1       7.013   7.749  17.142  0.00  0.00    +0.000 OA
ENDROOT
BRANCH   3   6
ATOM      6  C   UNL     1       9.067  10.167  18.776  0.00  0.00    +0.000 A 
ATOM      7  C   UNL     1       9.157  10.377  20.153  0.00  0.00    +0.000 A 
ATOM      8  C   UNL     1       9.846  11.487  20.612  0.00  0.00    +0.000 A 
ATOM      9  N   UNL     1      10.435  12.392  19.801  0.00  0.00    +0.000 NA
ATOM     10  C   UNL     1      10.334  12.178  18.474  0.00  0.00    +0.000 A 
ATOM     11  C   UNL     1       9.669  11.096  17.919  0.00  0.00    +0.000 A 
ENDBRANCH   3   6
BRANCH   1  12
ATOM     12  S   UNL     1       7.503   5.300  18.250  0.00  0.00    +0.000 S 
BRANCH  12  13
ATOM     13  C   UNL     1       6.024   5.319  19.294  0.00  0.00    +0.000 C 
BRANCH  13  14
ATOM     14  O   UNL     1       5.312   4.076  19.266  0.00  0.00    +0.000 OA
BRANCH  14  15
ATOM     15  C   UNL     1       3.955   4.178  19.210  0.00  0.00    +0.000 C 
ATOM     16  O   UNL     1       3.278   4.772  20.042  0.00  0.00    +0.000 OA
BRANCH  15  18
ATOM     17  C   UNL     1       4.243   3.804  16.760  0.00  0.00    +0.000 C 
ATOM     18  C   UNL     1       3.381   3.461  17.986  0.00  0.00    +0.000 C 
ATOM     19  C   UNL     1       1.943   3.925  17.725  0.00  0.00    +0.000 C 
ATOM     20  C   UNL     1       3.413   1.943  18.208  0.00  0.00    +0.000 C 
ENDBRANCH  15  18
ENDBRANCH  14  15
ENDBRANCH  13  14
ENDBRANCH  12  13
ENDBRANCH   1  12
TORSDOF 6
ENDMDL
MODEL 7
REMARK VINA RESULT:      -6.3      4.375      6.096
REMARK  Name = 
REMARK  9 active torsions:
REMARK  status: ('A' for Active; 'I' for Inactive)
REMARK    1  A    between atoms: C_1  and  C_2
REMARK    2  A    between atoms: C_2  and  C_3
REMARK    3  A    between atoms: C_2  and  C_4
REMARK    4  A    between atoms: C_2  and  C_5
REMARK    5  A    between atoms: C_5  and  O_7
REMARK    6  A    between atoms: O_7  and  C_8
REMARK    7  A    between atoms: C_8  and  S_9
REMARK    8  A    between atoms: S_9  and  C_10
REMARK    9  A    between atoms: C_12  and  C_13
REMARK                            x       y       z     vdW  Elec       q    Type
REMARK                         _______ _______ _______ _____ _____    ______ ____
ROOT
ATOM      1  C   UNL     1       7.774   7.098  18.091  0.00  0.00    +0.000 A 
ATOM      2  N   UNL     1       8.600   7.822  18.810  0.00  0.00    +0.000 NA
ATOM      3  C   UNL     1       8.430   9.090  18.291  0.00  0.00    +0.000 A 
ATOM      4  N   UNL     1       7.544   9.149  17.285  0.00  0.00    +0.000 NA
ATOM      5  O   UNL     1       7.105   7.834  17.157  0.00  0.00    +0.000 OA
ENDROOT
BRANCH   3   6
ATOM      6  C   UNL     1       9.148  10.249  18.810  0.00  0.00    +0.000 A 
ATOM      7  C   UNL     1       9.731  11.167  17.934  0.00  0.00    +0.000 A 
ATOM      8  C   UNL     1      10.397  12.259  18.465  0.00  0.00    +0.000 A 
ATOM      9  N   UNL     1      10.525  12.488  19.789  0.00  0.00    +0.000 NA
ATOM     10  C   UNL     1       9.962  11.589  20.620  0.00  0.00    +0.000 A 
ATOM     11  C   UNL     1       9.273  10.468  20.187  0.00  0.00    +0.000 A 
ENDBRANCH   3   6
BRANCH   1  12
ATOM     12  S   UNL     1       7.466   5.412  18.368  0.00  0.00    +0.000 S 
BRANCH  12  13
ATOM     13  C   UNL     1       5.723   5.469  18.853  0.00  0.00    +0.000 C 
BRANCH  13  14
ATOM     14  O   UNL     1       4.928   4.490  18.174  0.00  0.00    +0.000 OA
BRANCH  14  15
ATOM     15  C   UNL     1       4.341   3.554  18.971  0.00  0.00    +0.000 C 
ATOM     16  O   UNL     1       4.942   2.903  19.819  0.00  0.00    +0.000 OA
BRANCH  15  18
ATOM     17  C   UNL     1       2.113   3.077  19.986  0.00  0.00    +0.000 C 
ATOM     18  C   UNL     1       2.846   3.415  18.678  0.00  0.00    +0.000 C 
ATOM     19  C   UNL     1       2.606   2.284  17.671  0.00  0.00    +0.000 C 
ATOM     20  C   UNL     1       2.297   4.737  18.126  0.00  0.00    +0.000 C 
ENDBRANCH  15  18
ENDBRANCH  14  15
ENDBRANCH  13  14
ENDBRANCH  12  13
ENDBRANCH   1  12
TORSDOF 6
ENDMDL
MODEL 8
REMARK VINA RESULT:      -6.3      4.398      6.079
REMARK  Name = 
REMARK  9 active torsions:
REMARK  status: ('A' for Active; 'I' for Inactive)
REMARK    1  A    between atoms: C_1  and  C_2
REMARK    2  A    between atoms: C_2  and  C_3
REMARK    3  A    between atoms: C_2  and  C_4
REMARK    4  A    between atoms: C_2  and  C_5
REMARK    5  A    between atoms: C_5  and  O_7
REMARK    6  A    between atoms: O_7  and  C_8
REMARK    7  A    between atoms: C_8  and  S_9
REMARK    8  A    between atoms: S_9  and  C_10
REMARK    9  A    between atoms: C_12  and  C_13
REMARK                            x       y       z     vdW  Elec       q    Type
REMARK                         _______ _______ _______ _____ _____    ______ ____
ROOT
ATOM      1  C   UNL     1       7.792   7.057  18.116  0.00  0.00    +0.000 A 
ATOM      2  N   UNL     1       8.599   7.799  18.839  0.00  0.00    +0.000 NA
ATOM      3  C   UNL     1       8.419   9.060  18.307  0.00  0.00    +0.000 A 
ATOM      4  N   UNL     1       7.545   9.098  17.289  0.00  0.00    +0.000 NA
ATOM      5  O   UNL     1       7.126   7.776  17.167  0.00  0.00    +0.000 OA
ENDROOT
BRANCH   3   6
ATOM      6  C   UNL     1       9.113  10.233  18.826  0.00  0.00    +0.000 A 
ATOM      7  C   UNL     1       9.684  11.159  17.949  0.00  0.00    +0.000 A 
ATOM      8  C   UNL     1      10.328  12.264  18.479  0.00  0.00    +0.000 A 
ATOM      9  N   UNL     1      10.447  12.500  19.803  0.00  0.00    +0.000 NA
ATOM     10  C   UNL     1       9.896  11.593  20.635  0.00  0.00    +0.000 A 
ATOM     11  C   UNL     1       9.228  10.459  20.202  0.00  0.00    +0.000 A 
ENDBRANCH   3   6
BRANCH   1  12
ATOM     12  S   UNL     1       7.504   5.370  18.403  0.00  0.00    +0.000 S 
BRANCH  12  13
ATOM     13  C   UNL     1       5.882   5.443  19.203  0.00  0.00    +0.000 C 
BRANCH  13  14
ATOM     14  O   UNL     1       4.801   5.287  18.275  0.00  0.00    +0.000 OA
BRANCH  14  15
ATOM     15  C   UNL     1       3.848   4.381  18.630  0.00  0.00    +0.000 C 
ATOM     16  O   UNL     1       4.077   3.198  18.853  0.00  0.00    +0.000 OA
BRANCH  15  18
ATOM     17  C   UNL     1       1.489   4.216  17.837  0.00  0.00    +0.000 C 
ATOM     18  C   UNL     1       2.461   5.020  18.716  0.00  0.00    +0.000 C 
ATOM     19  C   UNL     1       2.511   6.465  18.202  0.00  0.00    +0.000 C 
ATOM     20  C   UNL     1       1.961   4.993  20.165  0.00  0.00    +0.000 C 
ENDBRANCH  15  18
ENDBRANCH  14  15
ENDBRANCH  13  14
ENDBRANCH  12  13
ENDBRANCH   1  12
TORSDOF 6
ENDMDL
MODEL 9
REMARK VINA RESULT:      -6.3      1.694      2.494
REMARK  Name = 
REMARK  9 active torsions:
REMARK  status: ('A' for Active; 'I' for Inactive)
REMARK    1  A    between atoms: C_1  and  C_2
REMARK    2  A    between atoms: C_2  and  C_3
REMARK    3  A    between atoms: C_2  and  C_4
REMARK    4  A    between atoms: C_2  and  C_5
REMARK    5  A    between atoms: C_5  and  O_7
REMARK    6  A    between atoms: O_7  and  C_8
REMARK    7  A    between atoms: C_8  and  S_9
REMARK    8  A    between atoms: S_9  and  C_10
REMARK    9  A    between atoms: C_12  and  C_13
REMARK                            x       y       z     vdW  Elec       q    Type
REMARK                         _______ _______ _______ _____ _____    ______ ____
ROOT
ATOM      1  C   UNL     1       7.062   4.794  16.164  0.00  0.00    +0.000 A 
ATOM      2  N   UNL     1       6.358   3.928  15.473  0.00  0.00    +0.000 NA
ATOM      3  C   UNL     1       6.574   4.326  14.169  0.00  0.00    +0.000 A 
ATOM      4  N   UNL     1       7.369   5.401  14.055  0.00  0.00    +0.000 NA
ATOM      5  O   UNL     1       7.697   5.706  15.374  0.00  0.00    +0.000 OA
ENDROOT
BRANCH   3   6
ATOM      6  C   UNL     1       5.992   3.622  13.031  0.00  0.00    +0.000 A 
ATOM      7  C   UNL     1       6.720   2.633  12.367  0.00  0.00    +0.000 A 
ATOM      8  C   UNL     1       6.131   1.981  11.296  0.00  0.00    +0.000 A 
ATOM      9  N   UNL     1       4.887   2.252  10.846  0.00  0.00    +0.000 NA
ATOM     10  C   UNL     1       4.201   3.215  11.495  0.00  0.00    +0.000 A 
ATOM     11  C   UNL     1       4.702   3.919  12.577  0.00  0.00    +0.000 A 
ENDBRANCH   3   6
BRANCH   1  12
ATOM     12  S   UNL     1       7.268   4.724  17.886  0.00  0.00    +0.000 S 
BRANCH  12  13
ATOM     13  C   UNL     1       5.666   5.361  18.437  0.00  0.00    +0.000 C 
BRANCH  13  14
ATOM     14  O   UNL     1       4.581   4.486  18.107  0.00  0.00    +0.000 OA
BRANCH  14  15
ATOM     15  C   UNL     1       4.149   3.680  19.116  0.00  0.00    +0.000 C 
ATOM     16  O   UNL     1       4.878   2.925  19.749  0.00  0.00    +0.000 OA
BRANCH  15  18
ATOM     17  C   UNL     1       2.070   2.466  19.771  0.00  0.00    +0.000 C 
ATOM     18  C   UNL     1       2.646   3.831  19.360  0.00  0.00    +0.000 C 
ATOM     19  C   UNL     1       1.945   4.296  18.077  0.00  0.00    +0.000 C 
ATOM     20  C   UNL     1       2.398   4.837  20.490  0.00  0.00    +0.000 C 
ENDBRANCH  15  18
ENDBRANCH  14  15
ENDBRANCH  13  14
ENDBRANCH  12  13
ENDBRANCH   1  12
TORSDOF 6
ENDMDL
