MODEL 1
REMARK VINA RESULT:      -8.6      0.000      0.000
REMARK  Name = 
REMARK  6 active torsions:
REMARK  status: ('A' for Active; 'I' for Inactive)
REMARK    1  A    between atoms: C_1  and  C_2
REMARK    2  A    between atoms: C_4  and  N_5
REMARK    3  A    between atoms: N_5  and  C_6
REMARK    4  A    between atoms: C_9  and  C_10
REMARK    5  A    between atoms: C_18  and  C_19
REMARK    6  A    between atoms: C_19  and  C_20
REMARK                            x       y       z     vdW  Elec       q    Type
REMARK                         _______ _______ _______ _____ _____    ______ ____
ROOT
ATOM      1  C   UNL     1       7.977   5.566  19.864  0.00  0.00    +0.000 C 
ATOM      2  C   UNL     1       7.179   5.396  18.593  0.00  0.00    +0.000 A 
ATOM      3  C   UNL     1       5.704   5.565  18.695  0.00  0.00    +0.000 A 
ATOM      4  C   UNL     1       4.979   5.391  17.573  0.00  0.00    +0.000 A 
ATOM      5  N   UNL     1       5.680   5.097  16.380  0.00  0.00    +0.000 N 
ATOM      6  N   UNL     1       5.188   4.866  15.125  0.00  0.00    +0.000 NA
ATOM      7  C   UNL     1       6.302   4.565  14.442  0.00  0.00    +0.000 A 
ATOM      8  N   UNL     1       7.463   4.613  15.166  0.00  0.00    +0.000 NA
ATOM      9  C   UNL     1       7.069   4.950  16.374  0.00  0.00    +0.000 A 
ATOM     10  N   UNL     1       7.827   5.109  17.504  0.00  0.00    +0.000 NA
ENDROOT
BRANCH   4  11
ATOM     11  N   UNL     1       3.591   5.506  17.529  0.00  0.00    +0.000 N 
ATOM     12  H   UNL     1       3.132   4.633  17.251  0.00  0.00    +0.000 HD
BRANCH  11  13
ATOM     13  C   UNL     1       2.803   6.242  18.449  0.00  0.00    +0.000 A 
ATOM     14  C   UNL     1       2.343   5.711  19.662  0.00  0.00    +0.000 A 
ATOM     15  C   UNL     1       1.654   6.500  20.589  0.00  0.00    +0.000 A 
ATOM     16  C   UNL     1       1.414   7.855  20.332  0.00  0.00    +0.000 A 
ATOM     17  C   UNL     1       1.848   8.389  19.110  0.00  0.00    +0.000 A 
ATOM     18  C   UNL     1       2.537   7.592  18.185  0.00  0.00    +0.000 A 
BRANCH  16  19
ATOM     19  C   UNL     1       0.729   8.729  21.354  0.00  0.00    +0.000 C 
ATOM     20  F   UNL     1       0.503  10.000  20.917  0.00  0.00    +0.000 F 
ATOM     21  F   UNL     1      -0.492   8.241  21.715  0.00  0.00    +0.000 F 
ATOM     22  F   UNL     1       1.441   8.852  22.507  0.00  0.00    +0.000 F 
ENDBRANCH  16  19
ENDBRANCH  11  13
ENDBRANCH   4  11
BRANCH   7  23
ATOM     23  C   UNL     1       6.315   4.103  13.016  0.00  0.00    +0.000 C 
BRANCH  23  24
ATOM     24  C   UNL     1       5.282   3.085  12.622  0.00  0.00    +0.000 C 
ATOM     25  C   UNL     1       4.460   3.236  11.366  0.00  0.00    +0.000 C 
ATOM     26  C   UNL     1       5.527   2.180  11.437  0.00  0.00    +0.000 C 
ENDBRANCH  23  24
ENDBRANCH   7  23
TORSDOF 5
ENDMDL
MODEL 2
REMARK VINA RESULT:      -8.3      2.272      3.811
REMARK  Name = 
REMARK  6 active torsions:
REMARK  status: ('A' for Active; 'I' for Inactive)
REMARK    1  A    between atoms: C_1  and  C_2
REMARK    2  A    between atoms: C_4  and  N_5
REMARK    3  A    between atoms: N_5  and  C_6
REMARK    4  A    between atoms: C_9  and  C_10
REMARK    5  A    between atoms: C_18  and  C_19
REMARK    6  A    between atoms: C_19  and  C_20
REMARK                            x       y       z     vdW  Elec       q    Type
REMARK                         _______ _______ _______ _____ _____    ______ ____
ROOT
ATOM      1  C   UNL     1       0.620   2.151  18.951  0.00  0.00    +0.000 C 
ATOM      2  C   UNL     1       1.701   3.161  18.645  0.00  0.00    +0.000 A 
ATOM      3  C   UNL     1       1.749   4.378  19.501  0.00  0.00    +0.000 A 
ATOM      4  C   UNL     1       2.693   5.297  19.221  0.00  0.00    +0.000 A 
ATOM      5  N   UNL     1       3.586   5.017  18.160  0.00  0.00    +0.000 N 
ATOM      6  N   UNL     1       4.611   5.779  17.671  0.00  0.00    +0.000 NA
ATOM      7  C   UNL     1       5.031   5.043  16.632  0.00  0.00    +0.000 A 
ATOM      8  N   UNL     1       4.364   3.863  16.442  0.00  0.00    +0.000 NA
ATOM      9  C   UNL     1       3.465   3.850  17.401  0.00  0.00    +0.000 A 
ATOM     10  N   UNL     1       2.506   2.906  17.657  0.00  0.00    +0.000 NA
ENDROOT
BRANCH   4  11
ATOM     11  N   UNL     1       2.843   6.486  19.932  0.00  0.00    +0.000 N 
ATOM     12  H   UNL     1       3.821   6.689  20.159  0.00  0.00    +0.000 HD
BRANCH  11  13
ATOM     13  C   UNL     1       2.102   7.672  19.706  0.00  0.00    +0.000 A 
ATOM     14  C   UNL     1       2.017   8.297  18.454  0.00  0.00    +0.000 A 
ATOM     15  C   UNL     1       1.193   9.409  18.247  0.00  0.00    +0.000 A 
ATOM     16  C   UNL     1       0.416   9.923  19.291  0.00  0.00    +0.000 A 
ATOM     17  C   UNL     1       0.512   9.320  20.554  0.00  0.00    +0.000 A 
ATOM     18  C   UNL     1       1.342   8.207  20.754  0.00  0.00    +0.000 A 
BRANCH  16  19
ATOM     19  C   UNL     1      -0.524  11.081  19.062  0.00  0.00    +0.000 C 
ATOM     20  F   UNL     1       0.037  12.105  18.359  0.00  0.00    +0.000 F 
ATOM     21  F   UNL     1      -1.632  10.714  18.356  0.00  0.00    +0.000 F 
ATOM     22  F   UNL     1      -0.981  11.628  20.221  0.00  0.00    +0.000 F 
ENDBRANCH  16  19
ENDBRANCH  11  13
ENDBRANCH   4  11
BRANCH   7  23
ATOM     23  C   UNL     1       6.081   5.487  15.657  0.00  0.00    +0.000 C 
BRANCH  23  24
ATOM     24  C   UNL     1       6.711   4.421  14.805  0.00  0.00    +0.000 C 
ATOM     25  C   UNL     1       6.058   3.935  13.535  0.00  0.00    +0.000 C 
ATOM     26  C   UNL     1       7.298   4.780  13.459  0.00  0.00    +0.000 C 
ENDBRANCH  23  24
ENDBRANCH   7  23
TORSDOF 5
ENDMDL
MODEL 3
REMARK VINA RESULT:      -8.3      3.423      4.833
REMARK  Name = 
REMARK  6 active torsions:
REMARK  status: ('A' for Active; 'I' for Inactive)
REMARK    1  A    between atoms: C_1  and  C_2
REMARK    2  A    between atoms: C_4  and  N_5
REMARK    3  A    between atoms: N_5  and  C_6
REMARK    4  A    between atoms: C_9  and  C_10
REMARK    5  A    between atoms: C_18  and  C_19
REMARK    6  A    between atoms: C_19  and  C_20
REMARK                            x       y       z     vdW  Elec       q    Type
REMARK                         _______ _______ _______ _____ _____    ______ ____
ROOT
ATOM      1  C   UNL     1       0.649   2.221  18.740  0.00  0.00    +0.000 C 
ATOM      2  C   UNL     1       1.784   3.175  19.031  0.00  0.00    +0.000 A 
ATOM      3  C   UNL     1       1.460   4.379  19.846  0.00  0.00    +0.000 A 
ATOM      4  C   UNL     1       2.458   5.249  20.091  0.00  0.00    +0.000 A 
ATOM      5  N   UNL     1       3.742   4.934  19.585  0.00  0.00    +0.000 N 
ATOM      6  N   UNL     1       4.906   5.646  19.682  0.00  0.00    +0.000 NA
ATOM      7  C   UNL     1       5.747   4.900  18.950  0.00  0.00    +0.000 A 
ATOM      8  N   UNL     1       5.207   3.759  18.420  0.00  0.00    +0.000 NA
ATOM      9  C   UNL     1       3.956   3.784  18.823  0.00  0.00    +0.000 A 
ATOM     10  N   UNL     1       2.956   2.889  18.549  0.00  0.00    +0.000 NA
ENDROOT
BRANCH   4  11
ATOM     11  N   UNL     1       2.293   6.421  20.827  0.00  0.00    +0.000 N 
ATOM     12  H   UNL     1       3.072   6.597  21.470  0.00  0.00    +0.000 HD
BRANCH  11  13
ATOM     13  C   UNL     1       1.745   7.629  20.328  0.00  0.00    +0.000 A 
ATOM     14  C   UNL     1       1.981   8.100  19.029  0.00  0.00    +0.000 A 
ATOM     15  C   UNL     1       1.340   9.243  18.539  0.00  0.00    +0.000 A 
ATOM     16  C   UNL     1       0.430   9.946  19.337  0.00  0.00    +0.000 A 
ATOM     17  C   UNL     1       0.206   9.497  20.646  0.00  0.00    +0.000 A 
ATOM     18  C   UNL     1       0.853   8.351  21.131  0.00  0.00    +0.000 A 
BRANCH  16  19
ATOM     19  C   UNL     1      -0.314  11.142  18.795  0.00  0.00    +0.000 C 
ATOM     20  F   UNL     1      -1.066  10.861  17.694  0.00  0.00    +0.000 F 
ATOM     21  F   UNL     1      -1.179  11.668  19.708  0.00  0.00    +0.000 F 
ATOM     22  F   UNL     1       0.514  12.160  18.433  0.00  0.00    +0.000 F 
ENDBRANCH  16  19
ENDBRANCH  11  13
ENDBRANCH   4  11
BRANCH   7  23
ATOM     23  C   UNL     1       7.155   5.298  18.622  0.00  0.00    +0.000 C 
BRANCH  23  24
ATOM     24  C   UNL     1       7.347   6.194  17.431  0.00  0.00    +0.000 C 
ATOM     25  C   UNL     1       6.352   7.273  17.083  0.00  0.00    +0.000 C 
ATOM     26  C   UNL     1       7.700   7.650  17.630  0.00  0.00    +0.000 C 
ENDBRANCH  23  24
ENDBRANCH   7  23
TORSDOF 5
ENDMDL
MODEL 4
REMARK VINA RESULT:      -8.2      2.876      3.429
REMARK  Name = 
REMARK  6 active torsions:
REMARK  status: ('A' for Active; 'I' for Inactive)
REMARK    1  A    between atoms: C_1  and  C_2
REMARK    2  A    between atoms: C_4  and  N_5
REMARK    3  A    between atoms: N_5  and  C_6
REMARK    4  A    between atoms: C_9  and  C_10
REMARK    5  A    between atoms: C_18  and  C_19
REMARK    6  A    between atoms: C_19  and  C_20
REMARK                            x       y       z     vdW  Elec       q    Type
REMARK                         _______ _______ _______ _____ _____    ______ ____
ROOT
ATOM      1  C   UNL     1       7.927   8.132  18.234  0.00  0.00    +0.000 C 
ATOM      2  C   UNL     1       7.465   6.901  17.491  0.00  0.00    +0.000 A 
ATOM      3  C   UNL     1       6.952   5.770  18.312  0.00  0.00    +0.000 A 
ATOM      4  C   UNL     1       6.560   4.658  17.662  0.00  0.00    +0.000 A 
ATOM      5  N   UNL     1       6.634   4.665  16.249  0.00  0.00    +0.000 N 
ATOM      6  N   UNL     1       6.313   3.673  15.364  0.00  0.00    +0.000 NA
ATOM      7  C   UNL     1       6.665   4.223  14.192  0.00  0.00    +0.000 A 
ATOM      8  N   UNL     1       7.161   5.497  14.270  0.00  0.00    +0.000 NA
ATOM      9  C   UNL     1       7.135   5.769  15.556  0.00  0.00    +0.000 A 
ATOM     10  N   UNL     1       7.551   6.907  16.194  0.00  0.00    +0.000 NA
ENDROOT
BRANCH   4  11
ATOM     11  N   UNL     1       6.073   3.523  18.306  0.00  0.00    +0.000 N 
ATOM     12  H   UNL     1       6.755   3.111  18.951  0.00  0.00    +0.000 HD
BRANCH  11  13
ATOM     13  C   UNL     1       4.745   3.355  18.773  0.00  0.00    +0.000 A 
ATOM     14  C   UNL     1       4.425   2.641  19.936  0.00  0.00    +0.000 A 
ATOM     15  C   UNL     1       3.113   2.584  20.419  0.00  0.00    +0.000 A 
ATOM     16  C   UNL     1       2.080   3.254  19.755  0.00  0.00    +0.000 A 
ATOM     17  C   UNL     1       2.386   3.951  18.577  0.00  0.00    +0.000 A 
ATOM     18  C   UNL     1       3.702   4.003  18.097  0.00  0.00    +0.000 A 
BRANCH  16  19
ATOM     19  C   UNL     1       0.674   3.252  20.305  0.00  0.00    +0.000 C 
ATOM     20  F   UNL     1       0.571   2.664  21.530  0.00  0.00    +0.000 F 
ATOM     21  F   UNL     1       0.178   4.512  20.457  0.00  0.00    +0.000 F 
ATOM     22  F   UNL     1      -0.206   2.596  19.500  0.00  0.00    +0.000 F 
ENDBRANCH  16  19
ENDBRANCH  11  13
ENDBRANCH   4  11
BRANCH   7  23
ATOM     23  C   UNL     1       6.636   3.499  12.880  0.00  0.00    +0.000 C 
BRANCH  23  24
ATOM     24  C   UNL     1       5.328   2.878  12.476  0.00  0.00    +0.000 C 
ATOM     25  C   UNL     1       4.323   3.625  11.635  0.00  0.00    +0.000 C 
ATOM     26  C   UNL     1       5.093   2.482  11.037  0.00  0.00    +0.000 C 
ENDBRANCH  23  24
ENDBRANCH   7  23
TORSDOF 5
ENDMDL
MODEL 5
REMARK VINA RESULT:      -8.1      2.674      4.100
REMARK  Name = 
REMARK  6 active torsions:
REMARK  status: ('A' for Active; 'I' for Inactive)
REMARK    1  A    between atoms: C_1  and  C_2
REMARK    2  A    between atoms: C_4  and  N_5
REMARK    3  A    between atoms: N_5  and  C_6
REMARK    4  A    between atoms: C_9  and  C_10
REMARK    5  A    between atoms: C_18  and  C_19
REMARK    6  A    between atoms: C_19  and  C_20
REMARK                            x       y       z     vdW  Elec       q    Type
REMARK                         _______ _______ _______ _____ _____    ______ ____
ROOT
ATOM      1  C   UNL     1       1.336   2.629  21.748  0.00  0.00    +0.000 C 
ATOM      2  C   UNL     1       2.118   3.338  20.668  0.00  0.00    +0.000 A 
ATOM      3  C   UNL     1       2.267   4.814  20.801  0.00  0.00    +0.000 A 
ATOM      4  C   UNL     1       2.941   5.460  19.830  0.00  0.00    +0.000 A 
ATOM      5  N   UNL     1       3.484   4.682  18.780  0.00  0.00    +0.000 N 
ATOM      6  N   UNL     1       4.191   5.089  17.682  0.00  0.00    +0.000 NA
ATOM      7  C   UNL     1       4.358   3.935  17.019  0.00  0.00    +0.000 A 
ATOM      8  N   UNL     1       3.832   2.828  17.628  0.00  0.00    +0.000 NA
ATOM      9  C   UNL     1       3.291   3.300  18.729  0.00  0.00    +0.000 A 
ATOM     10  N   UNL     1       2.599   2.621  19.697  0.00  0.00    +0.000 NA
ENDROOT
BRANCH   4  11
ATOM     11  N   UNL     1       3.144   6.838  19.822  0.00  0.00    +0.000 N 
ATOM     12  H   UNL     1       4.045   7.103  19.411  0.00  0.00    +0.000 HD
BRANCH  11  13
ATOM     13  C   UNL     1       2.145   7.810  19.560  0.00  0.00    +0.000 A 
ATOM     14  C   UNL     1       1.380   8.414  20.567  0.00  0.00    +0.000 A 
ATOM     15  C   UNL     1       0.476   9.442  20.279  0.00  0.00    +0.000 A 
ATOM     16  C   UNL     1       0.320   9.905  18.967  0.00  0.00    +0.000 A 
ATOM     17  C   UNL     1       1.063   9.291  17.949  0.00  0.00    +0.000 A 
ATOM     18  C   UNL     1       1.966   8.260  18.246  0.00  0.00    +0.000 A 
BRANCH  16  19
ATOM     19  C   UNL     1      -0.605  11.057  18.656  0.00  0.00    +0.000 C 
ATOM     20  F   UNL     1      -1.547  11.272  19.618  0.00  0.00    +0.000 F 
ATOM     21  F   UNL     1       0.065  12.237  18.527  0.00  0.00    +0.000 F 
ATOM     22  F   UNL     1      -1.290  10.885  17.493  0.00  0.00    +0.000 F 
ENDBRANCH  16  19
ENDBRANCH  11  13
ENDBRANCH   4  11
BRANCH   7  23
ATOM     23  C   UNL     1       4.978   3.830  15.657  0.00  0.00    +0.000 C 
BRANCH  23  24
ATOM     24  C   UNL     1       5.791   5.003  15.189  0.00  0.00    +0.000 C 
ATOM     25  C   UNL     1       7.238   5.172  15.581  0.00  0.00    +0.000 C 
ATOM     26  C   UNL     1       6.887   4.803  14.167  0.00  0.00    +0.000 C 
ENDBRANCH  23  24
ENDBRANCH   7  23
TORSDOF 5
ENDMDL
MODEL 6
REMARK VINA RESULT:      -8.1      2.608      3.542
REMARK  Name = 
REMARK  6 active torsions:
REMARK  status: ('A' for Active; 'I' for Inactive)
REMARK    1  A    between atoms: C_1  and  C_2
REMARK    2  A    between atoms: C_4  and  N_5
REMARK    3  A    between atoms: N_5  and  C_6
REMARK    4  A    between atoms: C_9  and  C_10
REMARK    5  A    between atoms: C_18  and  C_19
REMARK    6  A    between atoms: C_19  and  C_20
REMARK                            x       y       z     vdW  Elec       q    Type
REMARK                         _______ _______ _______ _____ _____    ______ ____
ROOT
ATOM      1  C   UNL     1       8.357   8.564  18.060  0.00  0.00    +0.000 C 
ATOM      2  C   UNL     1       7.766   7.261  17.576  0.00  0.00    +0.000 A 
ATOM      3  C   UNL     1       7.309   6.299  18.616  0.00  0.00    +0.000 A 
ATOM      4  C   UNL     1       6.803   5.124  18.196  0.00  0.00    +0.000 A 
ATOM      5  N   UNL     1       6.713   4.911  16.800  0.00  0.00    +0.000 N 
ATOM      6  N   UNL     1       6.256   3.814  16.123  0.00  0.00    +0.000 NA
ATOM      7  C   UNL     1       6.491   4.159  14.848  0.00  0.00    +0.000 A 
ATOM      8  N   UNL     1       7.039   5.400  14.669  0.00  0.00    +0.000 NA
ATOM      9  C   UNL     1       7.172   5.866  15.891  0.00  0.00    +0.000 A 
ATOM     10  N   UNL     1       7.702   7.064  16.292  0.00  0.00    +0.000 NA
ENDROOT
BRANCH   4  11
ATOM     11  N   UNL     1       6.351   4.129  19.060  0.00  0.00    +0.000 N 
ATOM     12  H   UNL     1       7.022   3.918  19.805  0.00  0.00    +0.000 HD
BRANCH  11  13
ATOM     13  C   UNL     1       5.013   3.979  19.504  0.00  0.00    +0.000 A 
ATOM     14  C   UNL     1       4.079   5.023  19.493  0.00  0.00    +0.000 A 
ATOM     15  C   UNL     1       2.741   4.810  19.843  0.00  0.00    +0.000 A 
ATOM     16  C   UNL     1       2.295   3.534  20.205  0.00  0.00    +0.000 A 
ATOM     17  C   UNL     1       3.227   2.487  20.243  0.00  0.00    +0.000 A 
ATOM     18  C   UNL     1       4.567   2.709  19.892  0.00  0.00    +0.000 A 
BRANCH  16  19
ATOM     19  C   UNL     1       0.841   3.281  20.521  0.00  0.00    +0.000 C 
ATOM     20  F   UNL     1       0.647   2.645  21.711  0.00  0.00    +0.000 F 
ATOM     21  F   UNL     1       0.121   4.436  20.599  0.00  0.00    +0.000 F 
ATOM     22  F   UNL     1       0.221   2.515  19.582  0.00  0.00    +0.000 F 
ENDBRANCH  16  19
ENDBRANCH  11  13
ENDBRANCH   4  11
BRANCH   7  23
ATOM     23  C   UNL     1       6.283   3.245  13.678  0.00  0.00    +0.000 C 
BRANCH  23  24
ATOM     24  C   UNL     1       5.699   3.855  12.435  0.00  0.00    +0.000 C 
ATOM     25  C   UNL     1       5.643   3.097  11.132  0.00  0.00    +0.000 C 
ATOM     26  C   UNL     1       4.377   3.358  11.898  0.00  0.00    +0.000 C 
ENDBRANCH  23  24
ENDBRANCH   7  23
TORSDOF 5
ENDMDL
MODEL 7
REMARK VINA RESULT:      -8.0      2.685      4.131
REMARK  Name = 
REMARK  6 active torsions:
REMARK  status: ('A' for Active; 'I' for Inactive)
REMARK    1  A    between atoms: C_1  and  C_2
REMARK    2  A    between atoms: C_4  and  N_5
REMARK    3  A    between atoms: N_5  and  C_6
REMARK    4  A    between atoms: C_9  and  C_10
REMARK    5  A    between atoms: C_18  and  C_19
REMARK    6  A    between atoms: C_19  and  C_20
REMARK                            x       y       z     vdW  Elec       q    Type
REMARK                         _______ _______ _______ _____ _____    ______ ____
ROOT
ATOM      1  C   UNL     1       1.265   2.635  21.645  0.00  0.00    +0.000 C 
ATOM      2  C   UNL     1       2.031   3.401  20.593  0.00  0.00    +0.000 A 
ATOM      3  C   UNL     1       2.207   4.862  20.816  0.00  0.00    +0.000 A 
ATOM      4  C   UNL     1       2.867   5.560  19.872  0.00  0.00    +0.000 A 
ATOM      5  N   UNL     1       3.373   4.844  18.762  0.00  0.00    +0.000 N 
ATOM      6  N   UNL     1       4.059   5.310  17.674  0.00  0.00    +0.000 NA
ATOM      7  C   UNL     1       4.192   4.199  16.935  0.00  0.00    +0.000 A 
ATOM      8  N   UNL     1       3.664   3.063  17.485  0.00  0.00    +0.000 NA
ATOM      9  C   UNL     1       3.157   3.471  18.627  0.00  0.00    +0.000 A 
ATOM     10  N   UNL     1       2.478   2.740  19.566  0.00  0.00    +0.000 NA
ENDROOT
BRANCH   4  11
ATOM     11  N   UNL     1       3.092   6.933  19.948  0.00  0.00    +0.000 N 
ATOM     12  H   UNL     1       4.031   7.198  19.636  0.00  0.00    +0.000 HD
BRANCH  11  13
ATOM     13  C   UNL     1       2.137   7.935  19.638  0.00  0.00    +0.000 A 
ATOM     14  C   UNL     1       1.924   8.416  18.339  0.00  0.00    +0.000 A 
ATOM     15  C   UNL     1       0.903   9.331  18.059  0.00  0.00    +0.000 A 
ATOM     16  C   UNL     1       0.054   9.784  19.075  0.00  0.00    +0.000 A 
ATOM     17  C   UNL     1       0.275   9.327  20.382  0.00  0.00    +0.000 A 
ATOM     18  C   UNL     1       1.301   8.411  20.656  0.00  0.00    +0.000 A 
BRANCH  16  19
ATOM     19  C   UNL     1      -1.090  10.720  18.771  0.00  0.00    +0.000 C 
ATOM     20  F   UNL     1      -0.729  11.787  18.002  0.00  0.00    +0.000 F 
ATOM     21  F   UNL     1      -2.097  10.101  18.092  0.00  0.00    +0.000 F 
ATOM     22  F   UNL     1      -1.659  11.242  19.892  0.00  0.00    +0.000 F 
ENDBRANCH  16  19
ENDBRANCH  11  13
ENDBRANCH   4  11
BRANCH   7  23
ATOM     23  C   UNL     1       4.777   4.174  15.554  0.00  0.00    +0.000 C 
BRANCH  23  24
ATOM     24  C   UNL     1       5.831   5.199  15.243  0.00  0.00    +0.000 C 
ATOM     25  C   UNL     1       7.218   5.110  15.828  0.00  0.00    +0.000 C 
ATOM     26  C   UNL     1       7.006   4.831  14.367  0.00  0.00    +0.000 C 
ENDBRANCH  23  24
ENDBRANCH   7  23
TORSDOF 5
ENDMDL
MODEL 8
REMARK VINA RESULT:      -8.0      2.684      4.156
REMARK  Name = 
REMARK  6 active torsions:
REMARK  status: ('A' for Active; 'I' for Inactive)
REMARK    1  A    between atoms: C_1  and  C_2
REMARK    2  A    between atoms: C_4  and  N_5
REMARK    3  A    between atoms: N_5  and  C_6
REMARK    4  A    between atoms: C_9  and  C_10
REMARK    5  A    between atoms: C_18  and  C_19
REMARK    6  A    between atoms: C_19  and  C_20
REMARK                            x       y       z     vdW  Elec       q    Type
REMARK                         _______ _______ _______ _____ _____    ______ ____
ROOT
ATOM      1  C   UNL     1       1.272   2.807  21.365  0.00  0.00    +0.000 C 
ATOM      2  C   UNL     1       1.999   3.783  20.471  0.00  0.00    +0.000 A 
ATOM      3  C   UNL     1       1.923   5.223  20.841  0.00  0.00    +0.000 A 
ATOM      4  C   UNL     1       2.547   6.105  20.037  0.00  0.00    +0.000 A 
ATOM      5  N   UNL     1       3.255   5.592  18.926  0.00  0.00    +0.000 N 
ATOM      6  N   UNL     1       3.954   6.265  17.961  0.00  0.00    +0.000 NA
ATOM      7  C   UNL     1       4.325   5.269  17.143  0.00  0.00    +0.000 A 
ATOM      8  N   UNL     1       3.934   4.016  17.532  0.00  0.00    +0.000 NA
ATOM      9  C   UNL     1       3.270   4.223  18.647  0.00  0.00    +0.000 A 
ATOM     10  N   UNL     1       2.633   3.307  19.441  0.00  0.00    +0.000 NA
ENDROOT
BRANCH   4  11
ATOM     11  N   UNL     1       2.546   7.481  20.258  0.00  0.00    +0.000 N 
ATOM     12  H   UNL     1       3.467   7.906  20.111  0.00  0.00    +0.000 HD
BRANCH  11  13
ATOM     13  C   UNL     1       1.499   8.366  19.896  0.00  0.00    +0.000 A 
ATOM     14  C   UNL     1       0.579   8.883  20.818  0.00  0.00    +0.000 A 
ATOM     15  C   UNL     1      -0.377   9.833  20.440  0.00  0.00    +0.000 A 
ATOM     16  C   UNL     1      -0.431  10.303  19.124  0.00  0.00    +0.000 A 
ATOM     17  C   UNL     1       0.470   9.774  18.188  0.00  0.00    +0.000 A 
ATOM     18  C   UNL     1       1.424   8.821  18.574  0.00  0.00    +0.000 A 
BRANCH  16  19
ATOM     19  C   UNL     1      -1.415  11.375  18.722  0.00  0.00    +0.000 C 
ATOM     20  F   UNL     1      -0.863  12.363  17.963  0.00  0.00    +0.000 F 
ATOM     21  F   UNL     1      -2.448  10.877  17.984  0.00  0.00    +0.000 F 
ATOM     22  F   UNL     1      -1.984  11.997  19.791  0.00  0.00    +0.000 F 
ENDBRANCH  16  19
ENDBRANCH  11  13
ENDBRANCH   4  11
BRANCH   7  23
ATOM     23  C   UNL     1       5.027   5.474  15.834  0.00  0.00    +0.000 C 
BRANCH  23  24
ATOM     24  C   UNL     1       5.767   4.295  15.269  0.00  0.00    +0.000 C 
ATOM     25  C   UNL     1       5.929   4.100  13.781  0.00  0.00    +0.000 C 
ATOM     26  C   UNL     1       7.116   4.492  14.615  0.00  0.00    +0.000 C 
ENDBRANCH  23  24
ENDBRANCH   7  23
TORSDOF 5
ENDMDL
MODEL 9
REMARK VINA RESULT:      -8.0      1.145      1.746
REMARK  Name = 
REMARK  6 active torsions:
REMARK  status: ('A' for Active; 'I' for Inactive)
REMARK    1  A    between atoms: C_1  and  C_2
REMARK    2  A    between atoms: C_4  and  N_5
REMARK    3  A    between atoms: N_5  and  C_6
REMARK    4  A    between atoms: C_9  and  C_10
REMARK    5  A    between atoms: C_18  and  C_19
REMARK    6  A    between atoms: C_19  and  C_20
REMARK                            x       y       z     vdW  Elec       q    Type
REMARK                         _______ _______ _______ _____ _____    ______ ____
ROOT
ATOM      1  C   UNL     1       8.117   8.385  18.091  0.00  0.00    +0.000 C 
ATOM      2  C   UNL     1       7.246   7.399  17.349  0.00  0.00    +0.000 A 
ATOM      3  C   UNL     1       5.818   7.316  17.760  0.00  0.00    +0.000 A 
ATOM      4  C   UNL     1       5.038   6.422  17.123  0.00  0.00    +0.000 A 
ATOM      5  N   UNL     1       5.628   5.657  16.090  0.00  0.00    +0.000 N 
ATOM      6  N   UNL     1       5.067   4.686  15.306  0.00  0.00    +0.000 NA
ATOM      7  C   UNL     1       6.118   4.274  14.582  0.00  0.00    +0.000 A 
ATOM      8  N   UNL     1       7.294   4.928  14.832  0.00  0.00    +0.000 NA
ATOM      9  C   UNL     1       6.982   5.793  15.771  0.00  0.00    +0.000 A 
ATOM     10  N   UNL     1       7.799   6.686  16.413  0.00  0.00    +0.000 NA
ENDROOT
BRANCH   4  11
ATOM     11  N   UNL     1       3.689   6.232  17.415  0.00  0.00    +0.000 N 
ATOM     12  H   UNL     1       3.419   5.244  17.410  0.00  0.00    +0.000 HD
BRANCH  11  13
ATOM     13  C   UNL     1       2.949   6.971  18.373  0.00  0.00    +0.000 A 
ATOM     14  C   UNL     1       2.392   8.229  18.107  0.00  0.00    +0.000 A 
ATOM     15  C   UNL     1       1.582   8.881  19.044  0.00  0.00    +0.000 A 
ATOM     16  C   UNL     1       1.295   8.282  20.275  0.00  0.00    +0.000 A 
ATOM     17  C   UNL     1       1.866   7.033  20.560  0.00  0.00    +0.000 A 
ATOM     18  C   UNL     1       2.679   6.387  19.617  0.00  0.00    +0.000 A 
BRANCH  16  19
ATOM     19  C   UNL     1       0.370   8.948  21.265  0.00  0.00    +0.000 C 
ATOM     20  F   UNL     1      -0.653   8.146  21.677  0.00  0.00    +0.000 F 
ATOM     21  F   UNL     1       1.018   9.331  22.401  0.00  0.00    +0.000 F 
ATOM     22  F   UNL     1      -0.214  10.073  20.768  0.00  0.00    +0.000 F 
ENDBRANCH  16  19
ENDBRANCH  11  13
ENDBRANCH   4  11
BRANCH   7  23
ATOM     23  C   UNL     1       6.081   3.115  13.632  0.00  0.00    +0.000 C 
BRANCH  23  24
ATOM     24  C   UNL     1       5.780   3.426  12.193  0.00  0.00    +0.000 C 
ATOM     25  C   UNL     1       5.457   2.338  11.199  0.00  0.00    +0.000 C 
ATOM     26  C   UNL     1       4.372   3.267  11.665  0.00  0.00    +0.000 C 
ENDBRANCH  23  24
ENDBRANCH   7  23
TORSDOF 5
ENDMDL
