MODEL 1
REMARK VINA RESULT:      -8.7      0.000      0.000
REMARK  Name = 
REMARK  8 active torsions:
REMARK  status: ('A' for Active; 'I' for Inactive)
REMARK    1  A    between atoms: C_1  and  O_2
REMARK    2  A    between atoms: O_2  and  C_3
REMARK    3  A    between atoms: C_11  and  C_12
REMARK    4  A    between atoms: C_12  and  C_13
REMARK    5  A    between atoms: N_16  and  C_17
REMARK    6  A    between atoms: C_17  and  C_18
REMARK    7  A    between atoms: C_26  and  C_27
REMARK    8  A    between atoms: C_27  and  C_28
REMARK                            x       y       z     vdW  Elec       q    Type
REMARK                         _______ _______ _______ _____ _____    ______ ____
ROOT
ATOM      1  C   UNL     1       1.550   9.522  19.130  0.00  0.00    +0.000 A 
ATOM      2  C   UNL     1       2.153   9.273  17.890  0.00  0.00    +0.000 A 
ATOM      3  C   UNL     1       2.633   8.006  17.585  0.00  0.00    +0.000 A 
ATOM      4  N   UNL     1       2.533   6.999  18.478  0.00  0.00    +0.000 N 
ATOM      5  C   UNL     1       2.048   7.234  19.723  0.00  0.00    +0.000 A 
ATOM      6  C   UNL     1       1.517   8.478  20.073  0.00  0.00    +0.000 A 
ENDROOT
BRANCH   6   7
ATOM      7  C   UNL     1       0.931   8.647  21.439  0.00  0.00    +0.000 C 
ATOM      8  C   UNL     1      -0.535   8.365  21.676  0.00  0.00    +0.000 C 
ATOM      9  O   UNL     1       1.661   8.989  22.363  0.00  0.00    +0.000 OA
ENDBRANCH   6   7
BRANCH   1  10
ATOM     10  C   UNL     1       0.895  10.877  19.320  0.00  0.00    +0.000 C 
BRANCH  10  19
ATOM     11  C   UNL     1      -5.484  11.973  18.145  0.00  0.00    +0.000 A 
ATOM     12  C   UNL     1      -5.095  12.616  19.320  0.00  0.00    +0.000 A 
ATOM     13  C   UNL     1      -3.789  12.474  19.791  0.00  0.00    +0.000 A 
ATOM     14  C   UNL     1      -2.867  11.701  19.080  0.00  0.00    +0.000 A 
ATOM     15  C   UNL     1      -3.251  11.019  17.918  0.00  0.00    +0.000 A 
ATOM     16  C   UNL     1      -4.569  11.163  17.461  0.00  0.00    +0.000 A 
ATOM     17  C   UNL     1      -2.277  10.189  17.125  0.00  0.00    +0.000 C 
ATOM     18  C   UNL     1      -0.996   9.861  17.897  0.00  0.00    +0.000 C 
ATOM     19  C   UNL     1      -0.430  11.114  18.573  0.00  0.00    +0.000 C 
ATOM     20  C   UNL     1      -1.472  11.607  19.571  0.00  0.00    +0.000 C 
ATOM     21  O   UNL     1      -1.199  11.930  20.724  0.00  0.00    +0.000 OA
BRANCH  11  23
ATOM     22  C   UNL     1      -7.621  12.979  18.191  0.00  0.00    +0.000 C 
ATOM     23  O   UNL     1      -6.733  12.038  17.592  0.00  0.00    +0.000 OA
ENDBRANCH  11  23
ENDBRANCH  10  19
ENDBRANCH   1  10
BRANCH   4  24
ATOM     24  C   UNL     1       2.743   5.600  18.025  0.00  0.00    +0.000 C 
BRANCH  24  25
ATOM     25  C   UNL     1       2.493   4.553  19.076  0.00  0.00    +0.000 A 
ATOM     26  C   UNL     1       1.179   4.331  19.528  0.00  0.00    +0.000 A 
ATOM     27  C   UNL     1       0.932   3.508  20.629  0.00  0.00    +0.000 A 
ATOM     28  C   UNL     1       1.988   2.888  21.290  0.00  0.00    +0.000 A 
ATOM     29  C   UNL     1       3.290   3.057  20.827  0.00  0.00    +0.000 A 
ATOM     30  C   UNL     1       3.542   3.875  19.722  0.00  0.00    +0.000 A 
ATOM     31 CL   UNL     1       5.183   4.047  19.218  0.00  0.00    +0.000 Cl
ENDBRANCH  24  25
ENDBRANCH   4  24
TORSDOF 6
ENDMDL
MODEL 2
REMARK VINA RESULT:      -8.7      3.991      6.343
REMARK  Name = 
REMARK  8 active torsions:
REMARK  status: ('A' for Active; 'I' for Inactive)
REMARK    1  A    between atoms: C_1  and  O_2
REMARK    2  A    between atoms: O_2  and  C_3
REMARK    3  A    between atoms: C_11  and  C_12
REMARK    4  A    between atoms: C_12  and  C_13
REMARK    5  A    between atoms: N_16  and  C_17
REMARK    6  A    between atoms: C_17  and  C_18
REMARK    7  A    between atoms: C_26  and  C_27
REMARK    8  A    between atoms: C_27  and  C_28
REMARK                            x       y       z     vdW  Elec       q    Type
REMARK                         _______ _______ _______ _____ _____    ______ ____
ROOT
ATOM      1  C   UNL     1       4.060   5.764  18.054  0.00  0.00    +0.000 A 
ATOM      2  C   UNL     1       4.727   6.846  17.464  0.00  0.00    +0.000 A 
ATOM      3  C   UNL     1       5.891   6.640  16.735  0.00  0.00    +0.000 A 
ATOM      4  N   UNL     1       6.401   5.398  16.590  0.00  0.00    +0.000 N 
ATOM      5  C   UNL     1       5.836   4.346  17.234  0.00  0.00    +0.000 A 
ATOM      6  C   UNL     1       4.644   4.488  17.950  0.00  0.00    +0.000 A 
ENDROOT
BRANCH   6   7
ATOM      7  C   UNL     1       4.036   3.271  18.573  0.00  0.00    +0.000 C 
ATOM      8  C   UNL     1       3.025   2.451  17.806  0.00  0.00    +0.000 C 
ATOM      9  O   UNL     1       4.390   2.938  19.699  0.00  0.00    +0.000 OA
ENDBRANCH   6   7
BRANCH   1  10
ATOM     10  C   UNL     1       2.707   6.044  18.681  0.00  0.00    +0.000 C 
BRANCH  10  19
ATOM     11  C   UNL     1       0.000  11.324  21.521  0.00  0.00    +0.000 A 
ATOM     12  C   UNL     1       0.017  10.253  22.415  0.00  0.00    +0.000 A 
ATOM     13  C   UNL     1       0.502   9.011  22.004  0.00  0.00    +0.000 A 
ATOM     14  C   UNL     1       0.982   8.842  20.703  0.00  0.00    +0.000 A 
ATOM     15  C   UNL     1       0.939   9.896  19.781  0.00  0.00    +0.000 A 
ATOM     16  C   UNL     1       0.440  11.136  20.205  0.00  0.00    +0.000 A 
ATOM     17  C   UNL     1       1.460   9.746  18.377  0.00  0.00    +0.000 C 
ATOM     18  C   UNL     1       1.664   8.286  17.962  0.00  0.00    +0.000 C 
ATOM     19  C   UNL     1       2.409   7.508  19.051  0.00  0.00    +0.000 C 
ATOM     20  C   UNL     1       1.540   7.528  20.304  0.00  0.00    +0.000 C 
ATOM     21  O   UNL     1       1.308   6.528  20.977  0.00  0.00    +0.000 OA
BRANCH  11  23
ATOM     22  C   UNL     1      -1.780  12.870  21.382  0.00  0.00    +0.000 C 
ATOM     23  O   UNL     1      -0.453  12.581  21.812  0.00  0.00    +0.000 OA
ENDBRANCH  11  23
ENDBRANCH  10  19
ENDBRANCH   1  10
BRANCH   4  24
ATOM     24  C   UNL     1       7.437   5.154  15.554  0.00  0.00    +0.000 C 
BRANCH  24  25
ATOM     25  C   UNL     1       6.903   4.699  14.223  0.00  0.00    +0.000 A 
ATOM     26  C   UNL     1       5.749   3.893  14.184  0.00  0.00    +0.000 A 
ATOM     27  C   UNL     1       5.334   3.298  12.991  0.00  0.00    +0.000 A 
ATOM     28  C   UNL     1       6.055   3.503  11.819  0.00  0.00    +0.000 A 
ATOM     29  C   UNL     1       7.171   4.335  11.829  0.00  0.00    +0.000 A 
ATOM     30  C   UNL     1       7.588   4.938  13.019  0.00  0.00    +0.000 A 
ATOM     31 CL   UNL     1       8.988   5.943  12.953  0.00  0.00    +0.000 Cl
ENDBRANCH  24  25
ENDBRANCH   4  24
TORSDOF 6
ENDMDL
MODEL 3
REMARK VINA RESULT:      -8.6      1.543      2.336
REMARK  Name = 
REMARK  8 active torsions:
REMARK  status: ('A' for Active; 'I' for Inactive)
REMARK    1  A    between atoms: C_1  and  O_2
REMARK    2  A    between atoms: O_2  and  C_3
REMARK    3  A    between atoms: C_11  and  C_12
REMARK    4  A    between atoms: C_12  and  C_13
REMARK    5  A    between atoms: N_16  and  C_17
REMARK    6  A    between atoms: C_17  and  C_18
REMARK    7  A    between atoms: C_26  and  C_27
REMARK    8  A    between atoms: C_27  and  C_28
REMARK                            x       y       z     vdW  Elec       q    Type
REMARK                         _______ _______ _______ _____ _____    ______ ____
ROOT
ATOM      1  C   UNL     1       1.405   9.928  19.021  0.00  0.00    +0.000 A 
ATOM      2  C   UNL     1       2.013   9.461  17.848  0.00  0.00    +0.000 A 
ATOM      3  C   UNL     1       2.472   8.152  17.769  0.00  0.00    +0.000 A 
ATOM      4  N   UNL     1       2.344   7.314  18.819  0.00  0.00    +0.000 N 
ATOM      5  C   UNL     1       1.854   7.766  20.001  0.00  0.00    +0.000 A 
ATOM      6  C   UNL     1       1.345   9.061  20.128  0.00  0.00    +0.000 A 
ENDROOT
BRANCH   6   7
ATOM      7  C   UNL     1       0.750   9.470  21.438  0.00  0.00    +0.000 C 
ATOM      8  C   UNL     1      -0.488   8.778  21.959  0.00  0.00    +0.000 C 
ATOM      9  O   UNL     1       1.297  10.352  22.091  0.00  0.00    +0.000 OA
ENDBRANCH   6   7
BRANCH   1  10
ATOM     10  C   UNL     1       0.776  11.308  18.971  0.00  0.00    +0.000 C 
BRANCH  10  19
ATOM     11  C   UNL     1      -5.759  11.886  18.492  0.00  0.00    +0.000 A 
ATOM     12  C   UNL     1      -5.288  12.642  19.565  0.00  0.00    +0.000 A 
ATOM     13  C   UNL     1      -3.929  12.623  19.886  0.00  0.00    +0.000 A 
ATOM     14  C   UNL     1      -3.040  11.860  19.125  0.00  0.00    +0.000 A 
ATOM     15  C   UNL     1      -3.502  11.067  18.067  0.00  0.00    +0.000 A 
ATOM     16  C   UNL     1      -4.871  11.088  17.762  0.00  0.00    +0.000 A 
ATOM     17  C   UNL     1      -2.566  10.244  17.223  0.00  0.00    +0.000 C 
ATOM     18  C   UNL     1      -1.184  10.062  17.857  0.00  0.00    +0.000 C 
ATOM     19  C   UNL     1      -0.640  11.398  18.373  0.00  0.00    +0.000 C 
ATOM     20  C   UNL     1      -1.595  11.897  19.452  0.00  0.00    +0.000 C 
ATOM     21  O   UNL     1      -1.217  12.326  20.538  0.00  0.00    +0.000 OA
BRANCH  11  23
ATOM     22  C   UNL     1      -7.804  13.037  18.220  0.00  0.00    +0.000 C 
ATOM     23  O   UNL     1      -7.065  11.826  18.090  0.00  0.00    +0.000 OA
ENDBRANCH  11  23
ENDBRANCH  10  19
ENDBRANCH   1  10
BRANCH   4  24
ATOM     24  C   UNL     1       2.531   5.854  18.612  0.00  0.00    +0.000 C 
BRANCH  24  25
ATOM     25  C   UNL     1       3.759   5.481  17.828  0.00  0.00    +0.000 A 
ATOM     26  C   UNL     1       4.830   6.390  17.752  0.00  0.00    +0.000 A 
ATOM     27  C   UNL     1       5.901   6.163  16.884  0.00  0.00    +0.000 A 
ATOM     28  C   UNL     1       5.924   5.023  16.088  0.00  0.00    +0.000 A 
ATOM     29  C   UNL     1       4.897   4.088  16.184  0.00  0.00    +0.000 A 
ATOM     30  C   UNL     1       3.826   4.308  17.055  0.00  0.00    +0.000 A 
ATOM     31 CL   UNL     1       2.584   3.112  17.107  0.00  0.00    +0.000 Cl
ENDBRANCH  24  25
ENDBRANCH   4  24
TORSDOF 6
ENDMDL
MODEL 4
REMARK VINA RESULT:      -8.5      3.395      8.806
REMARK  Name = 
REMARK  8 active torsions:
REMARK  status: ('A' for Active; 'I' for Inactive)
REMARK    1  A    between atoms: C_1  and  O_2
REMARK    2  A    between atoms: O_2  and  C_3
REMARK    3  A    between atoms: C_11  and  C_12
REMARK    4  A    between atoms: C_12  and  C_13
REMARK    5  A    between atoms: N_16  and  C_17
REMARK    6  A    between atoms: C_17  and  C_18
REMARK    7  A    between atoms: C_26  and  C_27
REMARK    8  A    between atoms: C_27  and  C_28
REMARK                            x       y       z     vdW  Elec       q    Type
REMARK                         _______ _______ _______ _____ _____    ______ ____
ROOT
ATOM      1  C   UNL     1       0.037  10.281  18.875  0.00  0.00    +0.000 A 
ATOM      2  C   UNL     1      -0.677   9.993  17.704  0.00  0.00    +0.000 A 
ATOM      3  C   UNL     1      -1.970  10.471  17.535  0.00  0.00    +0.000 A 
ATOM      4  N   UNL     1      -2.560  11.213  18.495  0.00  0.00    +0.000 N 
ATOM      5  C   UNL     1      -1.935  11.421  19.681  0.00  0.00    +0.000 A 
ATOM      6  C   UNL     1      -0.621  10.996  19.894  0.00  0.00    +0.000 A 
ENDROOT
BRANCH   6   7
ATOM      7  C   UNL     1       0.034  11.325  21.198  0.00  0.00    +0.000 C 
ATOM      8  C   UNL     1      -0.385  10.608  22.460  0.00  0.00    +0.000 C 
ATOM      9  O   UNL     1       0.930  12.163  21.220  0.00  0.00    +0.000 OA
ENDBRANCH   6   7
BRANCH   1  10
ATOM     10  C   UNL     1       1.498   9.875  18.913  0.00  0.00    +0.000 C 
BRANCH  10  19
ATOM     11  C   UNL     1       3.171   3.558  19.665  0.00  0.00    +0.000 A 
ATOM     12  C   UNL     1       2.483   4.010  20.791  0.00  0.00    +0.000 A 
ATOM     13  C   UNL     1       2.077   5.343  20.870  0.00  0.00    +0.000 A 
ATOM     14  C   UNL     1       2.347   6.221  19.818  0.00  0.00    +0.000 A 
ATOM     15  C   UNL     1       3.069   5.793  18.696  0.00  0.00    +0.000 A 
ATOM     16  C   UNL     1       3.478   4.454  18.634  0.00  0.00    +0.000 A 
ATOM     17  C   UNL     1       3.364   6.714  17.542  0.00  0.00    +0.000 C 
ATOM     18  C   UNL     1       3.151   8.192  17.880  0.00  0.00    +0.000 C 
ATOM     19  C   UNL     1       1.813   8.403  18.593  0.00  0.00    +0.000 C 
ATOM     20  C   UNL     1       1.861   7.619  19.901  0.00  0.00    +0.000 C 
ATOM     21  O   UNL     1       1.510   8.088  20.979  0.00  0.00    +0.000 OA
BRANCH  11  23
ATOM     22  C   UNL     1       3.079   1.597  18.351  0.00  0.00    +0.000 C 
ATOM     23  O   UNL     1       3.618   2.279  19.481  0.00  0.00    +0.000 OA
ENDBRANCH  11  23
ENDBRANCH  10  19
ENDBRANCH   1  10
BRANCH   4  24
ATOM     24  C   UNL     1      -3.790  11.981  18.169  0.00  0.00    +0.000 C 
BRANCH  24  25
ATOM     25  C   UNL     1      -5.006  11.590  18.963  0.00  0.00    +0.000 A 
ATOM     26  C   UNL     1      -5.788  10.501  18.535  0.00  0.00    +0.000 A 
ATOM     27  C   UNL     1      -7.020  10.227  19.132  0.00  0.00    +0.000 A 
ATOM     28  C   UNL     1      -7.487  11.027  20.170  0.00  0.00    +0.000 A 
ATOM     29  C   UNL     1      -6.706  12.079  20.640  0.00  0.00    +0.000 A 
ATOM     30  C   UNL     1      -5.469  12.354  20.049  0.00  0.00    +0.000 A 
ATOM     31 CL   UNL     1      -4.566  13.684  20.677  0.00  0.00    +0.000 Cl
ENDBRANCH  24  25
ENDBRANCH   4  24
TORSDOF 6
ENDMDL
MODEL 5
REMARK VINA RESULT:      -8.4      1.821      2.472
REMARK  Name = 
REMARK  8 active torsions:
REMARK  status: ('A' for Active; 'I' for Inactive)
REMARK    1  A    between atoms: C_1  and  O_2
REMARK    2  A    between atoms: O_2  and  C_3
REMARK    3  A    between atoms: C_11  and  C_12
REMARK    4  A    between atoms: C_12  and  C_13
REMARK    5  A    between atoms: N_16  and  C_17
REMARK    6  A    between atoms: C_17  and  C_18
REMARK    7  A    between atoms: C_26  and  C_27
REMARK    8  A    between atoms: C_27  and  C_28
REMARK                            x       y       z     vdW  Elec       q    Type
REMARK                         _______ _______ _______ _____ _____    ______ ____
ROOT
ATOM      1  C   UNL     1       1.306   9.865  19.292  0.00  0.00    +0.000 A 
ATOM      2  C   UNL     1       1.995   9.809  18.073  0.00  0.00    +0.000 A 
ATOM      3  C   UNL     1       2.623   8.635  17.676  0.00  0.00    +0.000 A 
ATOM      4  N   UNL     1       2.585   7.536  18.458  0.00  0.00    +0.000 N 
ATOM      5  C   UNL     1       2.015   7.590  19.688  0.00  0.00    +0.000 A 
ATOM      6  C   UNL     1       1.337   8.731  20.125  0.00  0.00    +0.000 A 
ENDROOT
BRANCH   6   7
ATOM      7  C   UNL     1       0.666   8.696  21.461  0.00  0.00    +0.000 C 
ATOM      8  C   UNL     1       1.367   9.259  22.676  0.00  0.00    +0.000 C 
ATOM      9  O   UNL     1      -0.464   8.230  21.549  0.00  0.00    +0.000 OA
ENDBRANCH   6   7
BRANCH   1  10
ATOM     10  C   UNL     1       0.501  11.120  19.574  0.00  0.00    +0.000 C 
BRANCH  10  19
ATOM     11  C   UNL     1      -5.839  12.069  18.099  0.00  0.00    +0.000 A 
ATOM     12  C   UNL     1      -5.505  12.771  19.257  0.00  0.00    +0.000 A 
ATOM     13  C   UNL     1      -4.217  12.669  19.786  0.00  0.00    +0.000 A 
ATOM     14  C   UNL     1      -3.259  11.878  19.148  0.00  0.00    +0.000 A 
ATOM     15  C   UNL     1      -3.587  11.138  18.004  0.00  0.00    +0.000 A 
ATOM     16  C   UNL     1      -4.888  11.242  17.490  0.00  0.00    +0.000 A 
ATOM     17  C   UNL     1      -2.572  10.287  17.290  0.00  0.00    +0.000 C 
ATOM     18  C   UNL     1      -1.319  10.013  18.126  0.00  0.00    +0.000 C 
ATOM     19  C   UNL     1      -0.796  11.303  18.765  0.00  0.00    +0.000 C 
ATOM     20  C   UNL     1      -1.883  11.827  19.697  0.00  0.00    +0.000 C 
ATOM     21  O   UNL     1      -1.661  12.206  20.843  0.00  0.00    +0.000 OA
BRANCH  11  23
ATOM     22  C   UNL     1      -7.537  13.379  17.109  0.00  0.00    +0.000 C 
ATOM     23  O   UNL     1      -7.066  12.091  17.495  0.00  0.00    +0.000 OA
ENDBRANCH  11  23
ENDBRANCH  10  19
ENDBRANCH   1  10
BRANCH   4  24
ATOM     24  C   UNL     1       2.967   6.220  17.883  0.00  0.00    +0.000 C 
BRANCH  24  25
ATOM     25  C   UNL     1       4.433   5.895  17.972  0.00  0.00    +0.000 A 
ATOM     26  C   UNL     1       4.948   5.355  19.165  0.00  0.00    +0.000 A 
ATOM     27  C   UNL     1       6.325   5.219  19.352  0.00  0.00    +0.000 A 
ATOM     28  C   UNL     1       7.208   5.609  18.351  0.00  0.00    +0.000 A 
ATOM     29  C   UNL     1       6.716   6.100  17.145  0.00  0.00    +0.000 A 
ATOM     30  C   UNL     1       5.338   6.234  16.951  0.00  0.00    +0.000 A 
ATOM     31 CL   UNL     1       4.807   6.864  15.435  0.00  0.00    +0.000 Cl
ENDBRANCH  24  25
ENDBRANCH   4  24
TORSDOF 6
ENDMDL
MODEL 6
REMARK VINA RESULT:      -8.4      1.762      2.636
REMARK  Name = 
REMARK  8 active torsions:
REMARK  status: ('A' for Active; 'I' for Inactive)
REMARK    1  A    between atoms: C_1  and  O_2
REMARK    2  A    between atoms: O_2  and  C_3
REMARK    3  A    between atoms: C_11  and  C_12
REMARK    4  A    between atoms: C_12  and  C_13
REMARK    5  A    between atoms: N_16  and  C_17
REMARK    6  A    between atoms: C_17  and  C_18
REMARK    7  A    between atoms: C_26  and  C_27
REMARK    8  A    between atoms: C_27  and  C_28
REMARK                            x       y       z     vdW  Elec       q    Type
REMARK                         _______ _______ _______ _____ _____    ______ ____
ROOT
ATOM      1  C   UNL     1       1.093   9.671  19.087  0.00  0.00    +0.000 A 
ATOM      2  C   UNL     1       1.651   8.882  18.072  0.00  0.00    +0.000 A 
ATOM      3  C   UNL     1       2.159   7.622  18.362  0.00  0.00    +0.000 A 
ATOM      4  N   UNL     1       2.129   7.142  19.623  0.00  0.00    +0.000 N 
ATOM      5  C   UNL     1       1.690   7.922  20.643  0.00  0.00    +0.000 A 
ATOM      6  C   UNL     1       1.134   9.182  20.406  0.00  0.00    +0.000 A 
ENDROOT
BRANCH   6   7
ATOM      7  C   UNL     1       0.601   9.958  21.569  0.00  0.00    +0.000 C 
ATOM      8  C   UNL     1      -0.517   9.390  22.411  0.00  0.00    +0.000 C 
ATOM      9  O   UNL     1       1.101  11.044  21.840  0.00  0.00    +0.000 OA
ENDBRANCH   6   7
BRANCH   1  10
ATOM     10  C   UNL     1       0.403  10.955  18.664  0.00  0.00    +0.000 C 
BRANCH  10  19
ATOM     11  C   UNL     1      -6.095  11.940  18.940  0.00  0.00    +0.000 A 
ATOM     12  C   UNL     1      -5.779  11.120  17.857  0.00  0.00    +0.000 A 
ATOM     13  C   UNL     1      -4.445  10.822  17.575  0.00  0.00    +0.000 A 
ATOM     14  C   UNL     1      -3.427  11.332  18.385  0.00  0.00    +0.000 A 
ATOM     15  C   UNL     1      -3.724  12.187  19.455  0.00  0.00    +0.000 A 
ATOM     16  C   UNL     1      -5.068  12.485  19.720  0.00  0.00    +0.000 A 
ATOM     17  C   UNL     1      -2.650  12.742  20.351  0.00  0.00    +0.000 C 
ATOM     18  C   UNL     1      -1.242  12.604  19.762  0.00  0.00    +0.000 C 
ATOM     19  C   UNL     1      -1.013  11.191  19.219  0.00  0.00    +0.000 C 
ATOM     20  C   UNL     1      -2.022  10.960  18.098  0.00  0.00    +0.000 C 
ATOM     21  O   UNL     1      -1.718  10.481  17.010  0.00  0.00    +0.000 OA
BRANCH  11  23
ATOM     22  C   UNL     1      -7.549  12.559  20.696  0.00  0.00    +0.000 C 
ATOM     23  O   UNL     1      -7.362  12.300  19.307  0.00  0.00    +0.000 OA
ENDBRANCH  11  23
ENDBRANCH  10  19
ENDBRANCH   1  10
BRANCH   4  24
ATOM     24  C   UNL     1       2.365   5.694  19.857  0.00  0.00    +0.000 C 
BRANCH  24  25
ATOM     25  C   UNL     1       3.444   5.086  19.003  0.00  0.00    +0.000 A 
ATOM     26  C   UNL     1       4.792   5.362  19.297  0.00  0.00    +0.000 A 
ATOM     27  C   UNL     1       5.808   4.974  18.421  0.00  0.00    +0.000 A 
ATOM     28  C   UNL     1       5.498   4.298  17.245  0.00  0.00    +0.000 A 
ATOM     29  C   UNL     1       4.174   3.974  16.961  0.00  0.00    +0.000 A 
ATOM     30  C   UNL     1       3.153   4.355  17.837  0.00  0.00    +0.000 A 
ATOM     31 CL   UNL     1       1.537   3.930  17.408  0.00  0.00    +0.000 Cl
ENDBRANCH  24  25
ENDBRANCH   4  24
TORSDOF 6
ENDMDL
MODEL 7
REMARK VINA RESULT:      -8.3      3.337      4.887
REMARK  Name = 
REMARK  8 active torsions:
REMARK  status: ('A' for Active; 'I' for Inactive)
REMARK    1  A    between atoms: C_1  and  O_2
REMARK    2  A    between atoms: O_2  and  C_3
REMARK    3  A    between atoms: C_11  and  C_12
REMARK    4  A    between atoms: C_12  and  C_13
REMARK    5  A    between atoms: N_16  and  C_17
REMARK    6  A    between atoms: C_17  and  C_18
REMARK    7  A    between atoms: C_26  and  C_27
REMARK    8  A    between atoms: C_27  and  C_28
REMARK                            x       y       z     vdW  Elec       q    Type
REMARK                         _______ _______ _______ _____ _____    ______ ____
ROOT
ATOM      1  C   UNL     1       1.298   9.210  18.922  0.00  0.00    +0.000 A 
ATOM      2  C   UNL     1       1.945   8.548  17.871  0.00  0.00    +0.000 A 
ATOM      3  C   UNL     1       2.576   7.330  18.091  0.00  0.00    +0.000 A 
ATOM      4  N   UNL     1       2.580   6.770  19.319  0.00  0.00    +0.000 N 
ATOM      5  C   UNL     1       2.051   7.434  20.377  0.00  0.00    +0.000 A 
ATOM      6  C   UNL     1       1.373   8.644  20.209  0.00  0.00    +0.000 A 
ENDROOT
BRANCH   6   7
ATOM      7  C   UNL     1       0.749   9.286  21.408  0.00  0.00    +0.000 C 
ATOM      8  C   UNL     1      -0.598   8.816  21.905  0.00  0.00    +0.000 C 
ATOM      9  O   UNL     1       1.357  10.177  21.991  0.00  0.00    +0.000 OA
ENDBRANCH   6   7
BRANCH   1  10
ATOM     10  C   UNL     1       0.486  10.442  18.568  0.00  0.00    +0.000 C 
BRANCH  10  19
ATOM     11  C   UNL     1       1.392  16.937  19.086  0.00  0.00    +0.000 A 
ATOM     12  C   UNL     1       0.029  16.642  19.069  0.00  0.00    +0.000 A 
ATOM     13  C   UNL     1      -0.396  15.322  18.911  0.00  0.00    +0.000 A 
ATOM     14  C   UNL     1       0.542  14.294  18.784  0.00  0.00    +0.000 A 
ATOM     15  C   UNL     1       1.915  14.577  18.762  0.00  0.00    +0.000 A 
ATOM     16  C   UNL     1       2.327  15.909  18.912  0.00  0.00    +0.000 A 
ATOM     17  C   UNL     1       2.948  13.490  18.639  0.00  0.00    +0.000 C 
ATOM     18  C   UNL     1       2.366  12.155  18.164  0.00  0.00    +0.000 C 
ATOM     19  C   UNL     1       1.098  11.803  18.947  0.00  0.00    +0.000 C 
ATOM     20  C   UNL     1       0.069  12.895  18.670  0.00  0.00    +0.000 C 
ATOM     21  O   UNL     1      -1.100  12.659  18.380  0.00  0.00    +0.000 OA
BRANCH  11  23
ATOM     22  C   UNL     1       2.426  18.496  20.528  0.00  0.00    +0.000 C 
ATOM     23  O   UNL     1       1.921  18.190  19.231  0.00  0.00    +0.000 OA
ENDBRANCH  11  23
ENDBRANCH  10  19
ENDBRANCH   1  10
BRANCH   4  24
ATOM     24  C   UNL     1       2.959   5.340  19.466  0.00  0.00    +0.000 C 
BRANCH  24  25
ATOM     25  C   UNL     1       4.155   4.920  18.656  0.00  0.00    +0.000 A 
ATOM     26  C   UNL     1       5.429   5.408  19.005  0.00  0.00    +0.000 A 
ATOM     27  C   UNL     1       6.529   5.195  18.171  0.00  0.00    +0.000 A 
ATOM     28  C   UNL     1       6.379   4.486  16.984  0.00  0.00    +0.000 A 
ATOM     29  C   UNL     1       5.137   3.955  16.646  0.00  0.00    +0.000 A 
ATOM     30  C   UNL     1       4.034   4.160  17.480  0.00  0.00    +0.000 A 
ATOM     31 CL   UNL     1       2.527   3.483  16.985  0.00  0.00    +0.000 Cl
ENDBRANCH  24  25
ENDBRANCH   4  24
TORSDOF 6
ENDMDL
MODEL 8
REMARK VINA RESULT:      -8.2      1.462      2.051
REMARK  Name = 
REMARK  8 active torsions:
REMARK  status: ('A' for Active; 'I' for Inactive)
REMARK    1  A    between atoms: C_1  and  O_2
REMARK    2  A    between atoms: O_2  and  C_3
REMARK    3  A    between atoms: C_11  and  C_12
REMARK    4  A    between atoms: C_12  and  C_13
REMARK    5  A    between atoms: N_16  and  C_17
REMARK    6  A    between atoms: C_17  and  C_18
REMARK    7  A    between atoms: C_26  and  C_27
REMARK    8  A    between atoms: C_27  and  C_28
REMARK                            x       y       z     vdW  Elec       q    Type
REMARK                         _______ _______ _______ _____ _____    ______ ____
ROOT
ATOM      1  C   UNL     1       1.182   9.286  19.199  0.00  0.00    +0.000 A 
ATOM      2  C   UNL     1       1.713   8.324  18.330  0.00  0.00    +0.000 A 
ATOM      3  C   UNL     1       2.169   7.108  18.822  0.00  0.00    +0.000 A 
ATOM      4  N   UNL     1       2.114   6.837  20.143  0.00  0.00    +0.000 N 
ATOM      5  C   UNL     1       1.701   7.786  21.020  0.00  0.00    +0.000 A 
ATOM      6  C   UNL     1       1.197   9.013  20.580  0.00  0.00    +0.000 A 
ENDROOT
BRANCH   6   7
ATOM      7  C   UNL     1       0.688   9.984  21.597  0.00  0.00    +0.000 C 
ATOM      8  C   UNL     1      -0.505   9.630  22.455  0.00  0.00    +0.000 C 
ATOM      9  O   UNL     1       1.269  11.055  21.742  0.00  0.00    +0.000 OA
ENDBRANCH   6   7
BRANCH   1  10
ATOM     10  C   UNL     1       0.545  10.511  18.569  0.00  0.00    +0.000 C 
BRANCH  10  19
ATOM     11  C   UNL     1      -5.847  12.047  18.796  0.00  0.00    +0.000 A 
ATOM     12  C   UNL     1      -5.619  11.085  17.812  0.00  0.00    +0.000 A 
ATOM     13  C   UNL     1      -4.318  10.650  17.552  0.00  0.00    +0.000 A 
ATOM     14  C   UNL     1      -3.247  11.164  18.287  0.00  0.00    +0.000 A 
ATOM     15  C   UNL     1      -3.455  12.157  19.255  0.00  0.00    +0.000 A 
ATOM     16  C   UNL     1      -4.765  12.592  19.498  0.00  0.00    +0.000 A 
ATOM     17  C   UNL     1      -2.322  12.721  20.070  0.00  0.00    +0.000 C 
ATOM     18  C   UNL     1      -0.942  12.403  19.486  0.00  0.00    +0.000 C 
ATOM     19  C   UNL     1      -0.837  10.923  19.108  0.00  0.00    +0.000 C 
ATOM     20  C   UNL     1      -1.882  10.649  18.031  0.00  0.00    +0.000 C 
ATOM     21  O   UNL     1      -1.639  10.025  17.002  0.00  0.00    +0.000 OA
BRANCH  11  23
ATOM     22  C   UNL     1      -7.757  13.246  18.095  0.00  0.00    +0.000 C 
ATOM     23  O   UNL     1      -7.074  12.548  19.132  0.00  0.00    +0.000 OA
ENDBRANCH  11  23
ENDBRANCH  10  19
ENDBRANCH   1  10
BRANCH   4  24
ATOM     24  C   UNL     1       2.291   5.437  20.607  0.00  0.00    +0.000 C 
BRANCH  24  25
ATOM     25  C   UNL     1       2.438   4.423  19.506  0.00  0.00    +0.000 A 
ATOM     26  C   UNL     1       1.326   3.643  19.134  0.00  0.00    +0.000 A 
ATOM     27  C   UNL     1       1.469   2.568  18.255  0.00  0.00    +0.000 A 
ATOM     28  C   UNL     1       2.718   2.259  17.726  0.00  0.00    +0.000 A 
ATOM     29  C   UNL     1       3.820   3.048  18.044  0.00  0.00    +0.000 A 
ATOM     30  C   UNL     1       3.682   4.129  18.920  0.00  0.00    +0.000 A 
ATOM     31 CL   UNL     1       5.096   5.049  19.276  0.00  0.00    +0.000 Cl
ENDBRANCH  24  25
ENDBRANCH   4  24
TORSDOF 6
ENDMDL
MODEL 9
REMARK VINA RESULT:      -8.2      3.539      8.843
REMARK  Name = 
REMARK  8 active torsions:
REMARK  status: ('A' for Active; 'I' for Inactive)
REMARK    1  A    between atoms: C_1  and  O_2
REMARK    2  A    between atoms: O_2  and  C_3
REMARK    3  A    between atoms: C_11  and  C_12
REMARK    4  A    between atoms: C_12  and  C_13
REMARK    5  A    between atoms: N_16  and  C_17
REMARK    6  A    between atoms: C_17  and  C_18
REMARK    7  A    between atoms: C_26  and  C_27
REMARK    8  A    between atoms: C_27  and  C_28
REMARK                            x       y       z     vdW  Elec       q    Type
REMARK                         _______ _______ _______ _____ _____    ______ ____
ROOT
ATOM      1  C   UNL     1      -0.903  11.360  19.810  0.00  0.00    +0.000 A 
ATOM      2  C   UNL     1      -1.633  11.303  18.615  0.00  0.00    +0.000 A 
ATOM      3  C   UNL     1      -2.940  11.771  18.567  0.00  0.00    +0.000 A 
ATOM      4  N   UNL     1      -3.528  12.281  19.669  0.00  0.00    +0.000 N 
ATOM      5  C   UNL     1      -2.885  12.255  20.863  0.00  0.00    +0.000 A 
ATOM      6  C   UNL     1      -1.557  11.831  20.964  0.00  0.00    +0.000 A 
ENDROOT
BRANCH   6   7
ATOM      7  C   UNL     1      -0.885  11.899  22.299  0.00  0.00    +0.000 C 
ATOM      8  C   UNL     1      -0.982  10.736  23.258  0.00  0.00    +0.000 C 
ATOM      9  O   UNL     1      -0.235  12.898  22.588  0.00  0.00    +0.000 OA
ENDBRANCH   6   7
BRANCH   1  10
ATOM     10  C   UNL     1       0.568  10.995  19.741  0.00  0.00    +0.000 C 
BRANCH  10  19
ATOM     11  C   UNL     1       2.870   4.876  19.015  0.00  0.00    +0.000 A 
ATOM     12  C   UNL     1       2.445   5.077  20.328  0.00  0.00    +0.000 A 
ATOM     13  C   UNL     1       1.967   6.327  20.721  0.00  0.00    +0.000 A 
ATOM     14  C   UNL     1       1.900   7.374  19.798  0.00  0.00    +0.000 A 
ATOM     15  C   UNL     1       2.356   7.201  18.485  0.00  0.00    +0.000 A 
ATOM     16  C   UNL     1       2.843   5.941  18.106  0.00  0.00    +0.000 A 
ATOM     17  C   UNL     1       2.286   8.306  17.466  0.00  0.00    +0.000 C 
ATOM     18  C   UNL     1       2.046   9.685  18.089  0.00  0.00    +0.000 C 
ATOM     19  C   UNL     1       0.910   9.632  19.115  0.00  0.00    +0.000 C 
ATOM     20  C   UNL     1       1.340   8.678  20.225  0.00  0.00    +0.000 C 
ATOM     21  O   UNL     1       1.227   8.942  21.419  0.00  0.00    +0.000 OA
BRANCH  11  23
ATOM     22  C   UNL     1       4.012   3.787  17.257  0.00  0.00    +0.000 C 
ATOM     23  O   UNL     1       3.358   3.698  18.520  0.00  0.00    +0.000 OA
ENDBRANCH  11  23
ENDBRANCH  10  19
ENDBRANCH   1  10
BRANCH   4  24
ATOM     24  C   UNL     1      -4.781  13.067  19.528  0.00  0.00    +0.000 C 
BRANCH  24  25
ATOM     25  C   UNL     1      -5.961  12.513  20.279  0.00  0.00    +0.000 A 
ATOM     26  C   UNL     1      -6.244  12.997  21.570  0.00  0.00    +0.000 A 
ATOM     27  C   UNL     1      -7.208  12.379  22.370  0.00  0.00    +0.000 A 
ATOM     28  C   UNL     1      -7.909  11.276  21.893  0.00  0.00    +0.000 A 
ATOM     29  C   UNL     1      -7.676  10.812  20.601  0.00  0.00    +0.000 A 
ATOM     30  C   UNL     1      -6.717  11.431  19.794  0.00  0.00    +0.000 A 
ATOM     31 CL   UNL     1      -6.476  10.789  18.211  0.00  0.00    +0.000 Cl
ENDBRANCH  24  25
ENDBRANCH   4  24
TORSDOF 6
ENDMDL
