MODEL 1
REMARK VINA RESULT:      -7.7      0.000      0.000
REMARK  Name = 
REMARK  3 active torsions:
REMARK  status: ('A' for Active; 'I' for Inactive)
REMARK    1  A    between atoms: S_2  and  C_4
REMARK    2  A    between atoms: S_2  and  C_13
REMARK    3  A    between atoms: C_5  and  C_6
REMARK                            x       y       z     vdW  Elec       q    Type
REMARK                         _______ _______ _______ _____ _____    ______ ____
ROOT
ATOM      1  O   UNL     1       6.823   6.574  16.340  0.00  0.00    +0.000 OA
ATOM      2  S   UNL     1       6.775   5.131  16.185  0.00  0.00    +0.000 S 
ATOM      3  O   UNL     1       7.789   4.297  16.805  0.00  0.00    +0.000 OA
ENDROOT
BRANCH   2   4
ATOM      4  C   UNL     1       6.844   4.812  14.432  0.00  0.00    +0.000 A 
ATOM      5  C   UNL     1       7.768   5.506  13.641  0.00  0.00    +0.000 A 
ATOM      6  C   UNL     1       7.896   5.189  12.286  0.00  0.00    +0.000 A 
ATOM      7  C   UNL     1       7.112   4.176  11.733  0.00  0.00    +0.000 A 
ATOM      8  C   UNL     1       6.205   3.491  12.536  0.00  0.00    +0.000 A 
ATOM      9  F   UNL     1       5.468   2.509  12.000  0.00  0.00    +0.000 F 
ATOM     10  C   UNL     1       6.060   3.793  13.885  0.00  0.00    +0.000 A 
ENDBRANCH   2   4
BRANCH   2  11
ATOM     11  C   UNL     1       5.214   4.538  16.641  0.00  0.00    +0.000 C 
ATOM     12  C   UNL     1       4.926   4.376  17.944  0.00  0.00    +0.000 C 
BRANCH  12  13
ATOM     13  C   UNL     1       3.649   3.820  18.430  0.00  0.00    +0.000 A 
ATOM     14  N   UNL     1       3.675   2.485  18.699  0.00  0.00    +0.000 NA
ATOM     15  C   UNL     1       2.541   1.908  19.156  0.00  0.00    +0.000 A 
ATOM     16  C   UNL     1       1.360   2.595  19.367  0.00  0.00    +0.000 A 
ATOM     17  C   UNL     1       1.338   3.957  19.089  0.00  0.00    +0.000 A 
ATOM     18  C   UNL     1       2.490   4.586  18.610  0.00  0.00    +0.000 A 
ATOM     19 CL   UNL     1       2.392   6.273  18.257  0.00  0.00    +0.000 Cl
ENDBRANCH  12  13
ENDBRANCH   2  11
TORSDOF 3
ENDMDL
MODEL 2
REMARK VINA RESULT:      -7.6      3.317      4.137
REMARK  Name = 
REMARK  3 active torsions:
REMARK  status: ('A' for Active; 'I' for Inactive)
REMARK    1  A    between atoms: S_2  and  C_4
REMARK    2  A    between atoms: S_2  and  C_13
REMARK    3  A    between atoms: C_5  and  C_6
REMARK                            x       y       z     vdW  Elec       q    Type
REMARK                         _______ _______ _______ _____ _____    ______ ____
ROOT
ATOM      1  O   UNL     1       6.691   4.071  15.102  0.00  0.00    +0.000 OA
ATOM      2  S   UNL     1       5.792   5.033  15.712  0.00  0.00    +0.000 S 
ATOM      3  O   UNL     1       5.211   6.098  14.913  0.00  0.00    +0.000 OA
ENDROOT
BRANCH   2   4
ATOM      4  C   UNL     1       6.709   5.815  17.025  0.00  0.00    +0.000 A 
ATOM      5  C   UNL     1       7.217   5.034  18.071  0.00  0.00    +0.000 A 
ATOM      6  C   UNL     1       8.020   5.625  19.050  0.00  0.00    +0.000 A 
ATOM      7  C   UNL     1       8.320   6.985  18.973  0.00  0.00    +0.000 A 
ATOM      8  C   UNL     1       7.814   7.746  17.923  0.00  0.00    +0.000 A 
ATOM      9  F   UNL     1       8.120   9.047  17.849  0.00  0.00    +0.000 F 
ATOM     10  C   UNL     1       7.011   7.177  16.942  0.00  0.00    +0.000 A 
ENDBRANCH   2   4
BRANCH   2  11
ATOM     11  C   UNL     1       4.518   4.209  16.546  0.00  0.00    +0.000 C 
ATOM     12  C   UNL     1       3.820   4.862  17.492  0.00  0.00    +0.000 C 
BRANCH  12  13
ATOM     13  C   UNL     1       2.760   4.229  18.300  0.00  0.00    +0.000 A 
ATOM     14  N   UNL     1       2.476   2.942  17.958  0.00  0.00    +0.000 NA
ATOM     15  C   UNL     1       1.519   2.296  18.661  0.00  0.00    +0.000 A 
ATOM     16  C   UNL     1       0.817   2.866  19.707  0.00  0.00    +0.000 A 
ATOM     17  C   UNL     1       1.110   4.181  20.052  0.00  0.00    +0.000 A 
ATOM     18  C   UNL     1       2.089   4.881  19.342  0.00  0.00    +0.000 A 
ATOM     19 CL   UNL     1       2.390   6.519  19.799  0.00  0.00    +0.000 Cl
ENDBRANCH  12  13
ENDBRANCH   2  11
TORSDOF 3
ENDMDL
MODEL 3
REMARK VINA RESULT:      -7.5      1.361      1.562
REMARK  Name = 
REMARK  3 active torsions:
REMARK  status: ('A' for Active; 'I' for Inactive)
REMARK    1  A    between atoms: S_2  and  C_4
REMARK    2  A    between atoms: S_2  and  C_13
REMARK    3  A    between atoms: C_5  and  C_6
REMARK                            x       y       z     vdW  Elec       q    Type
REMARK                         _______ _______ _______ _____ _____    ______ ____
ROOT
ATOM      1  O   UNL     1       6.491   6.426  16.443  0.00  0.00    +0.000 OA
ATOM      2  S   UNL     1       6.674   4.998  16.254  0.00  0.00    +0.000 S 
ATOM      3  O   UNL     1       7.815   4.324  16.845  0.00  0.00    +0.000 OA
ENDROOT
BRANCH   2   4
ATOM      4  C   UNL     1       6.772   4.733  14.493  0.00  0.00    +0.000 A 
ATOM      5  C   UNL     1       7.707   5.454  13.739  0.00  0.00    +0.000 A 
ATOM      6  C   UNL     1       7.858   5.180  12.377  0.00  0.00    +0.000 A 
ATOM      7  C   UNL     1       7.086   4.183  11.781  0.00  0.00    +0.000 A 
ATOM      8  C   UNL     1       6.168   3.470  12.546  0.00  0.00    +0.000 A 
ATOM      9  F   UNL     1       5.443   2.504  11.968  0.00  0.00    +0.000 F 
ATOM     10  C   UNL     1       6.001   3.731  13.901  0.00  0.00    +0.000 A 
ENDBRANCH   2   4
BRANCH   2  11
ATOM     11  C   UNL     1       5.234   4.151  16.707  0.00  0.00    +0.000 C 
ATOM     12  C   UNL     1       4.533   4.569  17.777  0.00  0.00    +0.000 C 
BRANCH  12  13
ATOM     13  C   UNL     1       3.331   3.878  18.279  0.00  0.00    +0.000 A 
ATOM     14  N   UNL     1       2.162   4.283  17.709  0.00  0.00    +0.000 NA
ATOM     15  C   UNL     1       1.018   3.688  18.115  0.00  0.00    +0.000 A 
ATOM     16  C   UNL     1       0.969   2.692  19.073  0.00  0.00    +0.000 A 
ATOM     17  C   UNL     1       2.164   2.283  19.654  0.00  0.00    +0.000 A 
ATOM     18  C   UNL     1       3.365   2.881  19.262  0.00  0.00    +0.000 A 
ATOM     19 CL   UNL     1       4.813   2.350  20.038  0.00  0.00    +0.000 Cl
ENDBRANCH  12  13
ENDBRANCH   2  11
TORSDOF 3
ENDMDL
MODEL 4
REMARK VINA RESULT:      -7.4      1.215      1.644
REMARK  Name = 
REMARK  3 active torsions:
REMARK  status: ('A' for Active; 'I' for Inactive)
REMARK    1  A    between atoms: S_2  and  C_4
REMARK    2  A    between atoms: S_2  and  C_13
REMARK    3  A    between atoms: C_5  and  C_6
REMARK                            x       y       z     vdW  Elec       q    Type
REMARK                         _______ _______ _______ _____ _____    ______ ____
ROOT
ATOM      1  O   UNL     1       6.512   6.467  16.450  0.00  0.00    +0.000 OA
ATOM      2  S   UNL     1       6.777   5.042  16.373  0.00  0.00    +0.000 S 
ATOM      3  O   UNL     1       7.981   4.491  16.970  0.00  0.00    +0.000 OA
ENDROOT
BRANCH   2   4
ATOM      4  C   UNL     1       6.827   4.633  14.639  0.00  0.00    +0.000 A 
ATOM      5  C   UNL     1       6.027   3.590  14.153  0.00  0.00    +0.000 A 
ATOM      6  C   UNL     1       5.987   3.330  12.781  0.00  0.00    +0.000 A 
ATOM      7  C   UNL     1       6.732   4.117  11.903  0.00  0.00    +0.000 A 
ATOM      8  C   UNL     1       7.515   5.154  12.401  0.00  0.00    +0.000 A 
ATOM      9  F   UNL     1       8.215   5.914  11.549  0.00  0.00    +0.000 F 
ATOM     10  C   UNL     1       7.572   5.427  13.763  0.00  0.00    +0.000 A 
ENDBRANCH   2   4
BRANCH   2  11
ATOM     11  C   UNL     1       5.412   4.153  16.957  0.00  0.00    +0.000 C 
ATOM     12  C   UNL     1       4.364   4.819  17.474  0.00  0.00    +0.000 C 
BRANCH  12  13
ATOM     13  C   UNL     1       3.183   4.151  18.053  0.00  0.00    +0.000 A 
ATOM     14  N   UNL     1       2.950   2.896  17.579  0.00  0.00    +0.000 NA
ATOM     15  C   UNL     1       1.887   2.220  18.070  0.00  0.00    +0.000 A 
ATOM     16  C   UNL     1       1.028   2.728  19.026  0.00  0.00    +0.000 A 
ATOM     17  C   UNL     1       1.270   4.011  19.507  0.00  0.00    +0.000 A 
ATOM     18  C   UNL     1       2.355   4.741  19.017  0.00  0.00    +0.000 A 
ATOM     19 CL   UNL     1       2.588   6.337  19.631  0.00  0.00    +0.000 Cl
ENDBRANCH  12  13
ENDBRANCH   2  11
TORSDOF 3
ENDMDL
MODEL 5
REMARK VINA RESULT:      -7.4      1.619      2.057
REMARK  Name = 
REMARK  3 active torsions:
REMARK  status: ('A' for Active; 'I' for Inactive)
REMARK    1  A    between atoms: S_2  and  C_4
REMARK    2  A    between atoms: S_2  and  C_13
REMARK    3  A    between atoms: C_5  and  C_6
REMARK                            x       y       z     vdW  Elec       q    Type
REMARK                         _______ _______ _______ _____ _____    ______ ____
ROOT
ATOM      1  O   UNL     1       7.232   6.377  17.601  0.00  0.00    +0.000 OA
ATOM      2  S   UNL     1       7.212   4.930  17.489  0.00  0.00    +0.000 S 
ATOM      3  O   UNL     1       8.379   4.152  17.867  0.00  0.00    +0.000 OA
ENDROOT
BRANCH   2   4
ATOM      4  C   UNL     1       6.879   4.563  15.777  0.00  0.00    +0.000 A 
ATOM      5  C   UNL     1       5.766   3.780  15.443  0.00  0.00    +0.000 A 
ATOM      6  C   UNL     1       5.444   3.572  14.100  0.00  0.00    +0.000 A 
ATOM      7  C   UNL     1       6.224   4.154  13.100  0.00  0.00    +0.000 A 
ATOM      8  C   UNL     1       7.321   4.936  13.449  0.00  0.00    +0.000 A 
ATOM      9  F   UNL     1       8.055   5.503  12.483  0.00  0.00    +0.000 F 
ATOM     10  C   UNL     1       7.660   5.152  14.779  0.00  0.00    +0.000 A 
ENDBRANCH   2   4
BRANCH   2  11
ATOM     11  C   UNL     1       5.830   4.291  18.313  0.00  0.00    +0.000 C 
ATOM     12  C   UNL     1       4.872   5.132  18.743  0.00  0.00    +0.000 C 
BRANCH  12  13
ATOM     13  C   UNL     1       3.690   4.693  19.507  0.00  0.00    +0.000 A 
ATOM     14  N   UNL     1       3.725   3.393  19.912  0.00  0.00    +0.000 NA
ATOM     15  C   UNL     1       2.677   2.922  20.625  0.00  0.00    +0.000 A 
ATOM     16  C   UNL     1       1.576   3.685  20.967  0.00  0.00    +0.000 A 
ATOM     17  C   UNL     1       1.544   5.012  20.550  0.00  0.00    +0.000 A 
ATOM     18  C   UNL     1       2.607   5.530  19.806  0.00  0.00    +0.000 A 
ATOM     19 CL   UNL     1       2.498   7.174  19.294  0.00  0.00    +0.000 Cl
ENDBRANCH  12  13
ENDBRANCH   2  11
TORSDOF 3
ENDMDL
MODEL 6
REMARK VINA RESULT:      -7.3      1.722      2.271
REMARK  Name = 
REMARK  3 active torsions:
REMARK  status: ('A' for Active; 'I' for Inactive)
REMARK    1  A    between atoms: S_2  and  C_4
REMARK    2  A    between atoms: S_2  and  C_13
REMARK    3  A    between atoms: C_5  and  C_6
REMARK                            x       y       z     vdW  Elec       q    Type
REMARK                         _______ _______ _______ _____ _____    ______ ____
ROOT
ATOM      1  O   UNL     1       6.259   6.464  17.926  0.00  0.00    +0.000 OA
ATOM      2  S   UNL     1       6.564   5.047  17.837  0.00  0.00    +0.000 S 
ATOM      3  O   UNL     1       7.824   4.539  18.349  0.00  0.00    +0.000 OA
ENDROOT
BRANCH   2   4
ATOM      4  C   UNL     1       6.502   4.627  16.106  0.00  0.00    +0.000 A 
ATOM      5  C   UNL     1       5.442   3.848  15.623  0.00  0.00    +0.000 A 
ATOM      6  C   UNL     1       5.334   3.599  14.253  0.00  0.00    +0.000 A 
ATOM      7  C   UNL     1       6.274   4.136  13.373  0.00  0.00    +0.000 A 
ATOM      8  C   UNL     1       7.316   4.915  13.868  0.00  0.00    +0.000 A 
ATOM      9  F   UNL     1       8.205   5.440  13.015  0.00  0.00    +0.000 F 
ATOM     10  C   UNL     1       7.443   5.171  15.229  0.00  0.00    +0.000 A 
ENDBRANCH   2   4
BRANCH   2  11
ATOM     11  C   UNL     1       5.273   4.120  18.523  0.00  0.00    +0.000 C 
ATOM     12  C   UNL     1       4.200   4.756  19.026  0.00  0.00    +0.000 C 
BRANCH  12  13
ATOM     13  C   UNL     1       3.079   4.059  19.685  0.00  0.00    +0.000 A 
ATOM     14  N   UNL     1       3.368   3.555  20.917  0.00  0.00    +0.000 NA
ATOM     15  C   UNL     1       2.385   2.910  21.584  0.00  0.00    +0.000 A 
ATOM     16  C   UNL     1       1.107   2.735  21.089  0.00  0.00    +0.000 A 
ATOM     17  C   UNL     1       0.817   3.250  19.830  0.00  0.00    +0.000 A 
ATOM     18  C   UNL     1       1.810   3.918  19.109  0.00  0.00    +0.000 A 
ATOM     19 CL   UNL     1       1.398   4.511  17.542  0.00  0.00    +0.000 Cl
ENDBRANCH  12  13
ENDBRANCH   2  11
TORSDOF 3
ENDMDL
MODEL 7
REMARK VINA RESULT:      -7.3      1.411      1.636
REMARK  Name = 
REMARK  3 active torsions:
REMARK  status: ('A' for Active; 'I' for Inactive)
REMARK    1  A    between atoms: S_2  and  C_4
REMARK    2  A    between atoms: S_2  and  C_13
REMARK    3  A    between atoms: C_5  and  C_6
REMARK                            x       y       z     vdW  Elec       q    Type
REMARK                         _______ _______ _______ _____ _____    ______ ____
ROOT
ATOM      1  O   UNL     1       7.113   6.659  16.461  0.00  0.00    +0.000 OA
ATOM      2  S   UNL     1       6.886   5.229  16.357  0.00  0.00    +0.000 S 
ATOM      3  O   UNL     1       7.829   4.295  16.946  0.00  0.00    +0.000 OA
ENDROOT
BRANCH   2   4
ATOM      4  C   UNL     1       6.812   4.858  14.615  0.00  0.00    +0.000 A 
ATOM      5  C   UNL     1       7.780   5.393  13.754  0.00  0.00    +0.000 A 
ATOM      6  C   UNL     1       7.786   5.027  12.406  0.00  0.00    +0.000 A 
ATOM      7  C   UNL     1       6.838   4.122  11.928  0.00  0.00    +0.000 A 
ATOM      8  C   UNL     1       5.889   3.593  12.798  0.00  0.00    +0.000 A 
ATOM      9  F   UNL     1       4.992   2.714  12.333  0.00  0.00    +0.000 F 
ATOM     10  C   UNL     1       5.864   3.948  14.141  0.00  0.00    +0.000 A 
ENDBRANCH   2   4
BRANCH   2  11
ATOM     11  C   UNL     1       5.295   4.839  16.918  0.00  0.00    +0.000 C 
ATOM     12  C   UNL     1       5.022   4.920  18.233  0.00  0.00    +0.000 C 
BRANCH  12  13
ATOM     13  C   UNL     1       3.719   4.550  18.815  0.00  0.00    +0.000 A 
ATOM     14  N   UNL     1       3.146   5.515  19.586  0.00  0.00    +0.000 NA
ATOM     15  C   UNL     1       1.945   5.249  20.147  0.00  0.00    +0.000 A 
ATOM     16  C   UNL     1       1.267   4.056  19.981  0.00  0.00    +0.000 A 
ATOM     17  C   UNL     1       1.857   3.073  19.194  0.00  0.00    +0.000 A 
ATOM     18  C   UNL     1       3.100   3.312  18.603  0.00  0.00    +0.000 A 
ATOM     19 CL   UNL     1       3.795   2.044  17.660  0.00  0.00    +0.000 Cl
ENDBRANCH  12  13
ENDBRANCH   2  11
TORSDOF 3
ENDMDL
MODEL 8
REMARK VINA RESULT:      -7.2      2.011      2.635
REMARK  Name = 
REMARK  3 active torsions:
REMARK  status: ('A' for Active; 'I' for Inactive)
REMARK    1  A    between atoms: S_2  and  C_4
REMARK    2  A    between atoms: S_2  and  C_13
REMARK    3  A    between atoms: C_5  and  C_6
REMARK                            x       y       z     vdW  Elec       q    Type
REMARK                         _______ _______ _______ _____ _____    ______ ____
ROOT
ATOM      1  O   UNL     1       7.509   6.851  17.811  0.00  0.00    +0.000 OA
ATOM      2  S   UNL     1       7.069   5.472  17.921  0.00  0.00    +0.000 S 
ATOM      3  O   UNL     1       7.916   4.486  18.568  0.00  0.00    +0.000 OA
ENDROOT
BRANCH   2   4
ATOM      4  C   UNL     1       6.788   4.900  16.256  0.00  0.00    +0.000 A 
ATOM      5  C   UNL     1       5.673   4.097  15.983  0.00  0.00    +0.000 A 
ATOM      6  C   UNL     1       5.393   3.728  14.665  0.00  0.00    +0.000 A 
ATOM      7  C   UNL     1       6.216   4.171  13.629  0.00  0.00    +0.000 A 
ATOM      8  C   UNL     1       7.315   4.975  13.918  0.00  0.00    +0.000 A 
ATOM      9  F   UNL     1       8.091   5.408  12.916  0.00  0.00    +0.000 F 
ATOM     10  C   UNL     1       7.613   5.350  15.223  0.00  0.00    +0.000 A 
ENDBRANCH   2   4
BRANCH   2  11
ATOM     11  C   UNL     1       5.496   5.408  18.640  0.00  0.00    +0.000 C 
ATOM     12  C   UNL     1       4.935   4.211  18.890  0.00  0.00    +0.000 C 
BRANCH  12  13
ATOM     13  C   UNL     1       3.576   4.052  19.442  0.00  0.00    +0.000 A 
ATOM     14  N   UNL     1       3.117   5.125  20.142  0.00  0.00    +0.000 NA
ATOM     15  C   UNL     1       1.875   5.053  20.671  0.00  0.00    +0.000 A 
ATOM     16  C   UNL     1       1.046   3.954  20.539  0.00  0.00    +0.000 A 
ATOM     17  C   UNL     1       1.520   2.860  19.825  0.00  0.00    +0.000 A 
ATOM     18  C   UNL     1       2.802   2.897  19.269  0.00  0.00    +0.000 A 
ATOM     19 CL   UNL     1       3.345   1.498  18.416  0.00  0.00    +0.000 Cl
ENDBRANCH  12  13
ENDBRANCH   2  11
TORSDOF 3
ENDMDL
MODEL 9
REMARK VINA RESULT:      -7.1      3.332      4.016
REMARK  Name = 
REMARK  3 active torsions:
REMARK  status: ('A' for Active; 'I' for Inactive)
REMARK    1  A    between atoms: S_2  and  C_4
REMARK    2  A    between atoms: S_2  and  C_13
REMARK    3  A    between atoms: C_5  and  C_6
REMARK                            x       y       z     vdW  Elec       q    Type
REMARK                         _______ _______ _______ _____ _____    ______ ____
ROOT
ATOM      1  O   UNL     1       6.368   3.610  15.626  0.00  0.00    +0.000 OA
ATOM      2  S   UNL     1       5.755   4.912  15.817  0.00  0.00    +0.000 S 
ATOM      3  O   UNL     1       5.524   5.784  14.679  0.00  0.00    +0.000 OA
ENDROOT
BRANCH   2   4
ATOM      4  C   UNL     1       6.811   5.803  16.945  0.00  0.00    +0.000 A 
ATOM      5  C   UNL     1       6.999   7.180  16.770  0.00  0.00    +0.000 A 
ATOM      6  C   UNL     1       7.744   7.901  17.707  0.00  0.00    +0.000 A 
ATOM      7  C   UNL     1       8.284   7.249  18.815  0.00  0.00    +0.000 A 
ATOM      8  C   UNL     1       8.080   5.882  18.978  0.00  0.00    +0.000 A 
ATOM      9  F   UNL     1       8.589   5.267  20.053  0.00  0.00    +0.000 F 
ATOM     10  C   UNL     1       7.345   5.146  18.055  0.00  0.00    +0.000 A 
ENDBRANCH   2   4
BRANCH   2  11
ATOM     11  C   UNL     1       4.274   4.747  16.698  0.00  0.00    +0.000 C 
ATOM     12  C   UNL     1       4.204   3.860  17.708  0.00  0.00    +0.000 C 
BRANCH  12  13
ATOM     13  C   UNL     1       2.972   3.603  18.476  0.00  0.00    +0.000 A 
ATOM     14  N   UNL     1       2.357   2.422  18.188  0.00  0.00    +0.000 NA
ATOM     15  C   UNL     1       1.225   2.115  18.860  0.00  0.00    +0.000 A 
ATOM     16  C   UNL     1       0.659   2.929  19.823  0.00  0.00    +0.000 A 
ATOM     17  C   UNL     1       1.289   4.135  20.114  0.00  0.00    +0.000 A 
ATOM     18  C   UNL     1       2.458   4.487  19.434  0.00  0.00    +0.000 A 
ATOM     19 CL   UNL     1       3.180   6.007  19.818  0.00  0.00    +0.000 Cl
ENDBRANCH  12  13
ENDBRANCH   2  11
TORSDOF 3
ENDMDL
