MODEL 1
REMARK VINA RESULT:      -7.9      0.000      0.000
REMARK  Name = 
REMARK  9 active torsions:
REMARK  status: ('A' for Active; 'I' for Inactive)
REMARK    1  A    between atoms: C_1  and  C_2
REMARK    2  A    between atoms: C_2  and  O_3
REMARK    3  A    between atoms: O_3  and  C_4
REMARK    4  A    between atoms: C_4  and  C_6
REMARK    5  A    between atoms: C_6  and  C_7
REMARK    6  A    between atoms: C_6  and  S_8
REMARK    7  A    between atoms: S_8  and  C_9
REMARK    8  A    between atoms: C_20  and  O_21
REMARK    9  A    between atoms: N_22  and  C_23
REMARK                            x       y       z     vdW  Elec       q    Type
REMARK                         _______ _______ _______ _____ _____    ______ ____
ROOT
ATOM      1  C   UNL     1       5.003   3.766  17.509  0.00  0.00    +0.000 A 
ATOM      2  N   UNL     1       5.069   3.404  16.255  0.00  0.00    +0.000 NA
ATOM      3  C   UNL     1       5.977   4.075  15.470  0.00  0.00    +0.000 A 
ATOM      4  C   UNL     1       6.228   3.983  14.167  0.00  0.00    +0.000 A 
ATOM      5  C   UNL     1       5.750   3.227  13.055  0.00  0.00    +0.000 A 
ATOM      6  C   UNL     1       6.242   3.493  11.833  0.00  0.00    +0.000 A 
ATOM      7  C   UNL     1       7.274   4.497  11.627  0.00  0.00    +0.000 A 
ATOM      8  C   UNL     1       7.795   5.227  12.630  0.00  0.00    +0.000 A 
ATOM      9  C   UNL     1       7.282   5.016  14.000  0.00  0.00    +0.000 A 
ATOM     10  N   UNL     1       7.647   5.649  15.077  0.00  0.00    +0.000 NA
ATOM     11  C   UNL     1       6.834   5.095  16.032  0.00  0.00    +0.000 A 
ATOM     12  C   UNL     1       6.734   5.417  17.326  0.00  0.00    +0.000 A 
ATOM     13  N   UNL     1       5.782   4.775  18.118  0.00  0.00    +0.000 N 
ATOM     14  C   UNL     1       5.642   5.144  19.525  0.00  0.00    +0.000 C 
ENDROOT
BRANCH  12  15
ATOM     15  O   UNL     1       7.547   6.390  17.868  0.00  0.00    +0.000 OA
ATOM     16  H   UNL     1       7.895   6.879  17.092  0.00  0.00    +0.000 HD
ENDBRANCH  12  15
BRANCH   1  17
ATOM     17  S   UNL     1       3.792   2.943  18.508  0.00  0.00    +0.000 S 
BRANCH  17  18
ATOM     18  C   UNL     1       2.200   3.660  17.988  0.00  0.00    +0.000 C 
ATOM     19  C   UNL     1       2.228   5.183  18.028  0.00  0.00    +0.000 C 
BRANCH  18  20
ATOM     20  C   UNL     1       0.993   3.082  18.712  0.00  0.00    +0.000 C 
ATOM     21  O   UNL     1       0.352   2.106  18.333  0.00  0.00    +0.000 OA
BRANCH  20  22
ATOM     22  O   UNL     1       0.789   3.720  19.903  0.00  0.00    +0.000 OA
BRANCH  22  24
ATOM     23  C   UNL     1       2.290   3.590  21.784  0.00  0.00    +0.000 C 
ATOM     24  C   UNL     1       1.108   2.960  21.077  0.00  0.00    +0.000 C 
ENDBRANCH  22  24
ENDBRANCH  20  22
ENDBRANCH  18  20
ENDBRANCH  17  18
ENDBRANCH   1  17
TORSDOF 6
ENDMDL
MODEL 2
REMARK VINA RESULT:      -7.9      2.975      7.006
REMARK  Name = 
REMARK  9 active torsions:
REMARK  status: ('A' for Active; 'I' for Inactive)
REMARK    1  A    between atoms: C_1  and  C_2
REMARK    2  A    between atoms: C_2  and  O_3
REMARK    3  A    between atoms: O_3  and  C_4
REMARK    4  A    between atoms: C_4  and  C_6
REMARK    5  A    between atoms: C_6  and  C_7
REMARK    6  A    between atoms: C_6  and  S_8
REMARK    7  A    between atoms: S_8  and  C_9
REMARK    8  A    between atoms: C_20  and  O_21
REMARK    9  A    between atoms: N_22  and  C_23
REMARK                            x       y       z     vdW  Elec       q    Type
REMARK                         _______ _______ _______ _____ _____    ______ ____
ROOT
ATOM      1  C   UNL     1       3.642   4.608  18.215  0.00  0.00    +0.000 A 
ATOM      2  N   UNL     1       3.385   5.848  17.890  0.00  0.00    +0.000 NA
ATOM      3  C   UNL     1       2.690   6.593  18.813  0.00  0.00    +0.000 A 
ATOM      4  C   UNL     1       2.230   7.840  18.749  0.00  0.00    +0.000 A 
ATOM      5  C   UNL     1       2.230   8.913  17.809  0.00  0.00    +0.000 A 
ATOM      6  C   UNL     1       1.568  10.041  18.116  0.00  0.00    +0.000 A 
ATOM      7  C   UNL     1       0.891  10.206  19.393  0.00  0.00    +0.000 A 
ATOM      8  C   UNL     1       0.874   9.251  20.341  0.00  0.00    +0.000 A 
ATOM      9  C   UNL     1       1.553   7.967  20.065  0.00  0.00    +0.000 A 
ATOM     10  N   UNL     1       1.611   6.930  20.848  0.00  0.00    +0.000 NA
ATOM     11  C   UNL     1       2.310   6.028  20.089  0.00  0.00    +0.000 A 
ATOM     12  C   UNL     1       2.611   4.758  20.376  0.00  0.00    +0.000 A 
ATOM     13  N   UNL     1       3.273   3.980  19.425  0.00  0.00    +0.000 N 
ATOM     14  C   UNL     1       3.575   2.581  19.717  0.00  0.00    +0.000 C 
ENDROOT
BRANCH  12  15
ATOM     15  O   UNL     1       2.250   4.212  21.590  0.00  0.00    +0.000 OA
ATOM     16  H   UNL     1       1.493   4.758  21.888  0.00  0.00    +0.000 HD
ENDBRANCH  12  15
BRANCH   1  17
ATOM     17  S   UNL     1       4.486   3.630  17.001  0.00  0.00    +0.000 S 
BRANCH  17  18
ATOM     18  C   UNL     1       5.819   4.709  16.385  0.00  0.00    +0.000 C 
ATOM     19  C   UNL     1       6.171   4.398  14.935  0.00  0.00    +0.000 C 
BRANCH  18  20
ATOM     20  C   UNL     1       7.046   4.755  17.283  0.00  0.00    +0.000 C 
ATOM     21  O   UNL     1       8.111   4.196  17.041  0.00  0.00    +0.000 OA
BRANCH  20  22
ATOM     22  O   UNL     1       6.843   5.600  18.339  0.00  0.00    +0.000 OA
BRANCH  22  24
ATOM     23  C   UNL     1       7.688   7.730  17.595  0.00  0.00    +0.000 C 
ATOM     24  C   UNL     1       7.870   6.576  18.558  0.00  0.00    +0.000 C 
ENDBRANCH  22  24
ENDBRANCH  20  22
ENDBRANCH  18  20
ENDBRANCH  17  18
ENDBRANCH   1  17
TORSDOF 6
ENDMDL
MODEL 3
REMARK VINA RESULT:      -7.4      4.725      8.056
REMARK  Name = 
REMARK  9 active torsions:
REMARK  status: ('A' for Active; 'I' for Inactive)
REMARK    1  A    between atoms: C_1  and  C_2
REMARK    2  A    between atoms: C_2  and  O_3
REMARK    3  A    between atoms: O_3  and  C_4
REMARK    4  A    between atoms: C_4  and  C_6
REMARK    5  A    between atoms: C_6  and  C_7
REMARK    6  A    between atoms: C_6  and  S_8
REMARK    7  A    between atoms: S_8  and  C_9
REMARK    8  A    between atoms: C_20  and  O_21
REMARK    9  A    between atoms: N_22  and  C_23
REMARK                            x       y       z     vdW  Elec       q    Type
REMARK                         _______ _______ _______ _____ _____    ______ ____
ROOT
ATOM      1  C   UNL     1       2.236   6.597  19.926  0.00  0.00    +0.000 A 
ATOM      2  N   UNL     1       1.502   7.120  20.873  0.00  0.00    +0.000 NA
ATOM      3  C   UNL     1       1.039   8.396  20.654  0.00  0.00    +0.000 A 
ATOM      4  C   UNL     1       0.337   9.208  21.441  0.00  0.00    +0.000 A 
ATOM      5  C   UNL     1      -0.233   9.172  22.749  0.00  0.00    +0.000 A 
ATOM      6  C   UNL     1      -0.836  10.274  23.222  0.00  0.00    +0.000 A 
ATOM      7  C   UNL     1      -0.958  11.483  22.421  0.00  0.00    +0.000 A 
ATOM      8  C   UNL     1      -0.474  11.581  21.169  0.00  0.00    +0.000 A 
ATOM      9  C   UNL     1       0.233  10.420  20.589  0.00  0.00    +0.000 A 
ATOM     10  N   UNL     1       0.787  10.351  19.414  0.00  0.00    +0.000 NA
ATOM     11  C   UNL     1       1.324   9.089  19.418  0.00  0.00    +0.000 A 
ATOM     12  C   UNL     1       2.069   8.501  18.476  0.00  0.00    +0.000 A 
ATOM     13  N   UNL     1       2.584   7.225  18.710  0.00  0.00    +0.000 N 
ATOM     14  C   UNL     1       3.427   6.588  17.701  0.00  0.00    +0.000 C 
ENDROOT
BRANCH  12  15
ATOM     15  O   UNL     1       2.346   9.157  17.295  0.00  0.00    +0.000 OA
ATOM     16  H   UNL     1       1.539   9.681  17.110  0.00  0.00    +0.000 HD
ENDBRANCH  12  15
BRANCH   1  17
ATOM     17  S   UNL     1       2.883   4.975  20.232  0.00  0.00    +0.000 S 
BRANCH  17  18
ATOM     18  C   UNL     1       1.413   3.903  20.327  0.00  0.00    +0.000 C 
ATOM     19  C   UNL     1       1.441   3.016  21.566  0.00  0.00    +0.000 C 
BRANCH  18  20
ATOM     20  C   UNL     1       1.136   3.115  19.055  0.00  0.00    +0.000 C 
ATOM     21  O   UNL     1       0.152   2.403  18.873  0.00  0.00    +0.000 OA
BRANCH  20  22
ATOM     22  O   UNL     1       2.067   3.398  18.095  0.00  0.00    +0.000 OA
BRANCH  22  24
ATOM     23  C   UNL     1       3.561   1.546  18.475  0.00  0.00    +0.000 C 
ATOM     24  C   UNL     1       2.681   2.262  17.472  0.00  0.00    +0.000 C 
ENDBRANCH  22  24
ENDBRANCH  20  22
ENDBRANCH  18  20
ENDBRANCH  17  18
ENDBRANCH   1  17
TORSDOF 6
ENDMDL
MODEL 4
REMARK VINA RESULT:      -7.4      3.031      7.311
REMARK  Name = 
REMARK  9 active torsions:
REMARK  status: ('A' for Active; 'I' for Inactive)
REMARK    1  A    between atoms: C_1  and  C_2
REMARK    2  A    between atoms: C_2  and  O_3
REMARK    3  A    between atoms: O_3  and  C_4
REMARK    4  A    between atoms: C_4  and  C_6
REMARK    5  A    between atoms: C_6  and  C_7
REMARK    6  A    between atoms: C_6  and  S_8
REMARK    7  A    between atoms: S_8  and  C_9
REMARK    8  A    between atoms: C_20  and  O_21
REMARK    9  A    between atoms: N_22  and  C_23
REMARK                            x       y       z     vdW  Elec       q    Type
REMARK                         _______ _______ _______ _____ _____    ______ ____
ROOT
ATOM      1  C   UNL     1       3.842   4.911  18.281  0.00  0.00    +0.000 A 
ATOM      2  N   UNL     1       3.530   6.140  17.965  0.00  0.00    +0.000 NA
ATOM      3  C   UNL     1       2.732   6.818  18.857  0.00  0.00    +0.000 A 
ATOM      4  C   UNL     1       2.200   8.035  18.789  0.00  0.00    +0.000 A 
ATOM      5  C   UNL     1       2.192   9.130  17.874  0.00  0.00    +0.000 A 
ATOM      6  C   UNL     1       1.442  10.207  18.160  0.00  0.00    +0.000 A 
ATOM      7  C   UNL     1       0.677  10.299  19.394  0.00  0.00    +0.000 A 
ATOM      8  C   UNL     1       0.660   9.321  20.319  0.00  0.00    +0.000 A 
ATOM      9  C   UNL     1       1.434   8.089  20.061  0.00  0.00    +0.000 A 
ATOM     10  N   UNL     1       1.507   7.038  20.825  0.00  0.00    +0.000 NA
ATOM     11  C   UNL     1       2.308   6.200  20.094  0.00  0.00    +0.000 A 
ATOM     12  C   UNL     1       2.669   4.943  20.373  0.00  0.00    +0.000 A 
ATOM     13  N   UNL     1       3.437   4.231  19.451  0.00  0.00    +0.000 N 
ATOM     14  C   UNL     1       3.808   2.846  19.733  0.00  0.00    +0.000 C 
ENDROOT
BRANCH  12  15
ATOM     15  O   UNL     1       2.267   4.347  21.550  0.00  0.00    +0.000 OA
ATOM     16  H   UNL     1       3.021   4.477  22.161  0.00  0.00    +0.000 HD
ENDBRANCH  12  15
BRANCH   1  17
ATOM     17  S   UNL     1       4.821   4.016  17.104  0.00  0.00    +0.000 S 
BRANCH  17  18
ATOM     18  C   UNL     1       6.533   4.549  17.428  0.00  0.00    +0.000 C 
ATOM     19  C   UNL     1       6.661   5.246  18.777  0.00  0.00    +0.000 C 
BRANCH  18  20
ATOM     20  C   UNL     1       7.157   5.353  16.297  0.00  0.00    +0.000 C 
ATOM     21  O   UNL     1       7.429   6.549  16.357  0.00  0.00    +0.000 OA
BRANCH  20  22
ATOM     22  O   UNL     1       7.486   4.542  15.248  0.00  0.00    +0.000 OA
BRANCH  22  24
ATOM     23  C   UNL     1       6.134   3.768  13.410  0.00  0.00    +0.000 C 
ATOM     24  C   UNL     1       6.940   4.918  13.977  0.00  0.00    +0.000 C 
ENDBRANCH  22  24
ENDBRANCH  20  22
ENDBRANCH  18  20
ENDBRANCH  17  18
ENDBRANCH   1  17
TORSDOF 6
ENDMDL
MODEL 5
REMARK VINA RESULT:      -7.4      2.931      6.883
REMARK  Name = 
REMARK  9 active torsions:
REMARK  status: ('A' for Active; 'I' for Inactive)
REMARK    1  A    between atoms: C_1  and  C_2
REMARK    2  A    between atoms: C_2  and  O_3
REMARK    3  A    between atoms: O_3  and  C_4
REMARK    4  A    between atoms: C_4  and  C_6
REMARK    5  A    between atoms: C_6  and  C_7
REMARK    6  A    between atoms: C_6  and  S_8
REMARK    7  A    between atoms: S_8  and  C_9
REMARK    8  A    between atoms: C_20  and  O_21
REMARK    9  A    between atoms: N_22  and  C_23
REMARK                            x       y       z     vdW  Elec       q    Type
REMARK                         _______ _______ _______ _____ _____    ______ ____
ROOT
ATOM      1  C   UNL     1       3.684   4.679  18.119  0.00  0.00    +0.000 A 
ATOM      2  N   UNL     1       3.410   5.917  17.804  0.00  0.00    +0.000 NA
ATOM      3  C   UNL     1       2.718   6.649  18.740  0.00  0.00    +0.000 A 
ATOM      4  C   UNL     1       2.243   7.891  18.689  0.00  0.00    +0.000 A 
ATOM      5  C   UNL     1       2.220   8.970  17.755  0.00  0.00    +0.000 A 
ATOM      6  C   UNL     1       1.549  10.089  18.076  0.00  0.00    +0.000 A 
ATOM      7  C   UNL     1       0.886  10.239  19.363  0.00  0.00    +0.000 A 
ATOM      8  C   UNL     1       0.892   9.278  20.305  0.00  0.00    +0.000 A 
ATOM      9  C   UNL     1       1.582   8.004  20.013  0.00  0.00    +0.000 A 
ATOM     10  N   UNL     1       1.660   6.963  20.790  0.00  0.00    +0.000 NA
ATOM     11  C   UNL     1       2.360   6.073  20.017  0.00  0.00    +0.000 A 
ATOM     12  C   UNL     1       2.678   4.804  20.293  0.00  0.00    +0.000 A 
ATOM     13  N   UNL     1       3.336   4.039  19.329  0.00  0.00    +0.000 N 
ATOM     14  C   UNL     1       3.658   2.642  19.609  0.00  0.00    +0.000 C 
ENDROOT
BRANCH  12  15
ATOM     15  O   UNL     1       2.338   4.248  21.508  0.00  0.00    +0.000 OA
ATOM     16  H   UNL     1       2.233   5.016  22.108  0.00  0.00    +0.000 HD
ENDBRANCH  12  15
BRANCH   1  17
ATOM     17  S   UNL     1       4.523   3.717  16.889  0.00  0.00    +0.000 S 
BRANCH  17  18
ATOM     18  C   UNL     1       5.359   4.945  15.834  0.00  0.00    +0.000 C 
ATOM     19  C   UNL     1       5.527   4.439  14.406  0.00  0.00    +0.000 C 
BRANCH  18  20
ATOM     20  C   UNL     1       6.657   5.483  16.416  0.00  0.00    +0.000 C 
ATOM     21  O   UNL     1       7.073   6.627  16.258  0.00  0.00    +0.000 OA
BRANCH  20  22
ATOM     22  O   UNL     1       7.240   4.561  17.240  0.00  0.00    +0.000 OA
BRANCH  22  24
ATOM     23  C   UNL     1       6.776   5.515  19.403  0.00  0.00    +0.000 C 
ATOM     24  C   UNL     1       7.851   5.086  18.426  0.00  0.00    +0.000 C 
ENDBRANCH  22  24
ENDBRANCH  20  22
ENDBRANCH  18  20
ENDBRANCH  17  18
ENDBRANCH   1  17
TORSDOF 6
ENDMDL
MODEL 6
REMARK VINA RESULT:      -7.3      1.452      1.648
REMARK  Name = 
REMARK  9 active torsions:
REMARK  status: ('A' for Active; 'I' for Inactive)
REMARK    1  A    between atoms: C_1  and  C_2
REMARK    2  A    between atoms: C_2  and  O_3
REMARK    3  A    between atoms: O_3  and  C_4
REMARK    4  A    between atoms: C_4  and  C_6
REMARK    5  A    between atoms: C_6  and  C_7
REMARK    6  A    between atoms: C_6  and  S_8
REMARK    7  A    between atoms: S_8  and  C_9
REMARK    8  A    between atoms: C_20  and  O_21
REMARK    9  A    between atoms: N_22  and  C_23
REMARK                            x       y       z     vdW  Elec       q    Type
REMARK                         _______ _______ _______ _____ _____    ______ ____
ROOT
ATOM      1  C   UNL     1       3.882   4.764  17.307  0.00  0.00    +0.000 A 
ATOM      2  N   UNL     1       4.052   4.278  16.106  0.00  0.00    +0.000 NA
ATOM      3  C   UNL     1       5.252   4.555  15.496  0.00  0.00    +0.000 A 
ATOM      4  C   UNL     1       5.690   4.263  14.274  0.00  0.00    +0.000 A 
ATOM      5  C   UNL     1       5.201   3.587  13.116  0.00  0.00    +0.000 A 
ATOM      6  C   UNL     1       5.962   3.567  12.010  0.00  0.00    +0.000 A 
ATOM      7  C   UNL     1       7.283   4.177  11.979  0.00  0.00    +0.000 A 
ATOM      8  C   UNL     1       7.823   4.804  13.041  0.00  0.00    +0.000 A 
ATOM      9  C   UNL     1       7.032   4.897  14.286  0.00  0.00    +0.000 A 
ATOM     10  N   UNL     1       7.383   5.489  15.391  0.00  0.00    +0.000 NA
ATOM     11  C   UNL     1       6.278   5.310  16.182  0.00  0.00    +0.000 A 
ATOM     12  C   UNL     1       6.057   5.771  17.417  0.00  0.00    +0.000 A 
ATOM     13  N   UNL     1       4.822   5.537  18.024  0.00  0.00    +0.000 N 
ATOM     14  C   UNL     1       4.560   6.067  19.360  0.00  0.00    +0.000 C 
ENDROOT
BRANCH  12  15
ATOM     15  O   UNL     1       7.029   6.493  18.077  0.00  0.00    +0.000 OA
ATOM     16  H   UNL     1       7.746   5.846  18.241  0.00  0.00    +0.000 HD
ENDBRANCH  12  15
BRANCH   1  17
ATOM     17  S   UNL     1       2.312   4.458  18.071  0.00  0.00    +0.000 S 
BRANCH  17  18
ATOM     18  C   UNL     1       2.182   2.642  18.146  0.00  0.00    +0.000 C 
ATOM     19  C   UNL     1       0.795   2.194  18.592  0.00  0.00    +0.000 C 
BRANCH  18  20
ATOM     20  C   UNL     1       3.293   1.972  18.941  0.00  0.00    +0.000 C 
ATOM     21  O   UNL     1       3.859   0.933  18.613  0.00  0.00    +0.000 OA
BRANCH  20  22
ATOM     22  O   UNL     1       3.660   2.743  20.008  0.00  0.00    +0.000 OA
BRANCH  22  24
ATOM     23  C   UNL     1       2.148   3.477  21.735  0.00  0.00    +0.000 C 
ATOM     24  C   UNL     1       3.079   2.378  21.267  0.00  0.00    +0.000 C 
ENDBRANCH  22  24
ENDBRANCH  20  22
ENDBRANCH  18  20
ENDBRANCH  17  18
ENDBRANCH   1  17
TORSDOF 6
ENDMDL
MODEL 7
REMARK VINA RESULT:      -7.3      3.106      7.118
REMARK  Name = 
REMARK  9 active torsions:
REMARK  status: ('A' for Active; 'I' for Inactive)
REMARK    1  A    between atoms: C_1  and  C_2
REMARK    2  A    between atoms: C_2  and  O_3
REMARK    3  A    between atoms: O_3  and  C_4
REMARK    4  A    between atoms: C_4  and  C_6
REMARK    5  A    between atoms: C_6  and  C_7
REMARK    6  A    between atoms: C_6  and  S_8
REMARK    7  A    between atoms: S_8  and  C_9
REMARK    8  A    between atoms: C_20  and  O_21
REMARK    9  A    between atoms: N_22  and  C_23
REMARK                            x       y       z     vdW  Elec       q    Type
REMARK                         _______ _______ _______ _____ _____    ______ ____
ROOT
ATOM      1  C   UNL     1       3.640   4.800  18.082  0.00  0.00    +0.000 A 
ATOM      2  N   UNL     1       3.354   6.046  17.810  0.00  0.00    +0.000 NA
ATOM      3  C   UNL     1       2.660   6.740  18.774  0.00  0.00    +0.000 A 
ATOM      4  C   UNL     1       2.174   7.978  18.766  0.00  0.00    +0.000 A 
ATOM      5  C   UNL     1       2.136   9.088  17.870  0.00  0.00    +0.000 A 
ATOM      6  C   UNL     1       1.457  10.189  18.231  0.00  0.00    +0.000 A 
ATOM      7  C   UNL     1       0.799  10.290  19.525  0.00  0.00    +0.000 A 
ATOM      8  C   UNL     1       0.818   9.298  20.434  0.00  0.00    +0.000 A 
ATOM      9  C   UNL     1       1.518   8.041  20.097  0.00  0.00    +0.000 A 
ATOM     10  N   UNL     1       1.610   6.976  20.839  0.00  0.00    +0.000 NA
ATOM     11  C   UNL     1       2.313   6.118  20.033  0.00  0.00    +0.000 A 
ATOM     12  C   UNL     1       2.645   4.844  20.264  0.00  0.00    +0.000 A 
ATOM     13  N   UNL     1       3.305   4.117  19.273  0.00  0.00    +0.000 N 
ATOM     14  C   UNL     1       3.640   2.715  19.504  0.00  0.00    +0.000 C 
ENDROOT
BRANCH  12  15
ATOM     15  O   UNL     1       2.316   4.244  21.462  0.00  0.00    +0.000 OA
ATOM     16  H   UNL     1       1.356   4.416  21.567  0.00  0.00    +0.000 HD
ENDBRANCH  12  15
BRANCH   1  17
ATOM     17  S   UNL     1       4.482   3.887  16.817  0.00  0.00    +0.000 S 
BRANCH  17  18
ATOM     18  C   UNL     1       6.196   4.502  16.868  0.00  0.00    +0.000 C 
ATOM     19  C   UNL     1       6.744   4.529  18.290  0.00  0.00    +0.000 C 
BRANCH  18  20
ATOM     20  C   UNL     1       6.404   5.822  16.140  0.00  0.00    +0.000 C 
ATOM     21  O   UNL     1       5.605   6.320  15.353  0.00  0.00    +0.000 OA
BRANCH  20  22
ATOM     22  O   UNL     1       7.546   6.439  16.570  0.00  0.00    +0.000 OA
BRANCH  22  24
ATOM     23  C   UNL     1       8.242   7.850  18.395  0.00  0.00    +0.000 C 
ATOM     24  C   UNL     1       7.366   7.732  17.165  0.00  0.00    +0.000 C 
ENDBRANCH  22  24
ENDBRANCH  20  22
ENDBRANCH  18  20
ENDBRANCH  17  18
ENDBRANCH   1  17
TORSDOF 6
ENDMDL
MODEL 8
REMARK VINA RESULT:      -7.2      0.831      1.198
REMARK  Name = 
REMARK  9 active torsions:
REMARK  status: ('A' for Active; 'I' for Inactive)
REMARK    1  A    between atoms: C_1  and  C_2
REMARK    2  A    between atoms: C_2  and  O_3
REMARK    3  A    between atoms: O_3  and  C_4
REMARK    4  A    between atoms: C_4  and  C_6
REMARK    5  A    between atoms: C_6  and  C_7
REMARK    6  A    between atoms: C_6  and  S_8
REMARK    7  A    between atoms: S_8  and  C_9
REMARK    8  A    between atoms: C_20  and  O_21
REMARK    9  A    between atoms: N_22  and  C_23
REMARK                            x       y       z     vdW  Elec       q    Type
REMARK                         _______ _______ _______ _____ _____    ______ ____
ROOT
ATOM      1  C   UNL     1       5.085   4.062  17.595  0.00  0.00    +0.000 A 
ATOM      2  N   UNL     1       5.025   3.625  16.365  0.00  0.00    +0.000 NA
ATOM      3  C   UNL     1       5.930   4.160  15.479  0.00  0.00    +0.000 A 
ATOM      4  C   UNL     1       6.075   3.970  14.169  0.00  0.00    +0.000 A 
ATOM      5  C   UNL     1       5.448   3.204  13.143  0.00  0.00    +0.000 A 
ATOM      6  C   UNL     1       5.870   3.351  11.876  0.00  0.00    +0.000 A 
ATOM      7  C   UNL     1       6.973   4.237  11.537  0.00  0.00    +0.000 A 
ATOM      8  C   UNL     1       7.632   4.968  12.454  0.00  0.00    +0.000 A 
ATOM      9  C   UNL     1       7.205   4.885  13.867  0.00  0.00    +0.000 A 
ATOM     10  N   UNL     1       7.705   5.540  14.874  0.00  0.00    +0.000 NA
ATOM     11  C   UNL     1       6.917   5.122  15.915  0.00  0.00    +0.000 A 
ATOM     12  C   UNL     1       6.944   5.524  17.190  0.00  0.00    +0.000 A 
ATOM     13  N   UNL     1       5.997   5.024  18.085  0.00  0.00    +0.000 N 
ATOM     14  C   UNL     1       5.997   5.483  19.471  0.00  0.00    +0.000 C 
ENDROOT
BRANCH  12  15
ATOM     15  O   UNL     1       7.881   6.443  17.612  0.00  0.00    +0.000 OA
ATOM     16  H   UNL     1       7.544   7.304  17.287  0.00  0.00    +0.000 HD
ENDBRANCH  12  15
BRANCH   1  17
ATOM     17  S   UNL     1       3.880   3.418  18.724  0.00  0.00    +0.000 S 
BRANCH  17  18
ATOM     18  C   UNL     1       2.465   4.557  18.588  0.00  0.00    +0.000 C 
ATOM     19  C   UNL     1       2.827   5.816  17.809  0.00  0.00    +0.000 C 
BRANCH  18  20
ATOM     20  C   UNL     1       1.789   4.869  19.916  0.00  0.00    +0.000 C 
ATOM     21  O   UNL     1       2.087   5.808  20.648  0.00  0.00    +0.000 OA
BRANCH  20  22
ATOM     22  O   UNL     1       0.727   4.035  20.128  0.00  0.00    +0.000 OA
BRANCH  22  24
ATOM     23  C   UNL     1       1.745   2.626  21.798  0.00  0.00    +0.000 C 
ATOM     24  C   UNL     1       1.059   2.677  20.448  0.00  0.00    +0.000 C 
ENDBRANCH  22  24
ENDBRANCH  20  22
ENDBRANCH  18  20
ENDBRANCH  17  18
ENDBRANCH   1  17
TORSDOF 6
ENDMDL
MODEL 9
REMARK VINA RESULT:      -7.1      1.275      1.993
REMARK  Name = 
REMARK  9 active torsions:
REMARK  status: ('A' for Active; 'I' for Inactive)
REMARK    1  A    between atoms: C_1  and  C_2
REMARK    2  A    between atoms: C_2  and  O_3
REMARK    3  A    between atoms: O_3  and  C_4
REMARK    4  A    between atoms: C_4  and  C_6
REMARK    5  A    between atoms: C_6  and  C_7
REMARK    6  A    between atoms: C_6  and  S_8
REMARK    7  A    between atoms: S_8  and  C_9
REMARK    8  A    between atoms: C_20  and  O_21
REMARK    9  A    between atoms: N_22  and  C_23
REMARK                            x       y       z     vdW  Elec       q    Type
REMARK                         _______ _______ _______ _____ _____    ______ ____
ROOT
ATOM      1  C   UNL     1       5.230   3.962  17.705  0.00  0.00    +0.000 A 
ATOM      2  N   UNL     1       5.162   3.527  16.474  0.00  0.00    +0.000 NA
ATOM      3  C   UNL     1       6.012   4.115  15.568  0.00  0.00    +0.000 A 
ATOM      4  C   UNL     1       6.133   3.939  14.254  0.00  0.00    +0.000 A 
ATOM      5  C   UNL     1       5.523   3.142  13.240  0.00  0.00    +0.000 A 
ATOM      6  C   UNL     1       5.903   3.317  11.964  0.00  0.00    +0.000 A 
ATOM      7  C   UNL     1       6.944   4.266  11.600  0.00  0.00    +0.000 A 
ATOM      8  C   UNL     1       7.586   5.029  12.504  0.00  0.00    +0.000 A 
ATOM      9  C   UNL     1       7.201   4.918  13.927  0.00  0.00    +0.000 A 
ATOM     10  N   UNL     1       7.690   5.596  14.923  0.00  0.00    +0.000 NA
ATOM     11  C   UNL     1       6.955   5.130  15.983  0.00  0.00    +0.000 A 
ATOM     12  C   UNL     1       6.992   5.528  17.259  0.00  0.00    +0.000 A 
ATOM     13  N   UNL     1       6.099   4.972  18.175  0.00  0.00    +0.000 N 
ATOM     14  C   UNL     1       6.110   5.426  19.564  0.00  0.00    +0.000 C 
ENDROOT
BRANCH  12  15
ATOM     15  O   UNL     1       7.887   6.498  17.661  0.00  0.00    +0.000 OA
ATOM     16  H   UNL     1       8.597   6.471  16.986  0.00  0.00    +0.000 HD
ENDBRANCH  12  15
BRANCH   1  17
ATOM     17  S   UNL     1       4.094   3.247  18.862  0.00  0.00    +0.000 S 
BRANCH  17  18
ATOM     18  C   UNL     1       2.822   4.527  19.111  0.00  0.00    +0.000 C 
ATOM     19  C   UNL     1       2.011   4.276  20.377  0.00  0.00    +0.000 C 
BRANCH  18  20
ATOM     20  C   UNL     1       1.941   4.772  17.895  0.00  0.00    +0.000 C 
ATOM     21  O   UNL     1       1.192   3.938  17.394  0.00  0.00    +0.000 OA
BRANCH  20  22
ATOM     22  O   UNL     1       2.003   6.081  17.506  0.00  0.00    +0.000 OA
BRANCH  22  24
ATOM     23  C   UNL     1       2.237   8.228  18.574  0.00  0.00    +0.000 C 
ATOM     24  C   UNL     1       2.906   6.908  18.253  0.00  0.00    +0.000 C 
ENDBRANCH  22  24
ENDBRANCH  20  22
ENDBRANCH  18  20
ENDBRANCH  17  18
ENDBRANCH   1  17
TORSDOF 6
ENDMDL
