MODEL 1
REMARK VINA RESULT:      -8.0      0.000      0.000
REMARK  Name = 
REMARK  5 active torsions:
REMARK  status: ('A' for Active; 'I' for Inactive)
REMARK    1  A    between atoms: C_1  and  C_2
REMARK    2  A    between atoms: C_2  and  C_3
REMARK    3  A    between atoms: C_3  and  C_4
REMARK    4  A    between atoms: C_10  and  N_11
REMARK    5  A    between atoms: C_12  and  C_14
REMARK                            x       y       z     vdW  Elec       q    Type
REMARK                         _______ _______ _______ _____ _____    ______ ____
ROOT
ATOM      1  C   UNL     1       4.593   3.576  18.337  0.00  0.00    +0.000 C 
ATOM      2  O   UNL     1       4.877   3.601  19.532  0.00  0.00    +0.000 OA
ATOM      3  N   UNL     1       5.109   4.420  17.374  0.00  0.00    +0.000 N 
ATOM      4  C   UNL     1       6.098   5.358  17.677  0.00  0.00    +0.000 A 
ATOM      5  C   UNL     1       7.172   5.016  18.484  0.00  0.00    +0.000 A 
ATOM      6  C   UNL     1       8.094   5.995  18.833  0.00  0.00    +0.000 A 
ATOM      7  C   UNL     1       7.921   7.306  18.396  0.00  0.00    +0.000 A 
ATOM      8  C   UNL     1       6.835   7.532  17.546  0.00  0.00    +0.000 A 
ATOM      9  N   UNL     1       5.944   6.584  17.144  0.00  0.00    +0.000 NA
ATOM     10  H   UNL     1       4.510   4.684  16.605  0.00  0.00    +0.000 HD
ENDROOT
BRANCH   7  11
ATOM     11  N   UNL     1       8.760   8.382  18.783  0.00  0.00    +0.000 N 
ATOM     12  C   UNL     1       8.633   9.692  18.348  0.00  0.00    +0.000 C 
ATOM     13  O   UNL     1       7.748  10.120  17.615  0.00  0.00    +0.000 OA
ATOM     14  H   UNL     1       9.493   8.163  19.447  0.00  0.00    +0.000 HD
BRANCH  12  15
ATOM     15  C   UNL     1       9.630  10.685  18.830  0.00  0.00    +0.000 A 
ATOM     16  C   UNL     1       9.824  10.997  20.183  0.00  0.00    +0.000 A 
ATOM     17  C   UNL     1      10.839  11.894  20.547  0.00  0.00    +0.000 A 
ATOM     18  C   UNL     1      11.654  12.469  19.575  0.00  0.00    +0.000 A 
ATOM     19  C   UNL     1      11.461  12.148  18.237  0.00  0.00    +0.000 A 
ATOM     20  F   UNL     1      12.252  12.686  17.304  0.00  0.00    +0.000 F 
ATOM     21  C   UNL     1      10.461  11.266  17.860  0.00  0.00    +0.000 A 
ENDBRANCH  12  15
ENDBRANCH   7  11
BRANCH   1  22
ATOM     22  C   UNL     1       3.622   2.549  17.800  0.00  0.00    +0.000 C 
BRANCH  22  24
ATOM     23  C   UNL     1       1.492   3.878  18.180  0.00  0.00    +0.000 C 
ATOM     24  C   UNL     1       2.406   3.210  17.159  0.00  0.00    +0.000 C 
ENDBRANCH  22  24
ENDBRANCH   1  22
TORSDOF 4
ENDMDL
MODEL 2
REMARK VINA RESULT:      -7.9      1.213      1.577
REMARK  Name = 
REMARK  5 active torsions:
REMARK  status: ('A' for Active; 'I' for Inactive)
REMARK    1  A    between atoms: C_1  and  C_2
REMARK    2  A    between atoms: C_2  and  C_3
REMARK    3  A    between atoms: C_3  and  C_4
REMARK    4  A    between atoms: C_10  and  N_11
REMARK    5  A    between atoms: C_12  and  C_14
REMARK                            x       y       z     vdW  Elec       q    Type
REMARK                         _______ _______ _______ _____ _____    ______ ____
ROOT
ATOM      1  C   UNL     1       4.240   3.801  18.126  0.00  0.00    +0.000 C 
ATOM      2  O   UNL     1       4.314   3.951  19.342  0.00  0.00    +0.000 OA
ATOM      3  N   UNL     1       4.996   4.475  17.188  0.00  0.00    +0.000 N 
ATOM      4  C   UNL     1       6.008   5.361  17.565  0.00  0.00    +0.000 A 
ATOM      5  C   UNL     1       6.887   5.036  18.586  0.00  0.00    +0.000 A 
ATOM      6  C   UNL     1       7.828   5.975  18.991  0.00  0.00    +0.000 A 
ATOM      7  C   UNL     1       7.866   7.232  18.391  0.00  0.00    +0.000 A 
ATOM      8  C   UNL     1       6.972   7.436  17.337  0.00  0.00    +0.000 A 
ATOM      9  N   UNL     1       6.073   6.520  16.883  0.00  0.00    +0.000 NA
ATOM     10  H   UNL     1       4.569   4.688  16.299  0.00  0.00    +0.000 HD
ENDROOT
BRANCH   7  11
ATOM     11  N   UNL     1       8.730   8.277  18.807  0.00  0.00    +0.000 N 
ATOM     12  C   UNL     1       8.631   9.601  18.411  0.00  0.00    +0.000 C 
ATOM     13  O   UNL     1       7.754  10.070  17.694  0.00  0.00    +0.000 OA
ATOM     14  H   UNL     1       9.459   8.022  19.462  0.00  0.00    +0.000 HD
BRANCH  12  15
ATOM     15  C   UNL     1       9.651  10.557  18.919  0.00  0.00    +0.000 A 
ATOM     16  C   UNL     1      10.706  11.054  18.142  0.00  0.00    +0.000 A 
ATOM     17  C   UNL     1      11.578  12.009  18.687  0.00  0.00    +0.000 A 
ATOM     18  C   UNL     1      11.396  12.467  19.989  0.00  0.00    +0.000 A 
ATOM     19  C   UNL     1      10.343  11.976  20.751  0.00  0.00    +0.000 A 
ATOM     20  F   UNL     1      10.157  12.426  21.995  0.00  0.00    +0.000 F 
ATOM     21  C   UNL     1       9.474  11.030  20.229  0.00  0.00    +0.000 A 
ENDBRANCH  12  15
ENDBRANCH   7  11
BRANCH   1  22
ATOM     22  C   UNL     1       3.278   2.795  17.534  0.00  0.00    +0.000 C 
BRANCH  22  24
ATOM     23  C   UNL     1       1.126   2.402  18.824  0.00  0.00    +0.000 C 
ATOM     24  C   UNL     1       1.828   3.218  17.743  0.00  0.00    +0.000 C 
ENDBRANCH  22  24
ENDBRANCH   1  22
TORSDOF 4
ENDMDL
MODEL 3
REMARK VINA RESULT:      -7.7      6.027      7.952
REMARK  Name = 
REMARK  5 active torsions:
REMARK  status: ('A' for Active; 'I' for Inactive)
REMARK    1  A    between atoms: C_1  and  C_2
REMARK    2  A    between atoms: C_2  and  C_3
REMARK    3  A    between atoms: C_3  and  C_4
REMARK    4  A    between atoms: C_10  and  N_11
REMARK    5  A    between atoms: C_12  and  C_14
REMARK                            x       y       z     vdW  Elec       q    Type
REMARK                         _______ _______ _______ _____ _____    ______ ____
ROOT
ATOM      1  C   UNL     1       6.266   5.375  15.989  0.00  0.00    +0.000 C 
ATOM      2  O   UNL     1       6.812   6.367  16.464  0.00  0.00    +0.000 OA
ATOM      3  N   UNL     1       4.986   4.950  16.279  0.00  0.00    +0.000 N 
ATOM      4  C   UNL     1       4.140   5.690  17.108  0.00  0.00    +0.000 A 
ATOM      5  C   UNL     1       4.054   7.068  16.980  0.00  0.00    +0.000 A 
ATOM      6  C   UNL     1       3.266   7.781  17.875  0.00  0.00    +0.000 A 
ATOM      7  C   UNL     1       2.594   7.118  18.900  0.00  0.00    +0.000 A 
ATOM      8  C   UNL     1       2.707   5.725  18.906  0.00  0.00    +0.000 A 
ATOM      9  N   UNL     1       3.428   4.993  18.013  0.00  0.00    +0.000 NA
ATOM     10  H   UNL     1       4.805   3.957  16.284  0.00  0.00    +0.000 HD
ENDROOT
BRANCH   7  11
ATOM     11  N   UNL     1       1.848   7.778  19.909  0.00  0.00    +0.000 N 
ATOM     12  C   UNL     1       1.095   8.927  19.724  0.00  0.00    +0.000 C 
ATOM     13  O   UNL     1       0.919   9.503  18.655  0.00  0.00    +0.000 OA
ATOM     14  H   UNL     1       1.861   7.353  20.828  0.00  0.00    +0.000 HD
BRANCH  12  15
ATOM     15  C   UNL     1       0.407   9.506  20.908  0.00  0.00    +0.000 A 
ATOM     16  C   UNL     1       0.468   8.948  22.193  0.00  0.00    +0.000 A 
ATOM     17  C   UNL     1      -0.155   9.605  23.264  0.00  0.00    +0.000 A 
ATOM     18  C   UNL     1      -0.827  10.807  23.058  0.00  0.00    +0.000 A 
ATOM     19  C   UNL     1      -0.878  11.358  21.783  0.00  0.00    +0.000 A 
ATOM     20  F   UNL     1      -1.508  12.520  21.586  0.00  0.00    +0.000 F 
ATOM     21  C   UNL     1      -0.269  10.720  20.713  0.00  0.00    +0.000 A 
ENDBRANCH  12  15
ENDBRANCH   7  11
BRANCH   1  22
ATOM     22  C   UNL     1       6.989   4.510  14.981  0.00  0.00    +0.000 C 
BRANCH  22  24
ATOM     23  C   UNL     1       6.626   3.776  12.577  0.00  0.00    +0.000 C 
ATOM     24  C   UNL     1       6.022   3.901  13.971  0.00  0.00    +0.000 C 
ENDBRANCH  22  24
ENDBRANCH   1  22
TORSDOF 4
ENDMDL
MODEL 4
REMARK VINA RESULT:      -7.6      6.027      7.937
REMARK  Name = 
REMARK  5 active torsions:
REMARK  status: ('A' for Active; 'I' for Inactive)
REMARK    1  A    between atoms: C_1  and  C_2
REMARK    2  A    between atoms: C_2  and  C_3
REMARK    3  A    between atoms: C_3  and  C_4
REMARK    4  A    between atoms: C_10  and  N_11
REMARK    5  A    between atoms: C_12  and  C_14
REMARK                            x       y       z     vdW  Elec       q    Type
REMARK                         _______ _______ _______ _____ _____    ______ ____
ROOT
ATOM      1  C   UNL     1       6.308   5.330  16.032  0.00  0.00    +0.000 C 
ATOM      2  O   UNL     1       6.825   6.386  16.389  0.00  0.00    +0.000 OA
ATOM      3  N   UNL     1       5.049   4.895  16.391  0.00  0.00    +0.000 N 
ATOM      4  C   UNL     1       4.190   5.688  17.154  0.00  0.00    +0.000 A 
ATOM      5  C   UNL     1       4.052   7.041  16.883  0.00  0.00    +0.000 A 
ATOM      6  C   UNL     1       3.253   7.818  17.714  0.00  0.00    +0.000 A 
ATOM      7  C   UNL     1       2.623   7.243  18.816  0.00  0.00    +0.000 A 
ATOM      8  C   UNL     1       2.787   5.864  18.967  0.00  0.00    +0.000 A 
ATOM      9  N   UNL     1       3.520   5.067  18.141  0.00  0.00    +0.000 NA
ATOM     10  H   UNL     1       4.905   3.902  16.503  0.00  0.00    +0.000 HD
ENDROOT
BRANCH   7  11
ATOM     11  N   UNL     1       1.870   7.981  19.764  0.00  0.00    +0.000 N 
ATOM     12  C   UNL     1       1.179   9.153  19.500  0.00  0.00    +0.000 C 
ATOM     13  O   UNL     1       1.070   9.687  18.401  0.00  0.00    +0.000 OA
ATOM     14  H   UNL     1       1.827   7.597  20.700  0.00  0.00    +0.000 HD
BRANCH  12  15
ATOM     15  C   UNL     1       0.472   9.814  20.629  0.00  0.00    +0.000 A 
ATOM     16  C   UNL     1      -0.395  10.904  20.472  0.00  0.00    +0.000 A 
ATOM     17  C   UNL     1      -1.074  11.415  21.589  0.00  0.00    +0.000 A 
ATOM     18  C   UNL     1      -0.893  10.844  22.845  0.00  0.00    +0.000 A 
ATOM     19  C   UNL     1      -0.038   9.758  22.992  0.00  0.00    +0.000 A 
ATOM     20  F   UNL     1       0.124   9.198  24.194  0.00  0.00    +0.000 F 
ATOM     21  C   UNL     1       0.642   9.242  21.900  0.00  0.00    +0.000 A 
ENDBRANCH  12  15
ENDBRANCH   7  11
BRANCH   1  22
ATOM     22  C   UNL     1       7.046   4.389  15.106  0.00  0.00    +0.000 C 
BRANCH  22  24
ATOM     23  C   UNL     1       6.619   4.040  12.627  0.00  0.00    +0.000 C 
ATOM     24  C   UNL     1       6.117   3.804  14.047  0.00  0.00    +0.000 C 
ENDBRANCH  22  24
ENDBRANCH   1  22
TORSDOF 4
ENDMDL
MODEL 5
REMARK VINA RESULT:      -7.5      6.231      8.574
REMARK  Name = 
REMARK  5 active torsions:
REMARK  status: ('A' for Active; 'I' for Inactive)
REMARK    1  A    between atoms: C_1  and  C_2
REMARK    2  A    between atoms: C_2  and  C_3
REMARK    3  A    between atoms: C_3  and  C_4
REMARK    4  A    between atoms: C_10  and  N_11
REMARK    5  A    between atoms: C_12  and  C_14
REMARK                            x       y       z     vdW  Elec       q    Type
REMARK                         _______ _______ _______ _____ _____    ______ ____
ROOT
ATOM      1  C   UNL     1      -0.660  11.607  21.298  0.00  0.00    +0.000 C 
ATOM      2  O   UNL     1       0.373  11.592  21.963  0.00  0.00    +0.000 OA
ATOM      3  N   UNL     1      -0.877  10.889  20.140  0.00  0.00    +0.000 N 
ATOM      4  C   UNL     1       0.068   9.985  19.651  0.00  0.00    +0.000 A 
ATOM      5  C   UNL     1       0.724   9.116  20.509  0.00  0.00    +0.000 A 
ATOM      6  C   UNL     1       1.718   8.288  20.003  0.00  0.00    +0.000 A 
ATOM      7  C   UNL     1       2.064   8.354  18.655  0.00  0.00    +0.000 A 
ATOM      8  C   UNL     1       1.307   9.226  17.869  0.00  0.00    +0.000 A 
ATOM      9  N   UNL     1       0.293  10.012  18.325  0.00  0.00    +0.000 NA
ATOM     10  H   UNL     1      -1.461  11.303  19.428  0.00  0.00    +0.000 HD
ENDROOT
BRANCH   7  11
ATOM     11  N   UNL     1       3.129   7.615  18.079  0.00  0.00    +0.000 N 
ATOM     12  C   UNL     1       3.132   6.244  17.876  0.00  0.00    +0.000 C 
ATOM     13  O   UNL     1       2.199   5.484  18.110  0.00  0.00    +0.000 OA
ATOM     14  H   UNL     1       3.935   8.149  17.778  0.00  0.00    +0.000 HD
BRANCH  12  15
ATOM     15  C   UNL     1       4.355   5.631  17.291  0.00  0.00    +0.000 A 
ATOM     16  C   UNL     1       4.364   4.394  16.632  0.00  0.00    +0.000 A 
ATOM     17  C   UNL     1       5.553   3.929  16.049  0.00  0.00    +0.000 A 
ATOM     18  C   UNL     1       6.716   4.691  16.118  0.00  0.00    +0.000 A 
ATOM     19  C   UNL     1       6.697   5.920  16.767  0.00  0.00    +0.000 A 
ATOM     20  F   UNL     1       7.808   6.660  16.820  0.00  0.00    +0.000 F 
ATOM     21  C   UNL     1       5.532   6.392  17.350  0.00  0.00    +0.000 A 
ENDBRANCH  12  15
ENDBRANCH   7  11
BRANCH   1  22
ATOM     22  C   UNL     1      -1.843  12.442  21.737  0.00  0.00    +0.000 C 
BRANCH  22  24
ATOM     23  C   UNL     1      -3.726  12.555  23.437  0.00  0.00    +0.000 C 
ATOM     24  C   UNL     1      -2.323  12.045  23.129  0.00  0.00    +0.000 C 
ENDBRANCH  22  24
ENDBRANCH   1  22
TORSDOF 4
ENDMDL
MODEL 6
REMARK VINA RESULT:      -7.4      6.068      8.302
REMARK  Name = 
REMARK  5 active torsions:
REMARK  status: ('A' for Active; 'I' for Inactive)
REMARK    1  A    between atoms: C_1  and  C_2
REMARK    2  A    between atoms: C_2  and  C_3
REMARK    3  A    between atoms: C_3  and  C_4
REMARK    4  A    between atoms: C_10  and  N_11
REMARK    5  A    between atoms: C_12  and  C_14
REMARK                            x       y       z     vdW  Elec       q    Type
REMARK                         _______ _______ _______ _____ _____    ______ ____
ROOT
ATOM      1  C   UNL     1      -0.069  10.156  22.513  0.00  0.00    +0.000 C 
ATOM      2  O   UNL     1       0.913   9.778  23.147  0.00  0.00    +0.000 OA
ATOM      3  N   UNL     1      -0.301   9.909  21.175  0.00  0.00    +0.000 N 
ATOM      4  C   UNL     1       0.556   9.107  20.419  0.00  0.00    +0.000 A 
ATOM      5  C   UNL     1       1.048   7.918  20.935  0.00  0.00    +0.000 A 
ATOM      6  C   UNL     1       1.964   7.185  20.190  0.00  0.00    +0.000 A 
ATOM      7  C   UNL     1       2.396   7.658  18.952  0.00  0.00    +0.000 A 
ATOM      8  C   UNL     1       1.798   8.838  18.503  0.00  0.00    +0.000 A 
ATOM      9  N   UNL     1       0.861   9.551  19.186  0.00  0.00    +0.000 NA
ATOM     10  H   UNL     1      -0.786  10.615  20.640  0.00  0.00    +0.000 HD
ENDROOT
BRANCH   7  11
ATOM     11  N   UNL     1       3.395   7.022  18.173  0.00  0.00    +0.000 N 
ATOM     12  C   UNL     1       4.182   5.961  18.592  0.00  0.00    +0.000 C 
ATOM     13  O   UNL     1       4.089   5.383  19.670  0.00  0.00    +0.000 OA
ATOM     14  H   UNL     1       3.518   7.370  17.229  0.00  0.00    +0.000 HD
BRANCH  12  15
ATOM     15  C   UNL     1       5.210   5.442  17.651  0.00  0.00    +0.000 A 
ATOM     16  C   UNL     1       6.524   5.132  18.029  0.00  0.00    +0.000 A 
ATOM     17  C   UNL     1       7.404   4.580  17.086  0.00  0.00    +0.000 A 
ATOM     18  C   UNL     1       6.978   4.335  15.784  0.00  0.00    +0.000 A 
ATOM     19  C   UNL     1       5.672   4.638  15.418  0.00  0.00    +0.000 A 
ATOM     20  F   UNL     1       5.256   4.388  14.173  0.00  0.00    +0.000 F 
ATOM     21  C   UNL     1       4.790   5.186  16.336  0.00  0.00    +0.000 A 
ENDBRANCH  12  15
ENDBRANCH   7  11
BRANCH   1  22
ATOM     22  C   UNL     1      -1.165  10.943  23.194  0.00  0.00    +0.000 C 
BRANCH  22  24
ATOM     23  C   UNL     1      -2.568  12.989  22.648  0.00  0.00    +0.000 C 
ATOM     24  C   UNL     1      -1.164  12.403  22.751  0.00  0.00    +0.000 C 
ENDBRANCH  22  24
ENDBRANCH   1  22
TORSDOF 4
ENDMDL
MODEL 7
REMARK VINA RESULT:      -7.3      6.173      8.491
REMARK  Name = 
REMARK  5 active torsions:
REMARK  status: ('A' for Active; 'I' for Inactive)
REMARK    1  A    between atoms: C_1  and  C_2
REMARK    2  A    between atoms: C_2  and  C_3
REMARK    3  A    between atoms: C_3  and  C_4
REMARK    4  A    between atoms: C_10  and  N_11
REMARK    5  A    between atoms: C_12  and  C_14
REMARK                            x       y       z     vdW  Elec       q    Type
REMARK                         _______ _______ _______ _____ _____    ______ ____
ROOT
ATOM      1  C   UNL     1      -0.412  11.385  21.208  0.00  0.00    +0.000 C 
ATOM      2  O   UNL     1       0.617  11.357  21.878  0.00  0.00    +0.000 OA
ATOM      3  N   UNL     1      -0.627  10.678  20.042  0.00  0.00    +0.000 N 
ATOM      4  C   UNL     1       0.315   9.772  19.551  0.00  0.00    +0.000 A 
ATOM      5  C   UNL     1       0.959   8.890  20.406  0.00  0.00    +0.000 A 
ATOM      6  C   UNL     1       1.950   8.060  19.897  0.00  0.00    +0.000 A 
ATOM      7  C   UNL     1       2.305   8.135  18.552  0.00  0.00    +0.000 A 
ATOM      8  C   UNL     1       1.558   9.019  17.769  0.00  0.00    +0.000 A 
ATOM      9  N   UNL     1       0.547   9.808  18.226  0.00  0.00    +0.000 NA
ATOM     10  H   UNL     1      -1.204  11.102  19.330  0.00  0.00    +0.000 HD
ENDROOT
BRANCH   7  11
ATOM     11  N   UNL     1       3.367   7.393  17.976  0.00  0.00    +0.000 N 
ATOM     12  C   UNL     1       3.537   6.022  18.088  0.00  0.00    +0.000 C 
ATOM     13  O   UNL     1       2.769   5.249  18.649  0.00  0.00    +0.000 OA
ATOM     14  H   UNL     1       4.034   7.919  17.424  0.00  0.00    +0.000 HD
BRANCH  12  15
ATOM     15  C   UNL     1       4.735   5.416  17.447  0.00  0.00    +0.000 A 
ATOM     16  C   UNL     1       4.781   5.019  16.103  0.00  0.00    +0.000 A 
ATOM     17  C   UNL     1       5.979   4.523  15.568  0.00  0.00    +0.000 A 
ATOM     18  C   UNL     1       7.120   4.429  16.362  0.00  0.00    +0.000 A 
ATOM     19  C   UNL     1       7.069   4.832  17.691  0.00  0.00    +0.000 A 
ATOM     20  F   UNL     1       8.166   4.758  18.450  0.00  0.00    +0.000 F 
ATOM     21  C   UNL     1       5.892   5.322  18.236  0.00  0.00    +0.000 A 
ENDBRANCH  12  15
ENDBRANCH   7  11
BRANCH   1  22
ATOM     22  C   UNL     1      -1.591  12.224  21.647  0.00  0.00    +0.000 C 
BRANCH  22  24
ATOM     23  C   UNL     1      -1.287  13.873  23.554  0.00  0.00    +0.000 C 
ATOM     24  C   UNL     1      -1.597  12.434  23.157  0.00  0.00    +0.000 C 
ENDBRANCH  22  24
ENDBRANCH   1  22
TORSDOF 4
ENDMDL
MODEL 8
REMARK VINA RESULT:      -7.2      6.039      8.400
REMARK  Name = 
REMARK  5 active torsions:
REMARK  status: ('A' for Active; 'I' for Inactive)
REMARK    1  A    between atoms: C_1  and  C_2
REMARK    2  A    between atoms: C_2  and  C_3
REMARK    3  A    between atoms: C_3  and  C_4
REMARK    4  A    between atoms: C_10  and  N_11
REMARK    5  A    between atoms: C_12  and  C_14
REMARK                            x       y       z     vdW  Elec       q    Type
REMARK                         _______ _______ _______ _____ _____    ______ ____
ROOT
ATOM      1  C   UNL     1      -0.516  10.519  22.599  0.00  0.00    +0.000 C 
ATOM      2  O   UNL     1       0.448  10.184  23.282  0.00  0.00    +0.000 OA
ATOM      3  N   UNL     1      -0.687  10.229  21.260  0.00  0.00    +0.000 N 
ATOM      4  C   UNL     1       0.219   9.427  20.563  0.00  0.00    +0.000 A 
ATOM      5  C   UNL     1       0.718   8.266  21.133  0.00  0.00    +0.000 A 
ATOM      6  C   UNL     1       1.681   7.536  20.447  0.00  0.00    +0.000 A 
ATOM      7  C   UNL     1       2.151   7.984  19.215  0.00  0.00    +0.000 A 
ATOM      8  C   UNL     1       1.545   9.136  18.708  0.00  0.00    +0.000 A 
ATOM      9  N   UNL     1       0.564   9.845  19.331  0.00  0.00    +0.000 NA
ATOM     10  H   UNL     1      -1.167  10.907  20.686  0.00  0.00    +0.000 HD
ENDROOT
BRANCH   7  11
ATOM     11  N   UNL     1       3.197   7.352  18.495  0.00  0.00    +0.000 N 
ATOM     12  C   UNL     1       3.247   6.004  18.177  0.00  0.00    +0.000 C 
ATOM     13  O   UNL     1       2.374   5.178  18.419  0.00  0.00    +0.000 OA
ATOM     14  H   UNL     1       3.950   7.951  18.177  0.00  0.00    +0.000 HD
BRANCH  12  15
ATOM     15  C   UNL     1       4.444   5.506  17.447  0.00  0.00    +0.000 A 
ATOM     16  C   UNL     1       4.431   4.382  16.609  0.00  0.00    +0.000 A 
ATOM     17  C   UNL     1       5.592   4.031  15.904  0.00  0.00    +0.000 A 
ATOM     18  C   UNL     1       6.751   4.792  16.031  0.00  0.00    +0.000 A 
ATOM     19  C   UNL     1       6.754   5.909  16.858  0.00  0.00    +0.000 A 
ATOM     20  F   UNL     1       7.860   6.651  16.968  0.00  0.00    +0.000 F 
ATOM     21  C   UNL     1       5.616   6.269  17.563  0.00  0.00    +0.000 A 
ENDBRANCH  12  15
ENDBRANCH   7  11
BRANCH   1  22
ATOM     22  C   UNL     1      -1.658  11.298  23.212  0.00  0.00    +0.000 C 
BRANCH  22  24
ATOM     23  C   UNL     1      -0.291  13.161  22.159  0.00  0.00    +0.000 C 
ATOM     24  C   UNL     1      -1.429  12.802  23.108  0.00  0.00    +0.000 C 
ENDBRANCH  22  24
ENDBRANCH   1  22
TORSDOF 4
ENDMDL
MODEL 9
REMARK VINA RESULT:      -7.1      1.696      1.983
REMARK  Name = 
REMARK  5 active torsions:
REMARK  status: ('A' for Active; 'I' for Inactive)
REMARK    1  A    between atoms: C_1  and  C_2
REMARK    2  A    between atoms: C_2  and  C_3
REMARK    3  A    between atoms: C_3  and  C_4
REMARK    4  A    between atoms: C_10  and  N_11
REMARK    5  A    between atoms: C_12  and  C_14
REMARK                            x       y       z     vdW  Elec       q    Type
REMARK                         _______ _______ _______ _____ _____    ______ ____
ROOT
ATOM      1  C   UNL     1       4.365   3.053  18.581  0.00  0.00    +0.000 C 
ATOM      2  O   UNL     1       4.574   3.531  19.693  0.00  0.00    +0.000 OA
ATOM      3  N   UNL     1       4.757   3.614  17.383  0.00  0.00    +0.000 N 
ATOM      4  C   UNL     1       5.525   4.779  17.337  0.00  0.00    +0.000 A 
ATOM      5  C   UNL     1       6.601   4.949  18.195  0.00  0.00    +0.000 A 
ATOM      6  C   UNL     1       7.293   6.155  18.180  0.00  0.00    +0.000 A 
ATOM      7  C   UNL     1       6.890   7.182  17.329  0.00  0.00    +0.000 A 
ATOM      8  C   UNL     1       5.829   6.887  16.470  0.00  0.00    +0.000 A 
ATOM      9  N   UNL     1       5.164   5.699  16.424  0.00  0.00    +0.000 NA
ATOM     10  H   UNL     1       4.161   3.480  16.579  0.00  0.00    +0.000 HD
ENDROOT
BRANCH   7  11
ATOM     11  N   UNL     1       7.480   8.471  17.318  0.00  0.00    +0.000 N 
ATOM     12  C   UNL     1       8.396   8.939  18.248  0.00  0.00    +0.000 C 
ATOM     13  O   UNL     1       8.869   8.291  19.175  0.00  0.00    +0.000 OA
ATOM     14  H   UNL     1       7.217   9.079  16.553  0.00  0.00    +0.000 HD
BRANCH  12  15
ATOM     15  C   UNL     1       8.882  10.337  18.102  0.00  0.00    +0.000 A 
ATOM     16  C   UNL     1      10.223  10.714  18.262  0.00  0.00    +0.000 A 
ATOM     17  C   UNL     1      10.599  12.046  18.033  0.00  0.00    +0.000 A 
ATOM     18  C   UNL     1       9.652  12.990  17.644  0.00  0.00    +0.000 A 
ATOM     19  C   UNL     1       8.326  12.607  17.480  0.00  0.00    +0.000 A 
ATOM     20  F   UNL     1       7.418  13.507  17.092  0.00  0.00    +0.000 F 
ATOM     21  C   UNL     1       7.937  11.295  17.705  0.00  0.00    +0.000 A 
ENDBRANCH  12  15
ENDBRANCH   7  11
BRANCH   1  22
ATOM     22  C   UNL     1       3.645   1.731  18.437  0.00  0.00    +0.000 C 
BRANCH  22  24
ATOM     23  C   UNL     1       1.434   2.980  18.517  0.00  0.00    +0.000 C 
ATOM     24  C   UNL     1       2.264   1.912  17.813  0.00  0.00    +0.000 C 
ENDBRANCH  22  24
ENDBRANCH   1  22
TORSDOF 4
ENDMDL
