MODEL 1
REMARK VINA RESULT:      -8.5      0.000      0.000
REMARK  Name = 
REMARK  8 active torsions:
REMARK  status: ('A' for Active; 'I' for Inactive)
REMARK    1  A    between atoms: C_2  and  C_25
REMARK    2  A    between atoms: N_3  and  N_4
REMARK    3  A    between atoms: C_5  and  C_7
REMARK    4  A    between atoms: C_12  and  N_13
REMARK    5  A    between atoms: N_13  and  S_14
REMARK    6  A    between atoms: S_14  and  C_17
REMARK    7  A    between atoms: C_20  and  O_21
REMARK    8  A    between atoms: C_23  and  O_24
REMARK                            x       y       z     vdW  Elec       q    Type
REMARK                         _______ _______ _______ _____ _____    ______ ____
ROOT
ATOM      1  C   UNL     1       4.864   5.529  16.889  0.00  0.00    +0.000 A 
ATOM      2  C   UNL     1       5.116   6.319  15.750  0.00  0.00    +0.000 A 
ATOM      3  C   UNL     1       5.691   5.765  14.605  0.00  0.00    +0.000 A 
ATOM      4  C   UNL     1       6.067   4.427  14.592  0.00  0.00    +0.000 A 
ATOM      5  C   UNL     1       5.869   3.638  15.724  0.00  0.00    +0.000 A 
ATOM      6  C   UNL     1       5.270   4.171  16.873  0.00  0.00    +0.000 A 
ENDROOT
BRANCH   1   8
ATOM      7  N   UNL     1       3.198   7.080  17.834  0.00  0.00    +0.000 N 
ATOM      8  C   UNL     1       4.215   6.164  18.085  0.00  0.00    +0.000 C 
ATOM      9  O   UNL     1       4.590   5.871  19.219  0.00  0.00    +0.000 OA
ATOM     10  H   UNL     1       2.811   7.280  16.916  0.00  0.00    +0.000 HD
BRANCH   7  13
ATOM     11  O   UNL     1       2.000   9.531  17.628  0.00  0.00    +0.000 OA
ATOM     12  C   UNL     1       1.879   8.901  18.672  0.00  0.00    +0.000 C 
ATOM     13  N   UNL     1       2.525   7.694  18.899  0.00  0.00    +0.000 N 
ATOM     14  H   UNL     1       2.366   7.120  19.728  0.00  0.00    +0.000 HD
BRANCH  12  15
ATOM     15  C   UNL     1       1.051   9.440  19.791  0.00  0.00    +0.000 A 
ATOM     16  C   UNL     1       0.708   8.552  20.828  0.00  0.00    +0.000 A 
ATOM     17  C   UNL     1      -0.106   8.971  21.883  0.00  0.00    +0.000 A 
ATOM     18  C   UNL     1      -0.574  10.282  21.929  0.00  0.00    +0.000 A 
ATOM     19  C   UNL     1      -0.203  11.181  20.928  0.00  0.00    +0.000 A 
ATOM     20  C   UNL     1       0.614  10.768  19.866  0.00  0.00    +0.000 A 
ATOM     21 CL   UNL     1       1.079  11.987  18.731  0.00  0.00    +0.000 Cl
ENDBRANCH  12  15
ENDBRANCH   7  13
ENDBRANCH   1   8
BRANCH   6  22
ATOM     22  N   UNL     1       5.023   3.237  17.941  0.00  0.00    +0.000 N 
ATOM     23  H   UNL     1       5.100   3.646  18.884  0.00  0.00    +0.000 HD
BRANCH  22  24
ATOM     24  S   UNL     1       3.565   2.362  17.877  0.00  0.00    +0.000 S 
ATOM     25  O   UNL     1       2.790   2.920  16.790  0.00  0.00    +0.000 OA
ATOM     26  O   UNL     1       3.895   0.949  17.874  0.00  0.00    +0.000 OA
BRANCH  24  27
ATOM     27  C   UNL     1       2.693   2.678  19.363  0.00  0.00    +0.000 A 
ATOM     28  C   UNL     1       3.345   2.572  20.574  0.00  0.00    +0.000 A 
ATOM     29  N   UNL     1       2.715   2.555  21.775  0.00  0.00    +0.000 NA
ATOM     30  C   UNL     1       1.385   2.629  21.713  0.00  0.00    +0.000 A 
ATOM     31  N   UNL     1       0.638   2.744  20.615  0.00  0.00    +0.000 NA
ATOM     32  C   UNL     1       1.329   2.755  19.458  0.00  0.00    +0.000 A 
BRANCH  30  33
ATOM     33  O   UNL     1       0.744   2.506  22.905  0.00  0.00    +0.000 OA
ATOM     34  H   UNL     1       0.658   3.444  23.144  0.00  0.00    +0.000 HD
ENDBRANCH  30  33
BRANCH  32  35
ATOM     35  O   UNL     1       0.508   2.839  18.386  0.00  0.00    +0.000 OA
ATOM     36  H   UNL     1      -0.266   3.287  18.779  0.00  0.00    +0.000 HD
ENDBRANCH  32  35
ENDBRANCH  24  27
ENDBRANCH  22  24
ENDBRANCH   6  22
TORSDOF 8
ENDMDL
MODEL 2
REMARK VINA RESULT:      -8.4      2.620      5.615
REMARK  Name = 
REMARK  8 active torsions:
REMARK  status: ('A' for Active; 'I' for Inactive)
REMARK    1  A    between atoms: C_2  and  C_25
REMARK    2  A    between atoms: N_3  and  N_4
REMARK    3  A    between atoms: C_5  and  C_7
REMARK    4  A    between atoms: C_12  and  N_13
REMARK    5  A    between atoms: N_13  and  S_14
REMARK    6  A    between atoms: S_14  and  C_17
REMARK    7  A    between atoms: C_20  and  O_21
REMARK    8  A    between atoms: C_23  and  O_24
REMARK                            x       y       z     vdW  Elec       q    Type
REMARK                         _______ _______ _______ _____ _____    ______ ____
ROOT
ATOM      1  C   UNL     1       2.461   5.053  19.923  0.00  0.00    +0.000 A 
ATOM      2  C   UNL     1       1.981   4.724  21.205  0.00  0.00    +0.000 A 
ATOM      3  C   UNL     1       2.259   3.483  21.780  0.00  0.00    +0.000 A 
ATOM      4  C   UNL     1       2.980   2.532  21.069  0.00  0.00    +0.000 A 
ATOM      5  C   UNL     1       3.427   2.819  19.780  0.00  0.00    +0.000 A 
ATOM      6  C   UNL     1       3.179   4.070  19.198  0.00  0.00    +0.000 A 
ENDROOT
BRANCH   1   8
ATOM      7  N   UNL     1       1.867   7.419  20.276  0.00  0.00    +0.000 N 
ATOM      8  C   UNL     1       2.162   6.413  19.360  0.00  0.00    +0.000 C 
ATOM      9  O   UNL     1       2.180   6.595  18.145  0.00  0.00    +0.000 OA
ATOM     10  H   UNL     1       1.926   7.320  21.286  0.00  0.00    +0.000 HD
BRANCH   7  13
ATOM     11  O   UNL     1      -0.266   8.893  21.149  0.00  0.00    +0.000 OA
ATOM     12  C   UNL     1       0.544   9.417  20.394  0.00  0.00    +0.000 C 
ATOM     13  N   UNL     1       1.604   8.721  19.830  0.00  0.00    +0.000 N 
ATOM     14  H   UNL     1       2.331   9.165  19.269  0.00  0.00    +0.000 HD
BRANCH  12  15
ATOM     15  C   UNL     1       0.396  10.849  19.999  0.00  0.00    +0.000 A 
ATOM     16  C   UNL     1       1.117  11.804  20.741  0.00  0.00    +0.000 A 
ATOM     17  C   UNL     1       0.989  13.166  20.462  0.00  0.00    +0.000 A 
ATOM     18  C   UNL     1       0.156  13.595  19.432  0.00  0.00    +0.000 A 
ATOM     19  C   UNL     1      -0.528  12.654  18.663  0.00  0.00    +0.000 A 
ATOM     20  C   UNL     1      -0.405  11.284  18.935  0.00  0.00    +0.000 A 
ATOM     21 CL   UNL     1      -1.231  10.206  17.866  0.00  0.00    +0.000 Cl
ENDBRANCH  12  15
ENDBRANCH   7  13
ENDBRANCH   1   8
BRANCH   6  22
ATOM     22  N   UNL     1       3.777   4.288  17.906  0.00  0.00    +0.000 N 
ATOM     23  H   UNL     1       3.229   4.904  17.287  0.00  0.00    +0.000 HD
BRANCH  22  24
ATOM     24  S   UNL     1       5.388   4.837  17.886  0.00  0.00    +0.000 S 
ATOM     25  O   UNL     1       5.377   6.182  18.419  0.00  0.00    +0.000 OA
ATOM     26  O   UNL     1       6.211   3.821  18.513  0.00  0.00    +0.000 OA
BRANCH  24  27
ATOM     27  C   UNL     1       5.890   4.938  16.211  0.00  0.00    +0.000 A 
ATOM     28  C   UNL     1       5.356   4.069  15.283  0.00  0.00    +0.000 A 
ATOM     29  N   UNL     1       5.848   3.901  14.030  0.00  0.00    +0.000 NA
ATOM     30  C   UNL     1       6.925   4.634  13.746  0.00  0.00    +0.000 A 
ATOM     31  N   UNL     1       7.530   5.513  14.545  0.00  0.00    +0.000 NA
ATOM     32  C   UNL     1       6.988   5.630  15.773  0.00  0.00    +0.000 A 
BRANCH  30  33
ATOM     33  O   UNL     1       7.484   4.392  12.532  0.00  0.00    +0.000 OA
ATOM     34  H   UNL     1       6.708   4.054  12.057  0.00  0.00    +0.000 HD
ENDBRANCH  30  33
BRANCH  32  35
ATOM     35  O   UNL     1       7.671   6.512  16.539  0.00  0.00    +0.000 OA
ATOM     36  H   UNL     1       8.201   6.975  15.862  0.00  0.00    +0.000 HD
ENDBRANCH  32  35
ENDBRANCH  24  27
ENDBRANCH  22  24
ENDBRANCH   6  22
TORSDOF 8
ENDMDL
MODEL 3
REMARK VINA RESULT:      -8.4      2.579      5.575
REMARK  Name = 
REMARK  8 active torsions:
REMARK  status: ('A' for Active; 'I' for Inactive)
REMARK    1  A    between atoms: C_2  and  C_25
REMARK    2  A    between atoms: N_3  and  N_4
REMARK    3  A    between atoms: C_5  and  C_7
REMARK    4  A    between atoms: C_12  and  N_13
REMARK    5  A    between atoms: N_13  and  S_14
REMARK    6  A    between atoms: S_14  and  C_17
REMARK    7  A    between atoms: C_20  and  O_21
REMARK    8  A    between atoms: C_23  and  O_24
REMARK                            x       y       z     vdW  Elec       q    Type
REMARK                         _______ _______ _______ _____ _____    ______ ____
ROOT
ATOM      1  C   UNL     1       2.461   4.841  20.098  0.00  0.00    +0.000 A 
ATOM      2  C   UNL     1       2.071   4.202  21.291  0.00  0.00    +0.000 A 
ATOM      3  C   UNL     1       2.401   2.867  21.533  0.00  0.00    +0.000 A 
ATOM      4  C   UNL     1       3.085   2.134  20.571  0.00  0.00    +0.000 A 
ATOM      5  C   UNL     1       3.442   2.733  19.364  0.00  0.00    +0.000 A 
ATOM      6  C   UNL     1       3.140   4.079  19.115  0.00  0.00    +0.000 A 
ENDROOT
BRANCH   1   8
ATOM      7  N   UNL     1       1.703   6.995  21.025  0.00  0.00    +0.000 N 
ATOM      8  C   UNL     1       2.108   6.287  19.898  0.00  0.00    +0.000 C 
ATOM      9  O   UNL     1       2.180   6.790  18.778  0.00  0.00    +0.000 OA
ATOM     10  H   UNL     1       1.713   6.631  21.974  0.00  0.00    +0.000 HD
BRANCH   7  13
ATOM     11  O   UNL     1      -0.716   8.021  21.787  0.00  0.00    +0.000 OA
ATOM     12  C   UNL     1       0.161   8.792  21.414  0.00  0.00    +0.000 C 
ATOM     13  N   UNL     1       1.384   8.356  20.925  0.00  0.00    +0.000 N 
ATOM     14  H   UNL     1       2.151   8.986  20.691  0.00  0.00    +0.000 HD
BRANCH  12  15
ATOM     15  C   UNL     1      -0.072  10.266  21.423  0.00  0.00    +0.000 A 
ATOM     16  C   UNL     1      -0.604  10.830  22.598  0.00  0.00    +0.000 A 
ATOM     17  C   UNL     1      -0.896  12.194  22.663  0.00  0.00    +0.000 A 
ATOM     18  C   UNL     1      -0.646  13.017  21.568  0.00  0.00    +0.000 A 
ATOM     19  C   UNL     1      -0.078  12.475  20.415  0.00  0.00    +0.000 A 
ATOM     20  C   UNL     1       0.218  11.106  20.341  0.00  0.00    +0.000 A 
ATOM     21 CL   UNL     1       0.997  10.562  18.897  0.00  0.00    +0.000 Cl
ENDBRANCH  12  15
ENDBRANCH   7  13
ENDBRANCH   1   8
BRANCH   6  22
ATOM     22  N   UNL     1       3.648   4.615  17.879  0.00  0.00    +0.000 N 
ATOM     23  H   UNL     1       3.092   5.397  17.499  0.00  0.00    +0.000 HD
BRANCH  22  24
ATOM     24  S   UNL     1       5.283   5.089  17.859  0.00  0.00    +0.000 S 
ATOM     25  O   UNL     1       5.327   6.459  18.325  0.00  0.00    +0.000 OA
ATOM     26  O   UNL     1       6.049   4.069  18.549  0.00  0.00    +0.000 OA
BRANCH  24  27
ATOM     27  C   UNL     1       5.814   5.084  16.190  0.00  0.00    +0.000 A 
ATOM     28  C   UNL     1       5.216   4.231  15.285  0.00  0.00    +0.000 A 
ATOM     29  N   UNL     1       5.707   3.974  14.046  0.00  0.00    +0.000 NA
ATOM     30  C   UNL     1       6.849   4.598  13.754  0.00  0.00    +0.000 A 
ATOM     31  N   UNL     1       7.520   5.448  14.531  0.00  0.00    +0.000 NA
ATOM     32  C   UNL     1       6.975   5.657  15.746  0.00  0.00    +0.000 A 
BRANCH  30  33
ATOM     33  O   UNL     1       7.400   4.262  12.559  0.00  0.00    +0.000 OA
ATOM     34  H   UNL     1       7.625   5.147  12.227  0.00  0.00    +0.000 HD
ENDBRANCH  30  33
BRANCH  32  35
ATOM     35  O   UNL     1       7.724   6.503  16.490  0.00  0.00    +0.000 OA
ATOM     36  H   UNL     1       8.541   6.548  15.957  0.00  0.00    +0.000 HD
ENDBRANCH  32  35
ENDBRANCH  24  27
ENDBRANCH  22  24
ENDBRANCH   6  22
TORSDOF 8
ENDMDL
MODEL 4
REMARK VINA RESULT:      -8.3      2.661      5.603
REMARK  Name = 
REMARK  8 active torsions:
REMARK  status: ('A' for Active; 'I' for Inactive)
REMARK    1  A    between atoms: C_2  and  C_25
REMARK    2  A    between atoms: N_3  and  N_4
REMARK    3  A    between atoms: C_5  and  C_7
REMARK    4  A    between atoms: C_12  and  N_13
REMARK    5  A    between atoms: N_13  and  S_14
REMARK    6  A    between atoms: S_14  and  C_17
REMARK    7  A    between atoms: C_20  and  O_21
REMARK    8  A    between atoms: C_23  and  O_24
REMARK                            x       y       z     vdW  Elec       q    Type
REMARK                         _______ _______ _______ _____ _____    ______ ____
ROOT
ATOM      1  C   UNL     1       2.059   4.723  20.132  0.00  0.00    +0.000 A 
ATOM      2  C   UNL     1       1.338   4.180  21.214  0.00  0.00    +0.000 A 
ATOM      3  C   UNL     1       1.419   2.821  21.523  0.00  0.00    +0.000 A 
ATOM      4  C   UNL     1       2.183   1.972  20.731  0.00  0.00    +0.000 A 
ATOM      5  C   UNL     1       2.869   2.479  19.629  0.00  0.00    +0.000 A 
ATOM      6  C   UNL     1       2.819   3.845  19.319  0.00  0.00    +0.000 A 
ENDROOT
BRANCH   1   8
ATOM      7  N   UNL     1       1.607   7.010  20.931  0.00  0.00    +0.000 N 
ATOM      8  C   UNL     1       1.963   6.196  19.859  0.00  0.00    +0.000 C 
ATOM      9  O   UNL     1       2.189   6.630  18.732  0.00  0.00    +0.000 OA
ATOM     10  H   UNL     1       1.496   6.692  21.890  0.00  0.00    +0.000 HD
BRANCH   7  13
ATOM     11  O   UNL     1      -0.677   8.437  21.413  0.00  0.00    +0.000 OA
ATOM     12  C   UNL     1       0.346   9.043  21.112  0.00  0.00    +0.000 C 
ATOM     13  N   UNL     1       1.523   8.399  20.762  0.00  0.00    +0.000 N 
ATOM     14  H   UNL     1       2.402   8.890  20.592  0.00  0.00    +0.000 HD
BRANCH  12  15
ATOM     15  C   UNL     1       0.355  10.535  21.059  0.00  0.00    +0.000 A 
ATOM     16  C   UNL     1       1.049  11.140  19.994  0.00  0.00    +0.000 A 
ATOM     17  C   UNL     1       1.143  12.530  19.905  0.00  0.00    +0.000 A 
ATOM     18  C   UNL     1       0.535  13.336  20.864  0.00  0.00    +0.000 A 
ATOM     19  C   UNL     1      -0.192  12.746  21.898  0.00  0.00    +0.000 A 
ATOM     20  C   UNL     1      -0.292  11.351  21.995  0.00  0.00    +0.000 A 
ATOM     21 CL   UNL     1      -1.288  10.735  23.267  0.00  0.00    +0.000 Cl
ENDBRANCH  12  15
ENDBRANCH   7  13
ENDBRANCH   1   8
BRANCH   6  22
ATOM     22  N   UNL     1       3.649   4.269  18.221  0.00  0.00    +0.000 N 
ATOM     23  H   UNL     1       3.247   5.036  17.662  0.00  0.00    +0.000 HD
BRANCH  22  24
ATOM     24  S   UNL     1       5.258   4.687  18.588  0.00  0.00    +0.000 S 
ATOM     25  O   UNL     1       5.204   5.897  19.381  0.00  0.00    +0.000 OA
ATOM     26  O   UNL     1       5.913   3.507  19.119  0.00  0.00    +0.000 OA
BRANCH  24  27
ATOM     27  C   UNL     1       6.058   5.080  17.081  0.00  0.00    +0.000 A 
ATOM     28  C   UNL     1       5.333   5.629  16.044  0.00  0.00    +0.000 A 
ATOM     29  N   UNL     1       5.793   5.741  14.772  0.00  0.00    +0.000 NA
ATOM     30  C   UNL     1       7.018   5.256  14.574  0.00  0.00    +0.000 A 
ATOM     31  N   UNL     1       7.824   4.712  15.486  0.00  0.00    +0.000 NA
ATOM     32  C   UNL     1       7.303   4.633  16.727  0.00  0.00    +0.000 A 
BRANCH  30  33
ATOM     33  O   UNL     1       7.442   5.269  13.283  0.00  0.00    +0.000 OA
ATOM     34  H   UNL     1       8.273   4.774  13.377  0.00  0.00    +0.000 HD
ENDBRANCH  30  33
BRANCH  32  35
ATOM     35  O   UNL     1       8.159   4.042  17.591  0.00  0.00    +0.000 OA
ATOM     36  H   UNL     1       7.672   4.139  18.432  0.00  0.00    +0.000 HD
ENDBRANCH  32  35
ENDBRANCH  24  27
ENDBRANCH  22  24
ENDBRANCH   6  22
TORSDOF 8
ENDMDL
MODEL 5
REMARK VINA RESULT:      -8.3      2.817      5.374
REMARK  Name = 
REMARK  8 active torsions:
REMARK  status: ('A' for Active; 'I' for Inactive)
REMARK    1  A    between atoms: C_2  and  C_25
REMARK    2  A    between atoms: N_3  and  N_4
REMARK    3  A    between atoms: C_5  and  C_7
REMARK    4  A    between atoms: C_12  and  N_13
REMARK    5  A    between atoms: N_13  and  S_14
REMARK    6  A    between atoms: S_14  and  C_17
REMARK    7  A    between atoms: C_20  and  O_21
REMARK    8  A    between atoms: C_23  and  O_24
REMARK                            x       y       z     vdW  Elec       q    Type
REMARK                         _______ _______ _______ _____ _____    ______ ____
ROOT
ATOM      1  C   UNL     1       2.092   5.320  19.826  0.00  0.00    +0.000 A 
ATOM      2  C   UNL     1       1.286   4.662  20.775  0.00  0.00    +0.000 A 
ATOM      3  C   UNL     1       1.275   3.269  20.867  0.00  0.00    +0.000 A 
ATOM      4  C   UNL     1       2.033   2.507  19.985  0.00  0.00    +0.000 A 
ATOM      5  C   UNL     1       2.803   3.136  19.009  0.00  0.00    +0.000 A 
ATOM      6  C   UNL     1       2.845   4.534  18.918  0.00  0.00    +0.000 A 
ENDROOT
BRANCH   1   8
ATOM      7  N   UNL     1       1.588   7.477  20.906  0.00  0.00    +0.000 N 
ATOM      8  C   UNL     1       2.092   6.821  19.787  0.00  0.00    +0.000 C 
ATOM      9  O   UNL     1       2.518   7.412  18.797  0.00  0.00    +0.000 OA
ATOM     10  H   UNL     1       1.307   7.020  21.769  0.00  0.00    +0.000 HD
BRANCH   7  13
ATOM     11  O   UNL     1      -0.672   8.971  20.527  0.00  0.00    +0.000 OA
ATOM     12  C   UNL     1       0.368   9.542  20.834  0.00  0.00    +0.000 C 
ATOM     13  N   UNL     1       1.580   8.877  20.957  0.00  0.00    +0.000 N 
ATOM     14  H   UNL     1       2.433   9.325  21.293  0.00  0.00    +0.000 HD
BRANCH  12  15
ATOM     15  C   UNL     1       0.388  11.019  21.044  0.00  0.00    +0.000 A 
ATOM     16  C   UNL     1       1.158  11.790  20.152  0.00  0.00    +0.000 A 
ATOM     17  C   UNL     1       1.265  13.172  20.316  0.00  0.00    +0.000 A 
ATOM     18  C   UNL     1       0.596  13.808  21.358  0.00  0.00    +0.000 A 
ATOM     19  C   UNL     1      -0.205  13.059  22.221  0.00  0.00    +0.000 A 
ATOM     20  C   UNL     1      -0.318  11.670  22.063  0.00  0.00    +0.000 A 
ATOM     21 CL   UNL     1      -1.403  10.857  23.136  0.00  0.00    +0.000 Cl
ENDBRANCH  12  15
ENDBRANCH   7  13
ENDBRANCH   1   8
BRANCH   6  22
ATOM     22  N   UNL     1       3.754   5.071  17.939  0.00  0.00    +0.000 N 
ATOM     23  H   UNL     1       3.848   6.097  17.970  0.00  0.00    +0.000 HD
BRANCH  22  24
ATOM     24  S   UNL     1       5.323   4.411  17.902  0.00  0.00    +0.000 S 
ATOM     25  O   UNL     1       5.556   3.812  19.198  0.00  0.00    +0.000 OA
ATOM     26  O   UNL     1       5.435   3.601  16.704  0.00  0.00    +0.000 OA
BRANCH  24  27
ATOM     27  C   UNL     1       6.451   5.740  17.725  0.00  0.00    +0.000 A 
ATOM     28  C   UNL     1       7.427   5.939  18.679  0.00  0.00    +0.000 A 
ATOM     29  N   UNL     1       8.183   7.063  18.767  0.00  0.00    +0.000 NA
ATOM     30  C   UNL     1       7.904   8.000  17.861  0.00  0.00    +0.000 A 
ATOM     31  N   UNL     1       6.997   7.929  16.887  0.00  0.00    +0.000 NA
ATOM     32  C   UNL     1       6.283   6.786  16.858  0.00  0.00    +0.000 A 
BRANCH  30  33
ATOM     33  O   UNL     1       8.583   9.167  18.011  0.00  0.00    +0.000 OA
ATOM     34  H   UNL     1       9.492   8.827  18.037  0.00  0.00    +0.000 HD
ENDBRANCH  30  33
BRANCH  32  35
ATOM     35  O   UNL     1       5.362   6.797  15.868  0.00  0.00    +0.000 OA
ATOM     36  H   UNL     1       4.753   6.096  16.172  0.00  0.00    +0.000 HD
ENDBRANCH  32  35
ENDBRANCH  24  27
ENDBRANCH  22  24
ENDBRANCH   6  22
TORSDOF 8
ENDMDL
MODEL 6
REMARK VINA RESULT:      -8.3      2.683      5.654
REMARK  Name = 
REMARK  8 active torsions:
REMARK  status: ('A' for Active; 'I' for Inactive)
REMARK    1  A    between atoms: C_2  and  C_25
REMARK    2  A    between atoms: N_3  and  N_4
REMARK    3  A    between atoms: C_5  and  C_7
REMARK    4  A    between atoms: C_12  and  N_13
REMARK    5  A    between atoms: N_13  and  S_14
REMARK    6  A    between atoms: S_14  and  C_17
REMARK    7  A    between atoms: C_20  and  O_21
REMARK    8  A    between atoms: C_23  and  O_24
REMARK                            x       y       z     vdW  Elec       q    Type
REMARK                         _______ _______ _______ _____ _____    ______ ____
ROOT
ATOM      1  C   UNL     1       2.550   4.759  19.980  0.00  0.00    +0.000 A 
ATOM      2  C   UNL     1       2.164   4.238  21.230  0.00  0.00    +0.000 A 
ATOM      3  C   UNL     1       2.523   2.943  21.612  0.00  0.00    +0.000 A 
ATOM      4  C   UNL     1       3.233   2.132  20.736  0.00  0.00    +0.000 A 
ATOM      5  C   UNL     1       3.587   2.610  19.476  0.00  0.00    +0.000 A 
ATOM      6  C   UNL     1       3.257   3.916  19.086  0.00  0.00    +0.000 A 
ENDROOT
BRANCH   1   8
ATOM      7  N   UNL     1       1.976   7.048  20.689  0.00  0.00    +0.000 N 
ATOM      8  C   UNL     1       2.167   6.167  19.628  0.00  0.00    +0.000 C 
ATOM      9  O   UNL     1       2.029   6.493  18.451  0.00  0.00    +0.000 OA
ATOM     10  H   UNL     1       2.163   6.831  21.664  0.00  0.00    +0.000 HD
BRANCH   7  13
ATOM     11  O   UNL     1      -0.411   8.155  21.435  0.00  0.00    +0.000 OA
ATOM     12  C   UNL     1       0.442   8.877  20.932  0.00  0.00    +0.000 C 
ATOM     13  N   UNL     1       1.644   8.387  20.441  0.00  0.00    +0.000 N 
ATOM     14  H   UNL     1       2.395   8.986  20.097  0.00  0.00    +0.000 HD
BRANCH  12  15
ATOM     15  C   UNL     1       0.200  10.341  20.775  0.00  0.00    +0.000 A 
ATOM     16  C   UNL     1       0.544  10.925  19.541  0.00  0.00    +0.000 A 
ATOM     17  C   UNL     1       0.393  12.298  19.337  0.00  0.00    +0.000 A 
ATOM     18  C   UNL     1      -0.117  13.105  20.351  0.00  0.00    +0.000 A 
ATOM     19  C   UNL     1      -0.502  12.528  21.561  0.00  0.00    +0.000 A 
ATOM     20  C   UNL     1      -0.354  11.150  21.774  0.00  0.00    +0.000 A 
ATOM     21 CL   UNL     1      -0.942  10.534  23.278  0.00  0.00    +0.000 Cl
ENDBRANCH  12  15
ENDBRANCH   7  13
ENDBRANCH   1   8
BRANCH   6  22
ATOM     22  N   UNL     1       3.764   4.333  17.805  0.00  0.00    +0.000 N 
ATOM     23  H   UNL     1       3.144   4.984  17.299  0.00  0.00    +0.000 HD
BRANCH  22  24
ATOM     24  S   UNL     1       5.334   4.990  17.774  0.00  0.00    +0.000 S 
ATOM     25  O   UNL     1       5.221   6.363  18.217  0.00  0.00    +0.000 OA
ATOM     26  O   UNL     1       6.211   4.075  18.480  0.00  0.00    +0.000 OA
BRANCH  24  27
ATOM     27  C   UNL     1       5.863   5.017  16.105  0.00  0.00    +0.000 A 
ATOM     28  C   UNL     1       5.301   4.146  15.195  0.00  0.00    +0.000 A 
ATOM     29  N   UNL     1       5.801   3.917  13.955  0.00  0.00    +0.000 NA
ATOM     30  C   UNL     1       6.915   4.590  13.666  0.00  0.00    +0.000 A 
ATOM     31  N   UNL     1       7.550   5.464  14.447  0.00  0.00    +0.000 NA
ATOM     32  C   UNL     1       6.999   5.642  15.664  0.00  0.00    +0.000 A 
BRANCH  30  33
ATOM     33  O   UNL     1       7.479   4.286  12.468  0.00  0.00    +0.000 OA
ATOM     34  H   UNL     1       8.342   3.959  12.770  0.00  0.00    +0.000 HD
ENDBRANCH  30  33
BRANCH  32  35
ATOM     35  O   UNL     1       7.712   6.514  16.413  0.00  0.00    +0.000 OA
ATOM     36  H   UNL     1       7.522   7.354  15.952  0.00  0.00    +0.000 HD
ENDBRANCH  32  35
ENDBRANCH  24  27
ENDBRANCH  22  24
ENDBRANCH   6  22
TORSDOF 8
ENDMDL
MODEL 7
REMARK VINA RESULT:      -8.2      1.013      1.314
REMARK  Name = 
REMARK  8 active torsions:
REMARK  status: ('A' for Active; 'I' for Inactive)
REMARK    1  A    between atoms: C_2  and  C_25
REMARK    2  A    between atoms: N_3  and  N_4
REMARK    3  A    between atoms: C_5  and  C_7
REMARK    4  A    between atoms: C_12  and  N_13
REMARK    5  A    between atoms: N_13  and  S_14
REMARK    6  A    between atoms: S_14  and  C_17
REMARK    7  A    between atoms: C_20  and  O_21
REMARK    8  A    between atoms: C_23  and  O_24
REMARK                            x       y       z     vdW  Elec       q    Type
REMARK                         _______ _______ _______ _____ _____    ______ ____
ROOT
ATOM      1  C   UNL     1       4.860   5.640  16.817  0.00  0.00    +0.000 A 
ATOM      2  C   UNL     1       5.190   6.376  15.663  0.00  0.00    +0.000 A 
ATOM      3  C   UNL     1       5.974   5.816  14.652  0.00  0.00    +0.000 A 
ATOM      4  C   UNL     1       6.479   4.529  14.796  0.00  0.00    +0.000 A 
ATOM      5  C   UNL     1       6.202   3.798  15.950  0.00  0.00    +0.000 A 
ATOM      6  C   UNL     1       5.396   4.336  16.963  0.00  0.00    +0.000 A 
ENDROOT
BRANCH   1   8
ATOM      7  N   UNL     1       3.049   7.201  17.415  0.00  0.00    +0.000 N 
ATOM      8  C   UNL     1       3.989   6.276  17.861  0.00  0.00    +0.000 C 
ATOM      9  O   UNL     1       4.127   5.977  19.046  0.00  0.00    +0.000 OA
ATOM     10  H   UNL     1       2.855   7.407  16.439  0.00  0.00    +0.000 HD
BRANCH   7  13
ATOM     11  O   UNL     1       2.528   9.887  17.397  0.00  0.00    +0.000 OA
ATOM     12  C   UNL     1       1.917   9.172  18.184  0.00  0.00    +0.000 C 
ATOM     13  N   UNL     1       2.181   7.817  18.326  0.00  0.00    +0.000 N 
ATOM     14  H   UNL     1       1.624   7.197  18.915  0.00  0.00    +0.000 HD
BRANCH  12  15
ATOM     15  C   UNL     1       0.873   9.751  19.080  0.00  0.00    +0.000 A 
ATOM     16  C   UNL     1      -0.017  10.685  18.518  0.00  0.00    +0.000 A 
ATOM     17  C   UNL     1      -0.988  11.306  19.306  0.00  0.00    +0.000 A 
ATOM     18  C   UNL     1      -1.097  10.995  20.659  0.00  0.00    +0.000 A 
ATOM     19  C   UNL     1      -0.248  10.037  21.215  0.00  0.00    +0.000 A 
ATOM     20  C   UNL     1       0.729   9.408  20.430  0.00  0.00    +0.000 A 
ATOM     21 CL   UNL     1       1.667   8.179  21.204  0.00  0.00    +0.000 Cl
ENDBRANCH  12  15
ENDBRANCH   7  13
ENDBRANCH   1   8
BRANCH   6  22
ATOM     22  N   UNL     1       5.095   3.452  18.059  0.00  0.00    +0.000 N 
ATOM     23  H   UNL     1       5.090   3.912  18.982  0.00  0.00    +0.000 HD
BRANCH  22  24
ATOM     24  S   UNL     1       3.669   2.531  17.936  0.00  0.00    +0.000 S 
ATOM     25  O   UNL     1       2.900   3.095  16.848  0.00  0.00    +0.000 OA
ATOM     26  O   UNL     1       4.047   1.131  17.900  0.00  0.00    +0.000 OA
BRANCH  24  27
ATOM     27  C   UNL     1       2.754   2.774  19.409  0.00  0.00    +0.000 A 
ATOM     28  C   UNL     1       3.364   2.585  20.632  0.00  0.00    +0.000 A 
ATOM     29  N   UNL     1       2.695   2.508  21.810  0.00  0.00    +0.000 NA
ATOM     30  C   UNL     1       1.369   2.609  21.710  0.00  0.00    +0.000 A 
ATOM     31  N   UNL     1       0.661   2.801  20.597  0.00  0.00    +0.000 NA
ATOM     32  C   UNL     1       1.389   2.868  19.466  0.00  0.00    +0.000 A 
BRANCH  30  33
ATOM     33  O   UNL     1       0.688   2.426  22.871  0.00  0.00    +0.000 OA
ATOM     34  H   UNL     1      -0.223   2.476  22.537  0.00  0.00    +0.000 HD
ENDBRANCH  30  33
BRANCH  32  35
ATOM     35  O   UNL     1       0.605   3.030  18.376  0.00  0.00    +0.000 OA
ATOM     36  H   UNL     1       0.929   3.888  18.038  0.00  0.00    +0.000 HD
ENDBRANCH  32  35
ENDBRANCH  24  27
ENDBRANCH  22  24
ENDBRANCH   6  22
TORSDOF 8
ENDMDL
MODEL 8
REMARK VINA RESULT:      -8.2      2.701      5.295
REMARK  Name = 
REMARK  8 active torsions:
REMARK  status: ('A' for Active; 'I' for Inactive)
REMARK    1  A    between atoms: C_2  and  C_25
REMARK    2  A    between atoms: N_3  and  N_4
REMARK    3  A    between atoms: C_5  and  C_7
REMARK    4  A    between atoms: C_12  and  N_13
REMARK    5  A    between atoms: N_13  and  S_14
REMARK    6  A    between atoms: S_14  and  C_17
REMARK    7  A    between atoms: C_20  and  O_21
REMARK    8  A    between atoms: C_23  and  O_24
REMARK                            x       y       z     vdW  Elec       q    Type
REMARK                         _______ _______ _______ _____ _____    ______ ____
ROOT
ATOM      1  C   UNL     1       2.142   4.936  19.858  0.00  0.00    +0.000 A 
ATOM      2  C   UNL     1       1.386   4.142  20.744  0.00  0.00    +0.000 A 
ATOM      3  C   UNL     1       1.576   2.761  20.811  0.00  0.00    +0.000 A 
ATOM      4  C   UNL     1       2.488   2.141  19.966  0.00  0.00    +0.000 A 
ATOM      5  C   UNL     1       3.214   2.901  19.050  0.00  0.00    +0.000 A 
ATOM      6  C   UNL     1       3.055   4.292  18.986  0.00  0.00    +0.000 A 
ENDROOT
BRANCH   1   8
ATOM      7  N   UNL     1       1.497   7.003  21.036  0.00  0.00    +0.000 N 
ATOM      8  C   UNL     1       1.923   6.421  19.845  0.00  0.00    +0.000 C 
ATOM      9  O   UNL     1       2.114   7.063  18.814  0.00  0.00    +0.000 OA
ATOM     10  H   UNL     1       1.411   6.513  21.922  0.00  0.00    +0.000 HD
BRANCH   7  13
ATOM     11  O   UNL     1      -0.959   8.137  21.443  0.00  0.00    +0.000 OA
ATOM     12  C   UNL     1       0.028   8.864  21.403  0.00  0.00    +0.000 C 
ATOM     13  N   UNL     1       1.298   8.388  21.111  0.00  0.00    +0.000 N 
ATOM     14  H   UNL     1       2.137   8.966  21.156  0.00  0.00    +0.000 HD
BRANCH  12  15
ATOM     15  C   UNL     1      -0.105  10.334  21.621  0.00  0.00    +0.000 A 
ATOM     16  C   UNL     1      -0.753  10.758  22.797  0.00  0.00    +0.000 A 
ATOM     17  C   UNL     1      -0.958  12.117  23.045  0.00  0.00    +0.000 A 
ATOM     18  C   UNL     1      -0.508  13.071  22.136  0.00  0.00    +0.000 A 
ATOM     19  C   UNL     1       0.174  12.662  20.990  0.00  0.00    +0.000 A 
ATOM     20  C   UNL     1       0.385  11.300  20.733  0.00  0.00    +0.000 A 
ATOM     21 CL   UNL     1       1.314  10.914  19.327  0.00  0.00    +0.000 Cl
ENDBRANCH  12  15
ENDBRANCH   7  13
ENDBRANCH   1   8
BRANCH   6  22
ATOM     22  N   UNL     1       3.931   4.981  18.075  0.00  0.00    +0.000 N 
ATOM     23  H   UNL     1       3.981   5.999  18.228  0.00  0.00    +0.000 HD
BRANCH  22  24
ATOM     24  S   UNL     1       5.526   4.399  17.953  0.00  0.00    +0.000 S 
ATOM     25  O   UNL     1       5.845   3.782  19.222  0.00  0.00    +0.000 OA
ATOM     26  O   UNL     1       5.623   3.624  16.731  0.00  0.00    +0.000 OA
BRANCH  24  27
ATOM     27  C   UNL     1       6.581   5.785  17.762  0.00  0.00    +0.000 A 
ATOM     28  C   UNL     1       7.538   6.052  18.719  0.00  0.00    +0.000 A 
ATOM     29  N   UNL     1       8.231   7.217  18.794  0.00  0.00    +0.000 NA
ATOM     30  C   UNL     1       7.907   8.124  17.872  0.00  0.00    +0.000 A 
ATOM     31  N   UNL     1       7.012   7.988  16.893  0.00  0.00    +0.000 NA
ATOM     32  C   UNL     1       6.362   6.808  16.878  0.00  0.00    +0.000 A 
BRANCH  30  33
ATOM     33  O   UNL     1       8.520   9.328  18.007  0.00  0.00    +0.000 OA
ATOM     34  H   UNL     1       8.461   9.436  18.970  0.00  0.00    +0.000 HD
ENDBRANCH  30  33
BRANCH  32  35
ATOM     35  O   UNL     1       5.448   6.752  15.882  0.00  0.00    +0.000 OA
ATOM     36  H   UNL     1       4.688   6.352  16.348  0.00  0.00    +0.000 HD
ENDBRANCH  32  35
ENDBRANCH  24  27
ENDBRANCH  22  24
ENDBRANCH   6  22
TORSDOF 8
ENDMDL
MODEL 9
REMARK VINA RESULT:      -8.1      2.695      5.183
REMARK  Name = 
REMARK  8 active torsions:
REMARK  status: ('A' for Active; 'I' for Inactive)
REMARK    1  A    between atoms: C_2  and  C_25
REMARK    2  A    between atoms: N_3  and  N_4
REMARK    3  A    between atoms: C_5  and  C_7
REMARK    4  A    between atoms: C_12  and  N_13
REMARK    5  A    between atoms: N_13  and  S_14
REMARK    6  A    between atoms: S_14  and  C_17
REMARK    7  A    between atoms: C_20  and  O_21
REMARK    8  A    between atoms: C_23  and  O_24
REMARK                            x       y       z     vdW  Elec       q    Type
REMARK                         _______ _______ _______ _____ _____    ______ ____
ROOT
ATOM      1  C   UNL     1       1.940   4.774  19.337  0.00  0.00    +0.000 A 
ATOM      2  C   UNL     1       1.007   3.942  19.985  0.00  0.00    +0.000 A 
ATOM      3  C   UNL     1       0.908   2.587  19.665  0.00  0.00    +0.000 A 
ATOM      4  C   UNL     1       1.704   2.049  18.662  0.00  0.00    +0.000 A 
ATOM      5  C   UNL     1       2.604   2.864  17.976  0.00  0.00    +0.000 A 
ATOM      6  C   UNL     1       2.734   4.221  18.302  0.00  0.00    +0.000 A 
ENDROOT
BRANCH   1   8
ATOM      7  N   UNL     1       2.244   7.141  18.718  0.00  0.00    +0.000 N 
ATOM      8  C   UNL     1       2.030   6.218  19.738  0.00  0.00    +0.000 C 
ATOM      9  O   UNL     1       1.922   6.538  20.921  0.00  0.00    +0.000 OA
ATOM     10  H   UNL     1       2.255   6.917  17.726  0.00  0.00    +0.000 HD
BRANCH   7  13
ATOM     11  O   UNL     1       0.987   9.050  17.216  0.00  0.00    +0.000 OA
ATOM     12  C   UNL     1       1.572   9.393  18.237  0.00  0.00    +0.000 C 
ATOM     13  N   UNL     1       2.312   8.509  19.009  0.00  0.00    +0.000 N 
ATOM     14  H   UNL     1       2.734   8.764  19.903  0.00  0.00    +0.000 HD
BRANCH  12  15
ATOM     15  C   UNL     1       1.557  10.819  18.677  0.00  0.00    +0.000 A 
ATOM     16  C   UNL     1       2.407  11.714  18.000  0.00  0.00    +0.000 A 
ATOM     17  C   UNL     1       2.484  13.053  18.388  0.00  0.00    +0.000 A 
ATOM     18  C   UNL     1       1.705  13.523  19.443  0.00  0.00    +0.000 A 
ATOM     19  C   UNL     1       0.827  12.653  20.090  0.00  0.00    +0.000 A 
ATOM     20  C   UNL     1       0.743  11.307  19.706  0.00  0.00    +0.000 A 
ATOM     21 CL   UNL     1      -0.438  10.344  20.522  0.00  0.00    +0.000 Cl
ENDBRANCH  12  15
ENDBRANCH   7  13
ENDBRANCH   1   8
BRANCH   6  22
ATOM     22  N   UNL     1       3.766   4.937  17.597  0.00  0.00    +0.000 N 
ATOM     23  H   UNL     1       3.823   5.938  17.838  0.00  0.00    +0.000 HD
BRANCH  22  24
ATOM     24  S   UNL     1       5.341   4.296  17.679  0.00  0.00    +0.000 S 
ATOM     25  O   UNL     1       5.474   3.679  18.980  0.00  0.00    +0.000 OA
ATOM     26  O   UNL     1       5.562   3.508  16.481  0.00  0.00    +0.000 OA
BRANCH  24  27
ATOM     27  C   UNL     1       6.462   5.641  17.617  0.00  0.00    +0.000 A 
ATOM     28  C   UNL     1       7.369   5.823  18.640  0.00  0.00    +0.000 A 
ATOM     29  N   UNL     1       8.103   6.951  18.811  0.00  0.00    +0.000 NA
ATOM     30  C   UNL     1       7.874   7.911  17.916  0.00  0.00    +0.000 A 
ATOM     31  N   UNL     1       7.037   7.859  16.880  0.00  0.00    +0.000 NA
ATOM     32  C   UNL     1       6.341   6.711  16.770  0.00  0.00    +0.000 A 
BRANCH  30  33
ATOM     33  O   UNL     1       8.527   9.081  18.144  0.00  0.00    +0.000 OA
ATOM     34  H   UNL     1       8.494   9.102  19.114  0.00  0.00    +0.000 HD
ENDBRANCH  30  33
BRANCH  32  35
ATOM     35  O   UNL     1       5.489   6.740  15.720  0.00  0.00    +0.000 OA
ATOM     36  H   UNL     1       6.111   6.868  14.978  0.00  0.00    +0.000 HD
ENDBRANCH  32  35
ENDBRANCH  24  27
ENDBRANCH  22  24
ENDBRANCH   6  22
TORSDOF 8
ENDMDL
