MODEL 1
REMARK VINA RESULT:      -7.1      0.000      0.000
REMARK  Name = 
REMARK  5 active torsions:
REMARK  status: ('A' for Active; 'I' for Inactive)
REMARK    1  A    between atoms: C_1  and  O_2
REMARK    2  A    between atoms: O_2  and  C_3
REMARK    3  A    between atoms: C_6  and  C_7
REMARK    4  A    between atoms: C_7  and  N_8
REMARK    5  A    between atoms: C_12  and  C_13
REMARK                            x       y       z     vdW  Elec       q    Type
REMARK                         _______ _______ _______ _____ _____    ______ ____
ROOT
ATOM      1  N   UNL     1       2.538   7.522  19.311  0.00  0.00    +0.000 NA
ATOM      2  C   UNL     1       2.117   7.964  17.970  0.00  0.00    +0.000 C 
ATOM      3  C   UNL     1       1.658   9.421  17.922  0.00  0.00    +0.000 C 
ATOM      4  C   UNL     1       0.536   9.661  18.920  0.00  0.00    +0.000 C 
ATOM      5  C   UNL     1       1.050   9.332  20.320  0.00  0.00    +0.000 C 
ATOM      6  C   UNL     1       1.587   7.893  20.376  0.00  0.00    +0.000 C 
ENDROOT
BRANCH   5   7
ATOM      7  C   UNL     1      -0.053   9.448  21.371  0.00  0.00    +0.000 C 
ATOM      8  O   UNL     1      -0.654   8.445  21.756  0.00  0.00    +0.000 OA
ATOM      9  N   UNL     1      -0.276  10.698  21.945  0.00  0.00    +0.000 N 
ATOM     10  C   UNL     1      -1.107  10.787  23.147  0.00  0.00    +0.000 C 
ATOM     11  C   UNL     1      -2.200  11.840  22.992  0.00  0.00    +0.000 C 
ATOM     12  C   UNL     1      -1.614  13.185  22.569  0.00  0.00    +0.000 C 
ATOM     13  C   UNL     1      -0.767  13.028  21.310  0.00  0.00    +0.000 C 
ATOM     14  C   UNL     1       0.311  11.965  21.502  0.00  0.00    +0.000 C 
ENDBRANCH   5   7
BRANCH   1  15
ATOM     15  C   UNL     1       2.727   6.046  19.345  0.00  0.00    +0.000 C 
BRANCH  15  19
ATOM     16  C   UNL     1       5.661   4.468  16.571  0.00  0.00    +0.000 A 
ATOM     17  C   UNL     1       5.991   5.521  17.424  0.00  0.00    +0.000 A 
ATOM     18  C   UNL     1       5.058   6.018  18.335  0.00  0.00    +0.000 A 
ATOM     19  C   UNL     1       3.762   5.502  18.376  0.00  0.00    +0.000 A 
ATOM     20  C   UNL     1       3.443   4.424  17.538  0.00  0.00    +0.000 A 
ATOM     21  C   UNL     1       4.384   3.920  16.627  0.00  0.00    +0.000 A 
BRANCH  16  23
ATOM     22  C   UNL     1       6.630   4.614  14.412  0.00  0.00    +0.000 C 
ATOM     23  O   UNL     1       6.668   4.085  15.730  0.00  0.00    +0.000 OA
ENDBRANCH  16  23
ENDBRANCH  15  19
ENDBRANCH   1  15
TORSDOF 4
ENDMDL
MODEL 2
REMARK VINA RESULT:      -7.1      0.182      1.019
REMARK  Name = 
REMARK  5 active torsions:
REMARK  status: ('A' for Active; 'I' for Inactive)
REMARK    1  A    between atoms: C_1  and  O_2
REMARK    2  A    between atoms: O_2  and  C_3
REMARK    3  A    between atoms: C_6  and  C_7
REMARK    4  A    between atoms: C_7  and  N_8
REMARK    5  A    between atoms: C_12  and  C_13
REMARK                            x       y       z     vdW  Elec       q    Type
REMARK                         _______ _______ _______ _____ _____    ______ ____
ROOT
ATOM      1  N   UNL     1       2.597   7.430  19.317  0.00  0.00    +0.000 NA
ATOM      2  C   UNL     1       2.169   7.826  17.963  0.00  0.00    +0.000 C 
ATOM      3  C   UNL     1       1.696   9.276  17.870  0.00  0.00    +0.000 C 
ATOM      4  C   UNL     1       0.574   9.537  18.864  0.00  0.00    +0.000 C 
ATOM      5  C   UNL     1       1.094   9.257  20.272  0.00  0.00    +0.000 C 
ATOM      6  C   UNL     1       1.645   7.825  20.372  0.00  0.00    +0.000 C 
ENDROOT
BRANCH   5   7
ATOM      7  C   UNL     1      -0.008   9.396  21.322  0.00  0.00    +0.000 C 
ATOM      8  O   UNL     1      -0.638   8.407  21.698  0.00  0.00    +0.000 OA
ATOM      9  N   UNL     1      -0.197  10.647  21.904  0.00  0.00    +0.000 N 
ATOM     10  C   UNL     1      -1.028  10.750  23.106  0.00  0.00    +0.000 C 
ATOM     11  C   UNL     1      -2.091  11.834  22.957  0.00  0.00    +0.000 C 
ATOM     12  C   UNL     1      -1.467  13.165  22.545  0.00  0.00    +0.000 C 
ATOM     13  C   UNL     1      -0.622  12.995  21.287  0.00  0.00    +0.000 C 
ATOM     14  C   UNL     1       0.426  11.900  21.473  0.00  0.00    +0.000 C 
ENDBRANCH   5   7
BRANCH   1  15
ATOM     15  C   UNL     1       2.800   5.958  19.396  0.00  0.00    +0.000 C 
BRANCH  15  19
ATOM     16  C   UNL     1       5.589   4.333  16.504  0.00  0.00    +0.000 A 
ATOM     17  C   UNL     1       4.296   3.821  16.600  0.00  0.00    +0.000 A 
ATOM     18  C   UNL     1       3.386   4.356  17.514  0.00  0.00    +0.000 A 
ATOM     19  C   UNL     1       3.769   5.380  18.381  0.00  0.00    +0.000 A 
ATOM     20  C   UNL     1       5.061   5.912  18.260  0.00  0.00    +0.000 A 
ATOM     21  C   UNL     1       5.973   5.379  17.336  0.00  0.00    +0.000 A 
BRANCH  16  23
ATOM     22  C   UNL     1       6.398   4.298  14.275  0.00  0.00    +0.000 C 
ATOM     23  O   UNL     1       6.374   3.714  15.570  0.00  0.00    +0.000 OA
ENDBRANCH  16  23
ENDBRANCH  15  19
ENDBRANCH   1  15
TORSDOF 4
ENDMDL
MODEL 3
REMARK VINA RESULT:      -7.0      5.943      7.132
REMARK  Name = 
REMARK  5 active torsions:
REMARK  status: ('A' for Active; 'I' for Inactive)
REMARK    1  A    between atoms: C_1  and  O_2
REMARK    2  A    between atoms: O_2  and  C_3
REMARK    3  A    between atoms: C_6  and  C_7
REMARK    4  A    between atoms: C_7  and  N_8
REMARK    5  A    between atoms: C_12  and  C_13
REMARK                            x       y       z     vdW  Elec       q    Type
REMARK                         _______ _______ _______ _____ _____    ______ ____
ROOT
ATOM      1  N   UNL     1       7.155   4.926  16.840  0.00  0.00    +0.000 NA
ATOM      2  C   UNL     1       7.572   5.870  17.892  0.00  0.00    +0.000 C 
ATOM      3  C   UNL     1       7.079   5.489  19.287  0.00  0.00    +0.000 C 
ATOM      4  C   UNL     1       5.565   5.341  19.297  0.00  0.00    +0.000 C 
ATOM      5  C   UNL     1       5.175   4.251  18.300  0.00  0.00    +0.000 C 
ATOM      6  C   UNL     1       5.724   4.575  16.901  0.00  0.00    +0.000 C 
ENDROOT
BRANCH   5   7
ATOM      7  C   UNL     1       3.658   4.115  18.175  0.00  0.00    +0.000 C 
ATOM      8  O   UNL     1       3.062   4.632  17.229  0.00  0.00    +0.000 OA
ATOM      9  N   UNL     1       2.999   3.306  19.098  0.00  0.00    +0.000 N 
ATOM     10  C   UNL     1       1.612   2.920  18.837  0.00  0.00    +0.000 C 
ATOM     11  C   UNL     1       0.718   3.203  20.040  0.00  0.00    +0.000 C 
ATOM     12  C   UNL     1       1.286   2.573  21.310  0.00  0.00    +0.000 C 
ATOM     13  C   UNL     1       2.727   3.019  21.530  0.00  0.00    +0.000 C 
ATOM     14  C   UNL     1       3.588   2.723  20.306  0.00  0.00    +0.000 C 
ENDBRANCH   5   7
BRANCH   1  15
ATOM     15  C   UNL     1       7.444   5.480  15.489  0.00  0.00    +0.000 C 
BRANCH  15  19
ATOM     16  C   UNL     1       5.634   3.366  12.166  0.00  0.00    +0.000 A 
ATOM     17  C   UNL     1       4.915   3.578  13.342  0.00  0.00    +0.000 A 
ATOM     18  C   UNL     1       5.485   4.278  14.407  0.00  0.00    +0.000 A 
ATOM     19  C   UNL     1       6.801   4.737  14.331  0.00  0.00    +0.000 A 
ATOM     20  C   UNL     1       7.509   4.549  13.137  0.00  0.00    +0.000 A 
ATOM     21  C   UNL     1       6.933   3.851  12.064  0.00  0.00    +0.000 A 
BRANCH  16  23
ATOM     22  C   UNL     1       3.654   3.132  10.881  0.00  0.00    +0.000 C 
ATOM     23  O   UNL     1       4.955   2.664  11.208  0.00  0.00    +0.000 OA
ENDBRANCH  16  23
ENDBRANCH  15  19
ENDBRANCH   1  15
TORSDOF 4
ENDMDL
MODEL 4
REMARK VINA RESULT:      -6.9      2.785      4.846
REMARK  Name = 
REMARK  5 active torsions:
REMARK  status: ('A' for Active; 'I' for Inactive)
REMARK    1  A    between atoms: C_1  and  O_2
REMARK    2  A    between atoms: O_2  and  C_3
REMARK    3  A    between atoms: C_6  and  C_7
REMARK    4  A    between atoms: C_7  and  N_8
REMARK    5  A    between atoms: C_12  and  C_13
REMARK                            x       y       z     vdW  Elec       q    Type
REMARK                         _______ _______ _______ _____ _____    ______ ____
ROOT
ATOM      1  N   UNL     1       4.466   4.048  17.949  0.00  0.00    +0.000 NA
ATOM      2  C   UNL     1       3.878   2.701  18.054  0.00  0.00    +0.000 C 
ATOM      3  C   UNL     1       2.353   2.691  17.958  0.00  0.00    +0.000 C 
ATOM      4  C   UNL     1       1.744   3.603  19.012  0.00  0.00    +0.000 C 
ATOM      5  C   UNL     1       2.261   5.022  18.787  0.00  0.00    +0.000 C 
ATOM      6  C   UNL     1       3.799   5.048  18.805  0.00  0.00    +0.000 C 
ENDROOT
BRANCH   5   7
ATOM      7  C   UNL     1       1.777   5.982  19.873  0.00  0.00    +0.000 C 
ATOM      8  O   UNL     1       1.366   5.548  20.949  0.00  0.00    +0.000 OA
ATOM      9  N   UNL     1       1.915   7.349  19.641  0.00  0.00    +0.000 N 
ATOM     10  C   UNL     1       1.740   8.277  20.760  0.00  0.00    +0.000 C 
ATOM     11  C   UNL     1       0.761   9.393  20.411  0.00  0.00    +0.000 C 
ATOM     12  C   UNL     1       1.159  10.089  19.112  0.00  0.00    +0.000 C 
ATOM     13  C   UNL     1       1.318   9.073  17.986  0.00  0.00    +0.000 C 
ATOM     14  C   UNL     1       2.302   7.972  18.374  0.00  0.00    +0.000 C 
ENDBRANCH   5   7
BRANCH   1  15
ATOM     15  C   UNL     1       5.912   4.021  18.301  0.00  0.00    +0.000 C 
BRANCH  15  19
ATOM     16  C   UNL     1       7.985   7.816  18.000  0.00  0.00    +0.000 A 
ATOM     17  C   UNL     1       6.993   7.479  17.079  0.00  0.00    +0.000 A 
ATOM     18  C   UNL     1       6.306   6.269  17.185  0.00  0.00    +0.000 A 
ATOM     19  C   UNL     1       6.633   5.352  18.186  0.00  0.00    +0.000 A 
ATOM     20  C   UNL     1       7.610   5.707  19.126  0.00  0.00    +0.000 A 
ATOM     21  C   UNL     1       8.295   6.928  19.024  0.00  0.00    +0.000 A 
BRANCH  16  23
ATOM     22  C   UNL     1       8.854   9.821  18.922  0.00  0.00    +0.000 C 
ATOM     23  O   UNL     1       8.577   9.028  17.775  0.00  0.00    +0.000 OA
ENDBRANCH  16  23
ENDBRANCH  15  19
ENDBRANCH   1  15
TORSDOF 4
ENDMDL
MODEL 5
REMARK VINA RESULT:      -6.9      2.776      4.776
REMARK  Name = 
REMARK  5 active torsions:
REMARK  status: ('A' for Active; 'I' for Inactive)
REMARK    1  A    between atoms: C_1  and  O_2
REMARK    2  A    between atoms: O_2  and  C_3
REMARK    3  A    between atoms: C_6  and  C_7
REMARK    4  A    between atoms: C_7  and  N_8
REMARK    5  A    between atoms: C_12  and  C_13
REMARK                            x       y       z     vdW  Elec       q    Type
REMARK                         _______ _______ _______ _____ _____    ______ ____
ROOT
ATOM      1  N   UNL     1       4.505   4.257  17.435  0.00  0.00    +0.000 NA
ATOM      2  C   UNL     1       3.824   2.951  17.378  0.00  0.00    +0.000 C 
ATOM      3  C   UNL     1       2.303   3.057  17.284  0.00  0.00    +0.000 C 
ATOM      4  C   UNL     1       1.751   3.877  18.441  0.00  0.00    +0.000 C 
ATOM      5  C   UNL     1       2.367   5.273  18.386  0.00  0.00    +0.000 C 
ATOM      6  C   UNL     1       3.902   5.191  18.405  0.00  0.00    +0.000 C 
ENDROOT
BRANCH   5   7
ATOM      7  C   UNL     1       1.942   6.128  19.580  0.00  0.00    +0.000 C 
ATOM      8  O   UNL     1       1.700   5.602  20.667  0.00  0.00    +0.000 OA
ATOM      9  N   UNL     1       1.941   7.512  19.422  0.00  0.00    +0.000 N 
ATOM     10  C   UNL     1       1.829   8.359  20.610  0.00  0.00    +0.000 C 
ATOM     11  C   UNL     1       0.728   9.403  20.449  0.00  0.00    +0.000 C 
ATOM     12  C   UNL     1       0.910  10.201  19.160  0.00  0.00    +0.000 C 
ATOM     13  C   UNL     1       1.013   9.265  17.960  0.00  0.00    +0.000 C 
ATOM     14  C   UNL     1       2.121   8.234  18.160  0.00  0.00    +0.000 C 
ENDBRANCH   5   7
BRANCH   1  15
ATOM     15  C   UNL     1       5.943   4.088  17.779  0.00  0.00    +0.000 C 
BRANCH  15  19
ATOM     16  C   UNL     1       8.124   7.780  18.408  0.00  0.00    +0.000 A 
ATOM     17  C   UNL     1       8.326   6.690  19.253  0.00  0.00    +0.000 A 
ATOM     18  C   UNL     1       7.643   5.491  19.042  0.00  0.00    +0.000 A 
ATOM     19  C   UNL     1       6.711   5.377  18.009  0.00  0.00    +0.000 A 
ATOM     20  C   UNL     1       6.534   6.466  17.144  0.00  0.00    +0.000 A 
ATOM     21  C   UNL     1       7.226   7.669  17.353  0.00  0.00    +0.000 A 
BRANCH  16  23
ATOM     22  C   UNL     1       8.612  10.057  17.960  0.00  0.00    +0.000 C 
ATOM     23  O   UNL     1       8.855   8.890  18.733  0.00  0.00    +0.000 OA
ENDBRANCH  16  23
ENDBRANCH  15  19
ENDBRANCH   1  15
TORSDOF 4
ENDMDL
MODEL 6
REMARK VINA RESULT:      -6.7      1.880      8.969
REMARK  Name = 
REMARK  5 active torsions:
REMARK  status: ('A' for Active; 'I' for Inactive)
REMARK    1  A    between atoms: C_1  and  O_2
REMARK    2  A    between atoms: O_2  and  C_3
REMARK    3  A    between atoms: C_6  and  C_7
REMARK    4  A    between atoms: C_7  and  N_8
REMARK    5  A    between atoms: C_12  and  C_13
REMARK                            x       y       z     vdW  Elec       q    Type
REMARK                         _______ _______ _______ _____ _____    ______ ____
ROOT
ATOM      1  N   UNL     1       2.365   7.057  19.798  0.00  0.00    +0.000 NA
ATOM      2  C   UNL     1       1.449   6.237  20.612  0.00  0.00    +0.000 C 
ATOM      3  C   UNL     1       1.974   4.830  20.893  0.00  0.00    +0.000 C 
ATOM      4  C   UNL     1       2.295   4.108  19.593  0.00  0.00    +0.000 C 
ATOM      5  C   UNL     1       3.355   4.909  18.840  0.00  0.00    +0.000 C 
ATOM      6  C   UNL     1       2.880   6.353  18.608  0.00  0.00    +0.000 C 
ENDROOT
BRANCH   5   7
ATOM      7  C   UNL     1       3.656   4.303  17.469  0.00  0.00    +0.000 C 
ATOM      8  O   UNL     1       2.873   3.502  16.957  0.00  0.00    +0.000 OA
ATOM      9  N   UNL     1       4.779   4.765  16.787  0.00  0.00    +0.000 N 
ATOM     10  C   UNL     1       4.932   4.431  15.370  0.00  0.00    +0.000 C 
ATOM     11  C   UNL     1       6.309   3.841  15.082  0.00  0.00    +0.000 C 
ATOM     12  C   UNL     1       7.419   4.751  15.606  0.00  0.00    +0.000 C 
ATOM     13  C   UNL     1       7.207   5.055  17.085  0.00  0.00    +0.000 C 
ATOM     14  C   UNL     1       5.819   5.639  17.333  0.00  0.00    +0.000 C 
ENDBRANCH   5   7
BRANCH   1  15
ATOM     15  C   UNL     1       1.695   8.308  19.349  0.00  0.00    +0.000 C 
BRANCH  15  19
ATOM     16  C   UNL     1      -0.462  10.491  22.410  0.00  0.00    +0.000 A 
ATOM     17  C   UNL     1       0.470   9.516  22.764  0.00  0.00    +0.000 A 
ATOM     18  C   UNL     1       1.185   8.826  21.783  0.00  0.00    +0.000 A 
ATOM     19  C   UNL     1       0.944   9.065  20.429  0.00  0.00    +0.000 A 
ATOM     20  C   UNL     1       0.028  10.067  20.079  0.00  0.00    +0.000 A 
ATOM     21  C   UNL     1      -0.685  10.765  21.066  0.00  0.00    +0.000 A 
BRANCH  16  23
ATOM     22  C   UNL     1      -2.223  11.886  23.169  0.00  0.00    +0.000 C 
ATOM     23  O   UNL     1      -1.089  11.084  23.471  0.00  0.00    +0.000 OA
ENDBRANCH  16  23
ENDBRANCH  15  19
ENDBRANCH   1  15
TORSDOF 4
ENDMDL
MODEL 7
REMARK VINA RESULT:      -6.7      5.806      7.046
REMARK  Name = 
REMARK  5 active torsions:
REMARK  status: ('A' for Active; 'I' for Inactive)
REMARK    1  A    between atoms: C_1  and  O_2
REMARK    2  A    between atoms: O_2  and  C_3
REMARK    3  A    between atoms: C_6  and  C_7
REMARK    4  A    between atoms: C_7  and  N_8
REMARK    5  A    between atoms: C_12  and  C_13
REMARK                            x       y       z     vdW  Elec       q    Type
REMARK                         _______ _______ _______ _____ _____    ______ ____
ROOT
ATOM      1  N   UNL     1       7.173   4.941  16.842  0.00  0.00    +0.000 NA
ATOM      2  C   UNL     1       7.680   5.865  17.873  0.00  0.00    +0.000 C 
ATOM      3  C   UNL     1       7.205   5.526  19.285  0.00  0.00    +0.000 C 
ATOM      4  C   UNL     1       5.685   5.475  19.341  0.00  0.00    +0.000 C 
ATOM      5  C   UNL     1       5.198   4.405  18.365  0.00  0.00    +0.000 C 
ATOM      6  C   UNL     1       5.724   4.683  16.948  0.00  0.00    +0.000 C 
ENDROOT
BRANCH   5   7
ATOM      7  C   UNL     1       3.672   4.365  18.285  0.00  0.00    +0.000 C 
ATOM      8  O   UNL     1       3.075   5.027  17.435  0.00  0.00    +0.000 OA
ATOM      9  N   UNL     1       2.999   3.482  19.127  0.00  0.00    +0.000 N 
ATOM     10  C   UNL     1       1.584   3.204  18.875  0.00  0.00    +0.000 C 
ATOM     11  C   UNL     1       0.748   3.380  20.139  0.00  0.00    +0.000 C 
ATOM     12  C   UNL     1       1.322   2.567  21.297  0.00  0.00    +0.000 C 
ATOM     13  C   UNL     1       2.792   2.906  21.514  0.00  0.00    +0.000 C 
ATOM     14  C   UNL     1       3.594   2.721  20.228  0.00  0.00    +0.000 C 
ENDBRANCH   5   7
BRANCH   1  15
ATOM     15  C   UNL     1       7.457   5.466  15.479  0.00  0.00    +0.000 C 
BRANCH  15  19
ATOM     16  C   UNL     1       5.461   3.359  12.258  0.00  0.00    +0.000 A 
ATOM     17  C   UNL     1       6.778   3.793  12.108  0.00  0.00    +0.000 A 
ATOM     18  C   UNL     1       7.433   4.451  13.150  0.00  0.00    +0.000 A 
ATOM     19  C   UNL     1       6.766   4.730  14.344  0.00  0.00    +0.000 A 
ATOM     20  C   UNL     1       5.453   4.266  14.502  0.00  0.00    +0.000 A 
ATOM     21  C   UNL     1       4.797   3.598  13.456  0.00  0.00    +0.000 A 
BRANCH  16  23
ATOM     22  C   UNL     1       3.660   3.166  10.727  0.00  0.00    +0.000 C 
ATOM     23  O   UNL     1       4.943   2.733  11.159  0.00  0.00    +0.000 OA
ENDBRANCH  16  23
ENDBRANCH  15  19
ENDBRANCH   1  15
TORSDOF 4
ENDMDL
MODEL 8
REMARK VINA RESULT:      -6.7      2.466      8.868
REMARK  Name = 
REMARK  5 active torsions:
REMARK  status: ('A' for Active; 'I' for Inactive)
REMARK    1  A    between atoms: C_1  and  O_2
REMARK    2  A    between atoms: O_2  and  C_3
REMARK    3  A    between atoms: C_6  and  C_7
REMARK    4  A    between atoms: C_7  and  N_8
REMARK    5  A    between atoms: C_12  and  C_13
REMARK                            x       y       z     vdW  Elec       q    Type
REMARK                         _______ _______ _______ _____ _____    ______ ____
ROOT
ATOM      1  N   UNL     1       1.181   8.700  20.081  0.00  0.00    +0.000 NA
ATOM      2  C   UNL     1       1.609   9.672  19.059  0.00  0.00    +0.000 C 
ATOM      3  C   UNL     1       1.825   9.054  17.678  0.00  0.00    +0.000 C 
ATOM      4  C   UNL     1       2.826   7.910  17.755  0.00  0.00    +0.000 C 
ATOM      5  C   UNL     1       2.283   6.851  18.712  0.00  0.00    +0.000 C 
ATOM      6  C   UNL     1       1.987   7.465  20.090  0.00  0.00    +0.000 C 
ENDROOT
BRANCH   5   7
ATOM      7  C   UNL     1       3.283   5.714  18.924  0.00  0.00    +0.000 C 
ATOM      8  O   UNL     1       4.493   5.930  18.863  0.00  0.00    +0.000 OA
ATOM      9  N   UNL     1       2.781   4.467  19.289  0.00  0.00    +0.000 N 
ATOM     10  C   UNL     1       3.709   3.448  19.783  0.00  0.00    +0.000 C 
ATOM     11  C   UNL     1       3.529   2.125  19.044  0.00  0.00    +0.000 C 
ATOM     12  C   UNL     1       2.071   1.671  19.073  0.00  0.00    +0.000 C 
ATOM     13  C   UNL     1       1.158   2.770  18.541  0.00  0.00    +0.000 C 
ATOM     14  C   UNL     1       1.369   4.077  19.301  0.00  0.00    +0.000 C 
ENDBRANCH   5   7
BRANCH   1  15
ATOM     15  C   UNL     1       1.234   9.304  21.439  0.00  0.00    +0.000 C 
BRANCH  15  19
ATOM     16  C   UNL     1      -1.962  12.092  22.335  0.00  0.00    +0.000 A 
ATOM     17  C   UNL     1      -1.586  11.127  23.269  0.00  0.00    +0.000 A 
ATOM     18  C   UNL     1      -0.542  10.242  22.995  0.00  0.00    +0.000 A 
ATOM     19  C   UNL     1       0.112  10.275  21.763  0.00  0.00    +0.000 A 
ATOM     20  C   UNL     1      -0.249  11.265  20.839  0.00  0.00    +0.000 A 
ATOM     21  C   UNL     1      -1.294  12.160  21.118  0.00  0.00    +0.000 A 
BRANCH  16  23
ATOM     22  C   UNL     1      -3.727  12.460  23.876  0.00  0.00    +0.000 C 
ATOM     23  O   UNL     1      -2.999  12.889  22.733  0.00  0.00    +0.000 OA
ENDBRANCH  16  23
ENDBRANCH  15  19
ENDBRANCH   1  15
TORSDOF 4
ENDMDL
MODEL 9
REMARK VINA RESULT:      -6.6      5.513      6.999
REMARK  Name = 
REMARK  5 active torsions:
REMARK  status: ('A' for Active; 'I' for Inactive)
REMARK    1  A    between atoms: C_1  and  O_2
REMARK    2  A    between atoms: O_2  and  C_3
REMARK    3  A    between atoms: C_6  and  C_7
REMARK    4  A    between atoms: C_7  and  N_8
REMARK    5  A    between atoms: C_12  and  C_13
REMARK                            x       y       z     vdW  Elec       q    Type
REMARK                         _______ _______ _______ _____ _____    ______ ____
ROOT
ATOM      1  N   UNL     1       6.654   5.172  16.498  0.00  0.00    +0.000 NA
ATOM      2  C   UNL     1       7.418   5.929  17.505  0.00  0.00    +0.000 C 
ATOM      3  C   UNL     1       7.146   5.485  18.942  0.00  0.00    +0.000 C 
ATOM      4  C   UNL     1       5.660   5.566  19.254  0.00  0.00    +0.000 C 
ATOM      5  C   UNL     1       4.907   4.656  18.285  0.00  0.00    +0.000 C 
ATOM      6  C   UNL     1       5.223   5.036  16.829  0.00  0.00    +0.000 C 
ENDROOT
BRANCH   5   7
ATOM      7  C   UNL     1       3.393   4.763  18.466  0.00  0.00    +0.000 C 
ATOM      8  O   UNL     1       2.757   5.640  17.882  0.00  0.00    +0.000 OA
ATOM      9  N   UNL     1       2.758   3.779  19.222  0.00  0.00    +0.000 N 
ATOM     10  C   UNL     1       1.298   3.682  19.172  0.00  0.00    +0.000 C 
ATOM     11  C   UNL     1       0.693   3.653  20.572  0.00  0.00    +0.000 C 
ATOM     12  C   UNL     1       1.337   2.564  21.428  0.00  0.00    +0.000 C 
ATOM     13  C   UNL     1       2.853   2.724  21.446  0.00  0.00    +0.000 C 
ATOM     14  C   UNL     1       3.420   2.753  20.029  0.00  0.00    +0.000 C 
ENDBRANCH   5   7
BRANCH   1  15
ATOM     15  C   UNL     1       6.766   5.812  15.160  0.00  0.00    +0.000 C 
BRANCH  15  19
ATOM     16  C   UNL     1       6.621   3.113  11.771  0.00  0.00    +0.000 A 
ATOM     17  C   UNL     1       5.715   2.974  12.822  0.00  0.00    +0.000 A 
ATOM     18  C   UNL     1       5.743   3.855  13.905  0.00  0.00    +0.000 A 
ATOM     19  C   UNL     1       6.707   4.860  13.978  0.00  0.00    +0.000 A 
ATOM     20  C   UNL     1       7.596   5.015  12.905  0.00  0.00    +0.000 A 
ATOM     21  C   UNL     1       7.563   4.134  11.813  0.00  0.00    +0.000 A 
BRANCH  16  23
ATOM     22  C   UNL     1       6.171   0.858  11.192  0.00  0.00    +0.000 C 
ATOM     23  O   UNL     1       6.482   2.182  10.779  0.00  0.00    +0.000 OA
ENDBRANCH  16  23
ENDBRANCH  15  19
ENDBRANCH   1  15
TORSDOF 4
ENDMDL
