MODEL 1
REMARK VINA RESULT:      -7.6      0.000      0.000
REMARK  Name = 
REMARK  5 active torsions:
REMARK  status: ('A' for Active; 'I' for Inactive)
REMARK    1  A    between atoms: C_1  and  C_2
REMARK    2  A    between atoms: C_5  and  C_6
REMARK    3  A    between atoms: N_10  and  C_11
REMARK    4  A    between atoms: C_11  and  C_12
REMARK    5  A    between atoms: N_18  and  C_19
REMARK                            x       y       z     vdW  Elec       q    Type
REMARK                         _______ _______ _______ _____ _____    ______ ____
ROOT
ATOM      1  C   UNL     1       3.053   6.475  18.542  0.00  0.00    +0.000 C 
ATOM      2  C   UNL     1       2.850   6.659  20.039  0.00  0.00    +0.000 C 
ATOM      3  C   UNL     1       1.643   7.501  20.417  0.00  0.00    +0.000 C 
ATOM      4  N   UNL     1       1.385   8.706  19.629  0.00  0.00    +0.000 N 
ATOM      5  C   UNL     1       0.350   9.500  20.150  0.00  0.00    +0.000 C 
ATOM      6  O   UNL     1      -0.129   9.229  21.254  0.00  0.00    +0.000 OA
ATOM      7  N   UNL     1      -0.102  10.534  19.353  0.00  0.00    +0.000 N 
ATOM      8  C   UNL     1       1.860   8.787  18.254  0.00  0.00    +0.000 C 
ATOM      9  C   UNL     1       3.002   7.851  17.859  0.00  0.00    +0.000 C 
ATOM     10  H   UNL     1       0.249  10.593  18.412  0.00  0.00    +0.000 HD
ENDROOT
BRANCH   7  11
ATOM     11  C   UNL     1      -1.178  11.412  19.668  0.00  0.00    +0.000 A 
ATOM     12  C   UNL     1      -1.135  12.335  20.718  0.00  0.00    +0.000 A 
ATOM     13  C   UNL     1      -2.246  13.125  21.033  0.00  0.00    +0.000 A 
ATOM     14  C   UNL     1      -3.414  13.010  20.294  0.00  0.00    +0.000 A 
ATOM     15  C   UNL     1      -3.463  12.125  19.217  0.00  0.00    +0.000 A 
ATOM     16  C   UNL     1      -2.348  11.336  18.900  0.00  0.00    +0.000 A 
ENDBRANCH   7  11
BRANCH   1  17
ATOM     17  C   UNL     1       2.159   5.396  17.878  0.00  0.00    +0.000 C 
BRANCH  17  23
ATOM     18  C   UNL     1       0.807   2.619  18.740  0.00  0.00    +0.000 C 
ATOM     19  C   UNL     1       2.177   2.857  18.221  0.00  0.00    +0.000 A 
ATOM     20  C   UNL     1       3.188   1.928  18.116  0.00  0.00    +0.000 A 
ATOM     21  N   UNL     1       4.259   2.461  17.472  0.00  0.00    +0.000 NA
ATOM     22  C   UNL     1       3.934   3.707  17.193  0.00  0.00    +0.000 A 
ATOM     23  N   UNL     1       2.693   4.037  17.718  0.00  0.00    +0.000 N 
BRANCH  22  24
ATOM     24  C   UNL     1       4.835   4.548  16.296  0.00  0.00    +0.000 C 
ATOM     25  C   UNL     1       6.116   5.152  16.956  0.00  0.00    +0.000 C 
ATOM     26  C   UNL     1       6.889   4.719  15.694  0.00  0.00    +0.000 C 
ATOM     27  C   UNL     1       5.831   3.618  15.526  0.00  0.00    +0.000 C 
ENDBRANCH  22  24
ENDBRANCH  17  23
ENDBRANCH   1  17
TORSDOF 4
ENDMDL
MODEL 2
REMARK VINA RESULT:      -7.2      1.307      3.094
REMARK  Name = 
REMARK  5 active torsions:
REMARK  status: ('A' for Active; 'I' for Inactive)
REMARK    1  A    between atoms: C_1  and  C_2
REMARK    2  A    between atoms: C_5  and  C_6
REMARK    3  A    between atoms: N_10  and  C_11
REMARK    4  A    between atoms: C_11  and  C_12
REMARK    5  A    between atoms: N_18  and  C_19
REMARK                            x       y       z     vdW  Elec       q    Type
REMARK                         _______ _______ _______ _____ _____    ______ ____
ROOT
ATOM      1  C   UNL     1       2.776   7.520  18.510  0.00  0.00    +0.000 C 
ATOM      2  C   UNL     1       2.503   7.761  19.988  0.00  0.00    +0.000 C 
ATOM      3  C   UNL     1       1.154   8.392  20.289  0.00  0.00    +0.000 C 
ATOM      4  N   UNL     1       0.704   9.477  19.418  0.00  0.00    +0.000 N 
ATOM      5  C   UNL     1      -0.471  10.101  19.868  0.00  0.00    +0.000 C 
ATOM      6  O   UNL     1      -0.923   9.819  20.981  0.00  0.00    +0.000 OA
ATOM      7  N   UNL     1      -1.081  10.982  18.995  0.00  0.00    +0.000 N 
ATOM      8  C   UNL     1       1.193   9.553  18.047  0.00  0.00    +0.000 C 
ATOM      9  C   UNL     1       2.496   8.818  17.734  0.00  0.00    +0.000 C 
ATOM     10  H   UNL     1      -0.721  11.043  18.057  0.00  0.00    +0.000 HD
ENDROOT
BRANCH   7  11
ATOM     11  C   UNL     1      -2.305  11.667  19.233  0.00  0.00    +0.000 A 
ATOM     12  C   UNL     1      -2.471  12.615  20.250  0.00  0.00    +0.000 A 
ATOM     13  C   UNL     1      -3.715  13.208  20.490  0.00  0.00    +0.000 A 
ATOM     14  C   UNL     1      -4.810  12.870  19.708  0.00  0.00    +0.000 A 
ATOM     15  C   UNL     1      -4.655  11.958  18.664  0.00  0.00    +0.000 A 
ATOM     16  C   UNL     1      -3.408  11.367  18.421  0.00  0.00    +0.000 A 
ENDBRANCH   7  11
BRANCH   1  17
ATOM     17  C   UNL     1       2.110   6.256  17.909  0.00  0.00    +0.000 C 
BRANCH  17  23
ATOM     18  C   UNL     1       4.885   5.635  16.427  0.00  0.00    +0.000 C 
ATOM     19  C   UNL     1       3.984   4.691  17.133  0.00  0.00    +0.000 A 
ATOM     20  C   UNL     1       4.112   3.321  17.190  0.00  0.00    +0.000 A 
ATOM     21  N   UNL     1       3.191   2.791  18.036  0.00  0.00    +0.000 NA
ATOM     22  C   UNL     1       2.484   3.807  18.489  0.00  0.00    +0.000 A 
ATOM     23  N   UNL     1       2.868   4.999  17.890  0.00  0.00    +0.000 N 
BRANCH  22  24
ATOM     24  C   UNL     1       1.480   3.597  19.616  0.00  0.00    +0.000 C 
ATOM     25  C   UNL     1       1.498   2.204  20.322  0.00  0.00    +0.000 C 
ATOM     26  C   UNL     1       1.389   2.957  21.663  0.00  0.00    +0.000 C 
ATOM     27  C   UNL     1       2.074   4.137  20.959  0.00  0.00    +0.000 C 
ENDBRANCH  22  24
ENDBRANCH  17  23
ENDBRANCH   1  17
TORSDOF 4
ENDMDL
MODEL 3
REMARK VINA RESULT:      -7.2      2.488      9.748
REMARK  Name = 
REMARK  5 active torsions:
REMARK  status: ('A' for Active; 'I' for Inactive)
REMARK    1  A    between atoms: C_1  and  C_2
REMARK    2  A    between atoms: C_5  and  C_6
REMARK    3  A    between atoms: N_10  and  C_11
REMARK    4  A    between atoms: C_11  and  C_12
REMARK    5  A    between atoms: N_18  and  C_19
REMARK                            x       y       z     vdW  Elec       q    Type
REMARK                         _______ _______ _______ _____ _____    ______ ____
ROOT
ATOM      1  C   UNL     1       0.317  10.192  20.078  0.00  0.00    +0.000 C 
ATOM      2  C   UNL     1       0.364   8.844  20.783  0.00  0.00    +0.000 C 
ATOM      3  C   UNL     1       1.576   7.993  20.443  0.00  0.00    +0.000 C 
ATOM      4  N   UNL     1       2.000   7.947  19.044  0.00  0.00    +0.000 N 
ATOM      5  C   UNL     1       3.023   7.014  18.803  0.00  0.00    +0.000 C 
ATOM      6  O   UNL     1       3.357   6.232  19.697  0.00  0.00    +0.000 OA
ATOM      7  N   UNL     1       3.630   7.063  17.563  0.00  0.00    +0.000 N 
ATOM      8  C   UNL     1       1.688   9.060  18.157  0.00  0.00    +0.000 C 
ATOM      9  C   UNL     1       0.536   9.974  18.572  0.00  0.00    +0.000 C 
ATOM     10  H   UNL     1       3.390   7.824  16.949  0.00  0.00    +0.000 HD
ENDROOT
BRANCH   7  11
ATOM     11  C   UNL     1       4.721   6.250  17.144  0.00  0.00    +0.000 A 
ATOM     12  C   UNL     1       4.569   4.940  16.676  0.00  0.00    +0.000 A 
ATOM     13  C   UNL     1       5.680   4.157  16.344  0.00  0.00    +0.000 A 
ATOM     14  C   UNL     1       6.960   4.678  16.465  0.00  0.00    +0.000 A 
ATOM     15  C   UNL     1       7.129   5.995  16.890  0.00  0.00    +0.000 A 
ATOM     16  C   UNL     1       6.016   6.781  17.219  0.00  0.00    +0.000 A 
ENDBRANCH   7  11
BRANCH   1  17
ATOM     17  C   UNL     1       1.203  11.299  20.702  0.00  0.00    +0.000 C 
BRANCH  17  23
ATOM     18  C   UNL     1       1.763  13.528  18.466  0.00  0.00    +0.000 C 
ATOM     19  C   UNL     1       1.091  13.687  19.779  0.00  0.00    +0.000 A 
ATOM     20  C   UNL     1       0.673  14.868  20.350  0.00  0.00    +0.000 A 
ATOM     21  N   UNL     1      -0.024  14.625  21.491  0.00  0.00    +0.000 NA
ATOM     22  C   UNL     1      -0.029  13.317  21.644  0.00  0.00    +0.000 A 
ATOM     23  N   UNL     1       0.729  12.688  20.665  0.00  0.00    +0.000 N 
BRANCH  22  24
ATOM     24  C   UNL     1      -0.891  12.677  22.725  0.00  0.00    +0.000 C 
ATOM     25  C   UNL     1      -1.815  13.635  23.545  0.00  0.00    +0.000 C 
ATOM     26  C   UNL     1      -2.933  12.586  23.385  0.00  0.00    +0.000 C 
ATOM     27  C   UNL     1      -2.223  12.149  22.095  0.00  0.00    +0.000 C 
ENDBRANCH  22  24
ENDBRANCH  17  23
ENDBRANCH   1  17
TORSDOF 4
ENDMDL
MODEL 4
REMARK VINA RESULT:      -7.1      2.676      9.192
REMARK  Name = 
REMARK  5 active torsions:
REMARK  status: ('A' for Active; 'I' for Inactive)
REMARK    1  A    between atoms: C_1  and  C_2
REMARK    2  A    between atoms: C_5  and  C_6
REMARK    3  A    between atoms: N_10  and  C_11
REMARK    4  A    between atoms: C_11  and  C_12
REMARK    5  A    between atoms: N_18  and  C_19
REMARK                            x       y       z     vdW  Elec       q    Type
REMARK                         _______ _______ _______ _____ _____    ______ ____
ROOT
ATOM      1  C   UNL     1       0.301  10.097  20.212  0.00  0.00    +0.000 C 
ATOM      2  C   UNL     1       0.317   8.710  20.839  0.00  0.00    +0.000 C 
ATOM      3  C   UNL     1       1.532   7.869  20.486  0.00  0.00    +0.000 C 
ATOM      4  N   UNL     1       1.996   7.899  19.099  0.00  0.00    +0.000 N 
ATOM      5  C   UNL     1       3.018   6.972  18.833  0.00  0.00    +0.000 C 
ATOM      6  O   UNL     1       3.321   6.137  19.690  0.00  0.00    +0.000 OA
ATOM      7  N   UNL     1       3.661   7.086  17.616  0.00  0.00    +0.000 N 
ATOM      8  C   UNL     1       1.719   9.064  18.268  0.00  0.00    +0.000 C 
ATOM      9  C   UNL     1       0.562   9.964  18.703  0.00  0.00    +0.000 C 
ATOM     10  H   UNL     1       3.445   7.884  17.041  0.00  0.00    +0.000 HD
ENDROOT
BRANCH   7  11
ATOM     11  C   UNL     1       4.758   6.289  17.182  0.00  0.00    +0.000 A 
ATOM     12  C   UNL     1       4.613   4.993  16.673  0.00  0.00    +0.000 A 
ATOM     13  C   UNL     1       5.728   4.223  16.327  0.00  0.00    +0.000 A 
ATOM     14  C   UNL     1       7.006   4.743  16.475  0.00  0.00    +0.000 A 
ATOM     15  C   UNL     1       7.169   6.047  16.942  0.00  0.00    +0.000 A 
ATOM     16  C   UNL     1       6.051   6.820  17.285  0.00  0.00    +0.000 A 
ENDBRANCH   7  11
BRANCH   1  17
ATOM     17  C   UNL     1       1.178  11.159  20.924  0.00  0.00    +0.000 C 
BRANCH  17  23
ATOM     18  C   UNL     1      -1.205  12.060  22.871  0.00  0.00    +0.000 C 
ATOM     19  C   UNL     1      -0.489  12.868  21.853  0.00  0.00    +0.000 A 
ATOM     20  C   UNL     1      -0.795  14.152  21.461  0.00  0.00    +0.000 A 
ATOM     21  N   UNL     1       0.152  14.628  20.611  0.00  0.00    +0.000 NA
ATOM     22  C   UNL     1       1.027  13.655  20.457  0.00  0.00    +0.000 A 
ATOM     23  N   UNL     1       0.631  12.506  21.126  0.00  0.00    +0.000 N 
BRANCH  22  24
ATOM     24  C   UNL     1       2.332  13.912  19.714  0.00  0.00    +0.000 C 
ATOM     25  C   UNL     1       2.398  13.440  18.225  0.00  0.00    +0.000 C 
ATOM     26  C   UNL     1       3.065  14.791  17.896  0.00  0.00    +0.000 C 
ATOM     27  C   UNL     1       2.323  15.358  19.115  0.00  0.00    +0.000 C 
ENDBRANCH  22  24
ENDBRANCH  17  23
ENDBRANCH   1  17
TORSDOF 4
ENDMDL
MODEL 5
REMARK VINA RESULT:      -7.0      4.035      7.206
REMARK  Name = 
REMARK  5 active torsions:
REMARK  status: ('A' for Active; 'I' for Inactive)
REMARK    1  A    between atoms: C_1  and  C_2
REMARK    2  A    between atoms: C_5  and  C_6
REMARK    3  A    between atoms: N_10  and  C_11
REMARK    4  A    between atoms: C_11  and  C_12
REMARK    5  A    between atoms: N_18  and  C_19
REMARK                            x       y       z     vdW  Elec       q    Type
REMARK                         _______ _______ _______ _____ _____    ______ ____
ROOT
ATOM      1  C   UNL     1       4.806   4.099  16.286  0.00  0.00    +0.000 C 
ATOM      2  C   UNL     1       5.959   3.730  17.209  0.00  0.00    +0.000 C 
ATOM      3  C   UNL     1       6.586   4.905  17.940  0.00  0.00    +0.000 C 
ATOM      4  N   UNL     1       6.803   6.137  17.182  0.00  0.00    +0.000 N 
ATOM      5  C   UNL     1       7.531   7.106  17.892  0.00  0.00    +0.000 C 
ATOM      6  O   UNL     1       8.044   6.811  18.975  0.00  0.00    +0.000 OA
ATOM      7  N   UNL     1       7.589   8.370  17.337  0.00  0.00    +0.000 N 
ATOM      8  C   UNL     1       5.966   6.432  16.026  0.00  0.00    +0.000 C 
ATOM      9  C   UNL     1       5.251   5.251  15.370  0.00  0.00    +0.000 C 
ATOM     10  H   UNL     1       7.023   8.556  16.526  0.00  0.00    +0.000 HD
ENDROOT
BRANCH   7  11
ATOM     11  C   UNL     1       8.219   9.503  17.925  0.00  0.00    +0.000 A 
ATOM     12  C   UNL     1       8.134  10.794  17.391  0.00  0.00    +0.000 A 
ATOM     13  C   UNL     1       8.831  11.862  17.966  0.00  0.00    +0.000 A 
ATOM     14  C   UNL     1       9.616  11.656  19.091  0.00  0.00    +0.000 A 
ATOM     15  C   UNL     1       9.681  10.385  19.661  0.00  0.00    +0.000 A 
ATOM     16  C   UNL     1       8.979   9.316  19.087  0.00  0.00    +0.000 A 
ENDBRANCH   7  11
BRANCH   1  17
ATOM     17  C   UNL     1       3.441   4.325  16.984  0.00  0.00    +0.000 C 
BRANCH  17  23
ATOM     18  C   UNL     1       3.593   1.487  18.470  0.00  0.00    +0.000 C 
ATOM     19  C   UNL     1       3.246   2.812  19.043  0.00  0.00    +0.000 A 
ATOM     20  C   UNL     1       2.804   3.063  20.322  0.00  0.00    +0.000 A 
ATOM     21  N   UNL     1       2.717   4.400  20.542  0.00  0.00    +0.000 NA
ATOM     22  C   UNL     1       3.081   4.980  19.417  0.00  0.00    +0.000 A 
ATOM     23  N   UNL     1       3.328   4.045  18.421  0.00  0.00    +0.000 N 
BRANCH  22  24
ATOM     24  C   UNL     1       3.286   6.489  19.366  0.00  0.00    +0.000 C 
ATOM     25  C   UNL     1       2.887   7.208  18.037  0.00  0.00    +0.000 C 
ATOM     26  C   UNL     1       2.223   8.296  18.903  0.00  0.00    +0.000 C 
ATOM     27  C   UNL     1       2.039   7.212  19.975  0.00  0.00    +0.000 C 
ENDBRANCH  22  24
ENDBRANCH  17  23
ENDBRANCH   1  17
TORSDOF 4
ENDMDL
MODEL 6
REMARK VINA RESULT:      -6.9      2.419      9.104
REMARK  Name = 
REMARK  5 active torsions:
REMARK  status: ('A' for Active; 'I' for Inactive)
REMARK    1  A    between atoms: C_1  and  C_2
REMARK    2  A    between atoms: C_5  and  C_6
REMARK    3  A    between atoms: N_10  and  C_11
REMARK    4  A    between atoms: C_11  and  C_12
REMARK    5  A    between atoms: N_18  and  C_19
REMARK                            x       y       z     vdW  Elec       q    Type
REMARK                         _______ _______ _______ _____ _____    ______ ____
ROOT
ATOM      1  C   UNL     1       0.609  10.558  20.776  0.00  0.00    +0.000 C 
ATOM      2  C   UNL     1       1.348  10.475  19.448  0.00  0.00    +0.000 C 
ATOM      3  C   UNL     1       1.539   9.064  18.916  0.00  0.00    +0.000 C 
ATOM      4  N   UNL     1       1.920   8.026  19.874  0.00  0.00    +0.000 N 
ATOM      5  C   UNL     1       2.230   6.797  19.268  0.00  0.00    +0.000 C 
ATOM      6  O   UNL     1       2.313   6.727  18.039  0.00  0.00    +0.000 OA
ATOM      7  N   UNL     1       2.383   5.710  20.108  0.00  0.00    +0.000 N 
ATOM      8  C   UNL     1       1.566   8.174  21.280  0.00  0.00    +0.000 C 
ATOM      9  C   UNL     1       1.266   9.589  21.773  0.00  0.00    +0.000 C 
ATOM     10  H   UNL     1       2.157   5.830  21.081  0.00  0.00    +0.000 HD
ENDROOT
BRANCH   7  11
ATOM     11  C   UNL     1       2.636   4.373  19.692  0.00  0.00    +0.000 A 
ATOM     12  C   UNL     1       3.923   3.837  19.564  0.00  0.00    +0.000 A 
ATOM     13  C   UNL     1       4.122   2.540  19.081  0.00  0.00    +0.000 A 
ATOM     14  C   UNL     1       3.035   1.753  18.730  0.00  0.00    +0.000 A 
ATOM     15  C   UNL     1       1.743   2.254  18.889  0.00  0.00    +0.000 A 
ATOM     16  C   UNL     1       1.544   3.554  19.376  0.00  0.00    +0.000 A 
ENDBRANCH   7  11
BRANCH   1  17
ATOM     17  C   UNL     1      -0.934  10.438  20.687  0.00  0.00    +0.000 C 
BRANCH  17  23
ATOM     18  C   UNL     1      -1.447  12.692  22.910  0.00  0.00    +0.000 C 
ATOM     19  C   UNL     1      -2.071  12.558  21.571  0.00  0.00    +0.000 A 
ATOM     20  C   UNL     1      -3.095  13.325  21.061  0.00  0.00    +0.000 A 
ATOM     21  N   UNL     1      -3.320  13.014  19.758  0.00  0.00    +0.000 NA
ATOM     22  C   UNL     1      -2.466  12.056  19.459  0.00  0.00    +0.000 A 
ATOM     23  N   UNL     1      -1.732  11.665  20.569  0.00  0.00    +0.000 N 
BRANCH  22  24
ATOM     24  C   UNL     1      -2.309  11.597  18.014  0.00  0.00    +0.000 C 
ATOM     25  C   UNL     1      -1.963  10.090  17.790  0.00  0.00    +0.000 C 
ATOM     26  C   UNL     1      -3.017  10.084  16.665  0.00  0.00    +0.000 C 
ATOM     27  C   UNL     1      -3.710  11.226  17.423  0.00  0.00    +0.000 C 
ENDBRANCH  22  24
ENDBRANCH  17  23
ENDBRANCH   1  17
TORSDOF 4
ENDMDL
MODEL 7
REMARK VINA RESULT:      -6.8      2.384      9.214
REMARK  Name = 
REMARK  5 active torsions:
REMARK  status: ('A' for Active; 'I' for Inactive)
REMARK    1  A    between atoms: C_1  and  C_2
REMARK    2  A    between atoms: C_5  and  C_6
REMARK    3  A    between atoms: N_10  and  C_11
REMARK    4  A    between atoms: C_11  and  C_12
REMARK    5  A    between atoms: N_18  and  C_19
REMARK                            x       y       z     vdW  Elec       q    Type
REMARK                         _______ _______ _______ _____ _____    ______ ____
ROOT
ATOM      1  C   UNL     1       0.457  10.519  19.864  0.00  0.00    +0.000 C 
ATOM      2  C   UNL     1       1.434  10.384  18.705  0.00  0.00    +0.000 C 
ATOM      3  C   UNL     1       1.791   8.953  18.340  0.00  0.00    +0.000 C 
ATOM      4  N   UNL     1       2.036   8.016  19.437  0.00  0.00    +0.000 N 
ATOM      5  C   UNL     1       2.514   6.768  19.005  0.00  0.00    +0.000 C 
ATOM      6  O   UNL     1       2.829   6.611  17.822  0.00  0.00    +0.000 OA
ATOM      7  N   UNL     1       2.561   5.759  19.949  0.00  0.00    +0.000 N 
ATOM      8  C   UNL     1       1.420   8.247  20.737  0.00  0.00    +0.000 C 
ATOM      9  C   UNL     1       0.963   9.672  21.044  0.00  0.00    +0.000 C 
ATOM     10  H   UNL     1       2.152   5.937  20.851  0.00  0.00    +0.000 HD
ENDROOT
BRANCH   7  11
ATOM     11  C   UNL     1       2.954   4.413  19.702  0.00  0.00    +0.000 A 
ATOM     12  C   UNL     1       4.289   4.005  19.615  0.00  0.00    +0.000 A 
ATOM     13  C   UNL     1       4.623   2.684  19.299  0.00  0.00    +0.000 A 
ATOM     14  C   UNL     1       3.624   1.748  19.076  0.00  0.00    +0.000 A 
ATOM     15  C   UNL     1       2.287   2.126  19.198  0.00  0.00    +0.000 A 
ATOM     16  C   UNL     1       1.953   3.449  19.519  0.00  0.00    +0.000 A 
ENDBRANCH   7  11
BRANCH   1  17
ATOM     17  C   UNL     1      -1.035  10.294  19.506  0.00  0.00    +0.000 C 
BRANCH  17  23
ATOM     18  C   UNL     1      -0.767  12.968  21.256  0.00  0.00    +0.000 C 
ATOM     19  C   UNL     1      -1.913  12.518  20.428  0.00  0.00    +0.000 A 
ATOM     20  C   UNL     1      -3.150  13.117  20.342  0.00  0.00    +0.000 A 
ATOM     21  N   UNL     1      -3.905  12.516  19.386  0.00  0.00    +0.000 NA
ATOM     22  C   UNL     1      -3.164  11.545  18.893  0.00  0.00    +0.000 A 
ATOM     23  N   UNL     1      -1.955  11.437  19.566  0.00  0.00    +0.000 N 
BRANCH  22  24
ATOM     24  C   UNL     1      -3.629  10.780  17.659  0.00  0.00    +0.000 C 
ATOM     25  C   UNL     1      -4.531  11.560  16.649  0.00  0.00    +0.000 C 
ATOM     26  C   UNL     1      -3.677  10.951  15.519  0.00  0.00    +0.000 C 
ATOM     27  C   UNL     1      -2.535  10.865  16.543  0.00  0.00    +0.000 C 
ENDBRANCH  22  24
ENDBRANCH  17  23
ENDBRANCH   1  17
TORSDOF 4
ENDMDL
MODEL 8
REMARK VINA RESULT:      -6.7      2.936      9.150
REMARK  Name = 
REMARK  5 active torsions:
REMARK  status: ('A' for Active; 'I' for Inactive)
REMARK    1  A    between atoms: C_1  and  C_2
REMARK    2  A    between atoms: C_5  and  C_6
REMARK    3  A    between atoms: N_10  and  C_11
REMARK    4  A    between atoms: C_11  and  C_12
REMARK    5  A    between atoms: N_18  and  C_19
REMARK                            x       y       z     vdW  Elec       q    Type
REMARK                         _______ _______ _______ _____ _____    ______ ____
ROOT
ATOM      1  C   UNL     1       0.239  10.399  19.883  0.00  0.00    +0.000 C 
ATOM      2  C   UNL     1       0.253   9.079  20.640  0.00  0.00    +0.000 C 
ATOM      3  C   UNL     1       1.462   8.201  20.362  0.00  0.00    +0.000 C 
ATOM      4  N   UNL     1       1.917   8.096  18.975  0.00  0.00    +0.000 N 
ATOM      5  C   UNL     1       2.933   7.143  18.794  0.00  0.00    +0.000 C 
ATOM      6  O   UNL     1       3.238   6.393  19.725  0.00  0.00    +0.000 OA
ATOM      7  N   UNL     1       3.568   7.137  17.567  0.00  0.00    +0.000 N 
ATOM      8  C   UNL     1       1.639   9.178  18.039  0.00  0.00    +0.000 C 
ATOM      9  C   UNL     1       0.489  10.121  18.392  0.00  0.00    +0.000 C 
ATOM     10  H   UNL     1       3.352   7.876  16.920  0.00  0.00    +0.000 HD
ENDROOT
BRANCH   7  11
ATOM     11  C   UNL     1       4.659   6.296  17.205  0.00  0.00    +0.000 A 
ATOM     12  C   UNL     1       5.992   6.721  17.210  0.00  0.00    +0.000 A 
ATOM     13  C   UNL     1       7.022   5.879  16.776  0.00  0.00    +0.000 A 
ATOM     14  C   UNL     1       6.733   4.594  16.342  0.00  0.00    +0.000 A 
ATOM     15  C   UNL     1       5.415   4.138  16.368  0.00  0.00    +0.000 A 
ATOM     16  C   UNL     1       4.384   4.981  16.806  0.00  0.00    +0.000 A 
ENDBRANCH   7  11
BRANCH   1  17
ATOM     17  C   UNL     1       1.125  11.520  20.484  0.00  0.00    +0.000 C 
BRANCH  17  23
ATOM     18  C   UNL     1      -1.284  13.084  21.909  0.00  0.00    +0.000 C 
ATOM     19  C   UNL     1      -0.410  13.547  20.803  0.00  0.00    +0.000 A 
ATOM     20  C   UNL     1      -0.541  14.715  20.087  0.00  0.00    +0.000 A 
ATOM     21  N   UNL     1       0.514  14.879  19.246  0.00  0.00    +0.000 NA
ATOM     22  C   UNL     1       1.285  13.825  19.419  0.00  0.00    +0.000 A 
ATOM     23  N   UNL     1       0.716  12.918  20.301  0.00  0.00    +0.000 N 
BRANCH  22  24
ATOM     24  C   UNL     1       2.663  13.772  18.770  0.00  0.00    +0.000 C 
ATOM     25  C   UNL     1       3.029  14.943  17.802  0.00  0.00    +0.000 C 
ATOM     26  C   UNL     1       4.412  14.986  18.482  0.00  0.00    +0.000 C 
ATOM     27  C   UNL     1       3.722  14.412  19.728  0.00  0.00    +0.000 C 
ENDBRANCH  22  24
ENDBRANCH  17  23
ENDBRANCH   1  17
TORSDOF 4
ENDMDL
MODEL 9
REMARK VINA RESULT:      -6.7      2.435      9.102
REMARK  Name = 
REMARK  5 active torsions:
REMARK  status: ('A' for Active; 'I' for Inactive)
REMARK    1  A    between atoms: C_1  and  C_2
REMARK    2  A    between atoms: C_5  and  C_6
REMARK    3  A    between atoms: N_10  and  C_11
REMARK    4  A    between atoms: C_11  and  C_12
REMARK    5  A    between atoms: N_18  and  C_19
REMARK                            x       y       z     vdW  Elec       q    Type
REMARK                         _______ _______ _______ _____ _____    ______ ____
ROOT
ATOM      1  C   UNL     1       0.201  10.901  19.836  0.00  0.00    +0.000 C 
ATOM      2  C   UNL     1       1.119  10.749  18.631  0.00  0.00    +0.000 C 
ATOM      3  C   UNL     1       1.547   9.321  18.335  0.00  0.00    +0.000 C 
ATOM      4  N   UNL     1       1.912   8.475  19.471  0.00  0.00    +0.000 N 
ATOM      5  C   UNL     1       2.444   7.232  19.090  0.00  0.00    +0.000 C 
ATOM      6  O   UNL     1       2.703   7.018  17.903  0.00  0.00    +0.000 OA
ATOM      7  N   UNL     1       2.608   6.293  20.090  0.00  0.00    +0.000 N 
ATOM      8  C   UNL     1       1.354   8.753  20.789  0.00  0.00    +0.000 C 
ATOM      9  C   UNL     1       0.825  10.165  21.033  0.00  0.00    +0.000 C 
ATOM     10  H   UNL     1       2.238   6.504  21.002  0.00  0.00    +0.000 HD
ENDROOT
BRANCH   7  11
ATOM     11  C   UNL     1       3.071   4.959  19.904  0.00  0.00    +0.000 A 
ATOM     12  C   UNL     1       2.310   3.829  20.222  0.00  0.00    +0.000 A 
ATOM     13  C   UNL     1       2.837   2.540  20.089  0.00  0.00    +0.000 A 
ATOM     14  C   UNL     1       4.132   2.363  19.624  0.00  0.00    +0.000 A 
ATOM     15  C   UNL     1       4.892   3.475  19.264  0.00  0.00    +0.000 A 
ATOM     16  C   UNL     1       4.362   4.766  19.394  0.00  0.00    +0.000 A 
ENDBRANCH   7  11
BRANCH   1  17
ATOM     17  C   UNL     1      -1.290  10.563  19.581  0.00  0.00    +0.000 C 
BRANCH  17  23
ATOM     18  C   UNL     1      -1.495  12.898  21.770  0.00  0.00    +0.000 C 
ATOM     19  C   UNL     1      -2.457  12.555  20.693  0.00  0.00    +0.000 A 
ATOM     20  C   UNL     1      -3.700  13.112  20.495  0.00  0.00    +0.000 A 
ATOM     21  N   UNL     1      -4.246  12.659  19.336  0.00  0.00    +0.000 NA
ATOM     22  C   UNL     1      -3.370  11.819  18.824  0.00  0.00    +0.000 A 
ATOM     23  N   UNL     1      -2.283  11.641  19.669  0.00  0.00    +0.000 N 
BRANCH  22  24
ATOM     24  C   UNL     1      -3.573  11.265  17.419  0.00  0.00    +0.000 C 
ATOM     25  C   UNL     1      -2.319  11.237  16.487  0.00  0.00    +0.000 C 
ATOM     26  C   UNL     1      -2.746   9.816  16.068  0.00  0.00    +0.000 C 
ATOM     27  C   UNL     1      -3.428   9.707  17.440  0.00  0.00    +0.000 C 
ENDBRANCH  22  24
ENDBRANCH  17  23
ENDBRANCH   1  17
TORSDOF 4
ENDMDL
