MODEL 1
REMARK VINA RESULT:      -8.5      0.000      0.000
REMARK  Name = 
REMARK  8 active torsions:
REMARK  status: ('A' for Active; 'I' for Inactive)
REMARK    1  A    between atoms: C_2  and  C_3
REMARK    2  A    between atoms: C_2  and  C_25
REMARK    3  A    between atoms: C_4  and  C_5
REMARK    4  A    between atoms: N_7  and  C_8
REMARK    5  A    between atoms: C_8  and  C_9
REMARK    6  A    between atoms: C_9  and  O_10
REMARK    7  A    between atoms: C_9  and  C_11
REMARK    8  A    between atoms: C_11  and  N_12
REMARK                            x       y       z     vdW  Elec       q    Type
REMARK                         _______ _______ _______ _____ _____    ______ ____
ROOT
ATOM      1  C   UNL     1       2.773   6.778  18.662  0.00  0.00    +0.000 A 
ATOM      2  C   UNL     1       3.733   6.440  17.736  0.00  0.00    +0.000 A 
ATOM      3  N   UNL     1       4.032   5.115  17.899  0.00  0.00    +0.000 N 
ATOM      4  C   UNL     1       3.239   4.565  18.884  0.00  0.00    +0.000 A 
ATOM      5  C   UNL     1       3.175   3.253  19.389  0.00  0.00    +0.000 A 
ATOM      6  C   UNL     1       2.262   2.981  20.409  0.00  0.00    +0.000 A 
ATOM      7  C   UNL     1       1.436   3.980  20.910  0.00  0.00    +0.000 A 
ATOM      8  C   UNL     1       1.505   5.285  20.404  0.00  0.00    +0.000 A 
ATOM      9  C   UNL     1       2.420   5.591  19.372  0.00  0.00    +0.000 A 
ENDROOT
BRANCH   1  11
ATOM     10  C   UNL     1       1.348   8.670  18.067  0.00  0.00    +0.000 C 
ATOM     11  C   UNL     1       2.274   8.101  18.858  0.00  0.00    +0.000 C 
BRANCH  10  13
ATOM     12  O   UNL     1       1.761  10.967  18.471  0.00  0.00    +0.000 OA
ATOM     13  C   UNL     1       0.944  10.077  18.286  0.00  0.00    +0.000 C 
BRANCH  13  14
ATOM     14  C   UNL     1      -0.507  10.391  18.231  0.00  0.00    +0.000 A 
ATOM     15  C   UNL     1      -1.292   9.707  17.292  0.00  0.00    +0.000 A 
ATOM     16  C   UNL     1      -2.643  10.026  17.141  0.00  0.00    +0.000 A 
ATOM     17  C   UNL     1      -3.205  11.032  17.925  0.00  0.00    +0.000 A 
ATOM     18 BR   UNL     1      -5.017  11.508  17.679  0.00  0.00    +0.000 Br
ATOM     19  C   UNL     1      -2.434  11.709  18.873  0.00  0.00    +0.000 A 
ATOM     20  C   UNL     1      -1.082  11.389  19.026  0.00  0.00    +0.000 A 
ENDBRANCH  13  14
ENDBRANCH  10  13
ENDBRANCH   1  11
BRANCH   3  21
ATOM     21  C   UNL     1       5.057   4.417  17.140  0.00  0.00    +0.000 C 
BRANCH  21  22
ATOM     22  C   UNL     1       6.448   5.053  17.262  0.00  0.00    +0.000 C 
BRANCH  22  23
ATOM     23  O   UNL     1       7.418   4.114  17.745  0.00  0.00    +0.000 OA
ATOM     24  H   UNL     1       8.286   4.366  17.376  0.00  0.00    +0.000 HD
ENDBRANCH  22  23
BRANCH  22  25
ATOM     25  C   UNL     1       6.955   5.704  15.952  0.00  0.00    +0.000 C 
BRANCH  25  26
ATOM     26  N   UNL     1       6.800   4.884  14.730  0.00  0.00    +0.000 NA
ATOM     27  C   UNL     1       5.435   4.883  14.204  0.00  0.00    +0.000 C 
ATOM     28  C   UNL     1       5.112   3.528  13.569  0.00  0.00    +0.000 C 
ATOM     29  C   UNL     1       5.592   3.377  12.133  0.00  0.00    +0.000 C 
ATOM     30  C   UNL     1       7.095   3.555  11.954  0.00  0.00    +0.000 C 
ATOM     31  C   UNL     1       7.560   4.974  12.259  0.00  0.00    +0.000 C 
ATOM     32  C   UNL     1       7.831   5.255  13.745  0.00  0.00    +0.000 C 
ENDBRANCH  25  26
ENDBRANCH  22  25
ENDBRANCH  21  22
ENDBRANCH   3  21
TORSDOF 8
ENDMDL
MODEL 2
REMARK VINA RESULT:      -8.4      4.092     10.039
REMARK  Name = 
REMARK  8 active torsions:
REMARK  status: ('A' for Active; 'I' for Inactive)
REMARK    1  A    between atoms: C_2  and  C_3
REMARK    2  A    between atoms: C_2  and  C_25
REMARK    3  A    between atoms: C_4  and  C_5
REMARK    4  A    between atoms: N_7  and  C_8
REMARK    5  A    between atoms: C_8  and  C_9
REMARK    6  A    between atoms: C_9  and  O_10
REMARK    7  A    between atoms: C_9  and  C_11
REMARK    8  A    between atoms: C_11  and  N_12
REMARK                            x       y       z     vdW  Elec       q    Type
REMARK                         _______ _______ _______ _____ _____    ______ ____
ROOT
ATOM      1  C   UNL     1       1.168   8.951  20.260  0.00  0.00    +0.000 A 
ATOM      2  C   UNL     1       1.272   9.892  19.262  0.00  0.00    +0.000 A 
ATOM      3  N   UNL     1       0.573  11.002  19.651  0.00  0.00    +0.000 N 
ATOM      4  C   UNL     1       0.057  10.821  20.918  0.00  0.00    +0.000 A 
ATOM      5  C   UNL     1      -0.710  11.676  21.730  0.00  0.00    +0.000 A 
ATOM      6  C   UNL     1      -1.102  11.216  22.989  0.00  0.00    +0.000 A 
ATOM      7  C   UNL     1      -0.740   9.948  23.428  0.00  0.00    +0.000 A 
ATOM      8  C   UNL     1       0.024   9.101  22.614  0.00  0.00    +0.000 A 
ATOM      9  C   UNL     1       0.435   9.538  21.335  0.00  0.00    +0.000 A 
ENDROOT
BRANCH   1  11
ATOM     10  C   UNL     1       2.584   7.239  19.246  0.00  0.00    +0.000 C 
ATOM     11  C   UNL     1       1.693   7.627  20.174  0.00  0.00    +0.000 C 
BRANCH  10  13
ATOM     12  O   UNL     1       2.656   4.991  19.988  0.00  0.00    +0.000 OA
ATOM     13  C   UNL     1       3.017   5.826  19.172  0.00  0.00    +0.000 C 
BRANCH  13  14
ATOM     14  C   UNL     1       3.885   5.433  18.032  0.00  0.00    +0.000 A 
ATOM     15  C   UNL     1       4.387   6.449  17.207  0.00  0.00    +0.000 A 
ATOM     16  C   UNL     1       5.136   6.127  16.074  0.00  0.00    +0.000 A 
ATOM     17  C   UNL     1       5.378   4.790  15.764  0.00  0.00    +0.000 A 
ATOM     18 BR   UNL     1       6.338   4.350  14.197  0.00  0.00    +0.000 Br
ATOM     19  C   UNL     1       4.894   3.771  16.587  0.00  0.00    +0.000 A 
ATOM     20  C   UNL     1       4.145   4.092  17.724  0.00  0.00    +0.000 A 
ENDBRANCH  13  14
ENDBRANCH  10  13
ENDBRANCH   1  11
BRANCH   3  21
ATOM     21  C   UNL     1       0.399  12.182  18.820  0.00  0.00    +0.000 C 
BRANCH  21  22
ATOM     22  C   UNL     1      -1.031  12.353  18.291  0.00  0.00    +0.000 C 
BRANCH  22  23
ATOM     23  O   UNL     1      -1.043  12.932  16.979  0.00  0.00    +0.000 OA
ATOM     24  H   UNL     1      -1.968  12.941  16.667  0.00  0.00    +0.000 HD
ENDBRANCH  22  23
BRANCH  22  25
ATOM     25  C   UNL     1      -1.859  11.045  18.296  0.00  0.00    +0.000 C 
BRANCH  25  26
ATOM     26  N   UNL     1      -3.316  11.213  18.492  0.00  0.00    +0.000 NA
ATOM     27  C   UNL     1      -3.655  12.350  19.350  0.00  0.00    +0.000 C 
ATOM     28  C   UNL     1      -4.911  12.039  20.170  0.00  0.00    +0.000 C 
ATOM     29  C   UNL     1      -6.220  12.291  19.434  0.00  0.00    +0.000 C 
ATOM     30  C   UNL     1      -6.376  11.494  18.145  0.00  0.00    +0.000 C 
ATOM     31  C   UNL     1      -5.369  11.900  17.076  0.00  0.00    +0.000 C 
ATOM     32  C   UNL     1      -4.000  11.212  17.187  0.00  0.00    +0.000 C 
ENDBRANCH  25  26
ENDBRANCH  22  25
ENDBRANCH  21  22
ENDBRANCH   3  21
TORSDOF 8
ENDMDL
MODEL 3
REMARK VINA RESULT:      -8.2      4.767     10.314
REMARK  Name = 
REMARK  8 active torsions:
REMARK  status: ('A' for Active; 'I' for Inactive)
REMARK    1  A    between atoms: C_2  and  C_3
REMARK    2  A    between atoms: C_2  and  C_25
REMARK    3  A    between atoms: C_4  and  C_5
REMARK    4  A    between atoms: N_7  and  C_8
REMARK    5  A    between atoms: C_8  and  C_9
REMARK    6  A    between atoms: C_9  and  O_10
REMARK    7  A    between atoms: C_9  and  C_11
REMARK    8  A    between atoms: C_11  and  N_12
REMARK                            x       y       z     vdW  Elec       q    Type
REMARK                         _______ _______ _______ _____ _____    ______ ____
ROOT
ATOM      1  C   UNL     1       1.093   9.365  20.174  0.00  0.00    +0.000 A 
ATOM      2  C   UNL     1       1.253  10.334  19.210  0.00  0.00    +0.000 A 
ATOM      3  N   UNL     1       0.541  11.437  19.594  0.00  0.00    +0.000 N 
ATOM      4  C   UNL     1      -0.040  11.224  20.828  0.00  0.00    +0.000 A 
ATOM      5  C   UNL     1      -0.843  12.060  21.623  0.00  0.00    +0.000 A 
ATOM      6  C   UNL     1      -1.302  11.568  22.846  0.00  0.00    +0.000 A 
ATOM      7  C   UNL     1      -0.970  10.285  23.267  0.00  0.00    +0.000 A 
ATOM      8  C   UNL     1      -0.169   9.457  22.469  0.00  0.00    +0.000 A 
ATOM      9  C   UNL     1       0.309   9.927  21.226  0.00  0.00    +0.000 A 
ENDROOT
BRANCH   1  11
ATOM     10  C   UNL     1       2.337   7.601  19.033  0.00  0.00    +0.000 C 
ATOM     11  C   UNL     1       1.616   8.041  20.078  0.00  0.00    +0.000 C 
BRANCH  10  13
ATOM     12  O   UNL     1       2.433   5.364  19.806  0.00  0.00    +0.000 OA
ATOM     13  C   UNL     1       2.772   6.187  18.969  0.00  0.00    +0.000 C 
BRANCH  13  14
ATOM     14  C   UNL     1       3.613   5.779  17.814  0.00  0.00    +0.000 A 
ATOM     15  C   UNL     1       3.700   4.412  17.515  0.00  0.00    +0.000 A 
ATOM     16  C   UNL     1       4.544   3.970  16.495  0.00  0.00    +0.000 A 
ATOM     17  C   UNL     1       5.302   4.893  15.778  0.00  0.00    +0.000 A 
ATOM     18 BR   UNL     1       6.491   4.290  14.439  0.00  0.00    +0.000 Br
ATOM     19  C   UNL     1       5.211   6.258  16.059  0.00  0.00    +0.000 A 
ATOM     20  C   UNL     1       4.365   6.703  17.080  0.00  0.00    +0.000 A 
ENDBRANCH  13  14
ENDBRANCH  10  13
ENDBRANCH   1  11
BRANCH   3  21
ATOM     21  C   UNL     1       0.417  12.641  18.790  0.00  0.00    +0.000 C 
BRANCH  21  22
ATOM     22  C   UNL     1       1.747  13.375  18.575  0.00  0.00    +0.000 C 
BRANCH  22  23
ATOM     23  O   UNL     1       2.343  13.032  17.317  0.00  0.00    +0.000 OA
ATOM     24  H   UNL     1       2.562  13.863  16.855  0.00  0.00    +0.000 HD
ENDBRANCH  22  23
BRANCH  22  25
ATOM     25  C   UNL     1       1.640  14.914  18.703  0.00  0.00    +0.000 C 
BRANCH  25  26
ATOM     26  N   UNL     1       0.443  15.413  19.414  0.00  0.00    +0.000 NA
ATOM     27  C   UNL     1       0.747  15.987  20.725  0.00  0.00    +0.000 C 
ATOM     28  C   UNL     1      -0.403  15.721  21.701  0.00  0.00    +0.000 C 
ATOM     29  C   UNL     1      -1.550  16.717  21.607  0.00  0.00    +0.000 C 
ATOM     30  C   UNL     1      -2.201  16.793  20.232  0.00  0.00    +0.000 C 
ATOM     31  C   UNL     1      -1.262  17.344  19.166  0.00  0.00    +0.000 C 
ATOM     32  C   UNL     1      -0.332  16.300  18.528  0.00  0.00    +0.000 C 
ENDBRANCH  25  26
ENDBRANCH  22  25
ENDBRANCH  21  22
ENDBRANCH   3  21
TORSDOF 8
ENDMDL
MODEL 4
REMARK VINA RESULT:      -8.1      4.884     10.197
REMARK  Name = 
REMARK  8 active torsions:
REMARK  status: ('A' for Active; 'I' for Inactive)
REMARK    1  A    between atoms: C_2  and  C_3
REMARK    2  A    between atoms: C_2  and  C_25
REMARK    3  A    between atoms: C_4  and  C_5
REMARK    4  A    between atoms: N_7  and  C_8
REMARK    5  A    between atoms: C_8  and  C_9
REMARK    6  A    between atoms: C_9  and  O_10
REMARK    7  A    between atoms: C_9  and  C_11
REMARK    8  A    between atoms: C_11  and  N_12
REMARK                            x       y       z     vdW  Elec       q    Type
REMARK                         _______ _______ _______ _____ _____    ______ ____
ROOT
ATOM      1  C   UNL     1       1.174   9.299  20.122  0.00  0.00    +0.000 A 
ATOM      2  C   UNL     1       1.439  10.273  19.187  0.00  0.00    +0.000 A 
ATOM      3  N   UNL     1       0.804  11.420  19.577  0.00  0.00    +0.000 N 
ATOM      4  C   UNL     1       0.170  11.226  20.788  0.00  0.00    +0.000 A 
ATOM      5  C   UNL     1      -0.589  12.105  21.580  0.00  0.00    +0.000 A 
ATOM      6  C   UNL     1      -1.123  11.624  22.777  0.00  0.00    +0.000 A 
ATOM      7  C   UNL     1      -0.905  10.310  23.175  0.00  0.00    +0.000 A 
ATOM      8  C   UNL     1      -0.147   9.439  22.381  0.00  0.00    +0.000 A 
ATOM      9  C   UNL     1       0.404   9.898  21.164  0.00  0.00    +0.000 A 
ENDROOT
BRANCH   1  11
ATOM     10  C   UNL     1       2.375   7.484  19.014  0.00  0.00    +0.000 C 
ATOM     11  C   UNL     1       1.594   7.940  20.008  0.00  0.00    +0.000 C 
BRANCH  10  13
ATOM     12  O   UNL     1       2.168   5.209  19.640  0.00  0.00    +0.000 OA
ATOM     13  C   UNL     1       2.697   6.042  18.920  0.00  0.00    +0.000 C 
BRANCH  13  14
ATOM     14  C   UNL     1       3.669   5.623  17.877  0.00  0.00    +0.000 A 
ATOM     15  C   UNL     1       4.344   6.625  17.167  0.00  0.00    +0.000 A 
ATOM     16  C   UNL     1       5.203   6.285  16.120  0.00  0.00    +0.000 A 
ATOM     17  C   UNL     1       5.381   4.946  15.781  0.00  0.00    +0.000 A 
ATOM     18 BR   UNL     1       6.494   4.487  14.324  0.00  0.00    +0.000 Br
ATOM     19  C   UNL     1       4.724   3.940  16.493  0.00  0.00    +0.000 A 
ATOM     20  C   UNL     1       3.865   4.278  17.543  0.00  0.00    +0.000 A 
ENDBRANCH  13  14
ENDBRANCH  10  13
ENDBRANCH   1  11
BRANCH   3  21
ATOM     21  C   UNL     1       0.798  12.648  18.799  0.00  0.00    +0.000 C 
BRANCH  21  22
ATOM     22  C   UNL     1       2.140  13.392  18.820  0.00  0.00    +0.000 C 
BRANCH  22  23
ATOM     23  O   UNL     1       2.669  13.566  17.499  0.00  0.00    +0.000 OA
ATOM     24  H   UNL     1       2.127  13.030  16.888  0.00  0.00    +0.000 HD
ENDBRANCH  22  23
BRANCH  22  25
ATOM     25  C   UNL     1       2.086  14.758  19.547  0.00  0.00    +0.000 C 
BRANCH  25  26
ATOM     26  N   UNL     1       0.951  15.633  19.178  0.00  0.00    +0.000 NA
ATOM     27  C   UNL     1       0.125  16.021  20.322  0.00  0.00    +0.000 C 
ATOM     28  C   UNL     1      -1.340  16.157  19.897  0.00  0.00    +0.000 C 
ATOM     29  C   UNL     1      -1.691  17.501  19.275  0.00  0.00    +0.000 C 
ATOM     30  C   UNL     1      -0.880  17.845  18.032  0.00  0.00    +0.000 C 
ATOM     31  C   UNL     1       0.599  18.053  18.332  0.00  0.00    +0.000 C 
ATOM     32  C   UNL     1       1.435  16.764  18.367  0.00  0.00    +0.000 C 
ENDBRANCH  25  26
ENDBRANCH  22  25
ENDBRANCH  21  22
ENDBRANCH   3  21
TORSDOF 8
ENDMDL
MODEL 5
REMARK VINA RESULT:      -8.1      4.627     10.299
REMARK  Name = 
REMARK  8 active torsions:
REMARK  status: ('A' for Active; 'I' for Inactive)
REMARK    1  A    between atoms: C_2  and  C_3
REMARK    2  A    between atoms: C_2  and  C_25
REMARK    3  A    between atoms: C_4  and  C_5
REMARK    4  A    between atoms: N_7  and  C_8
REMARK    5  A    between atoms: C_8  and  C_9
REMARK    6  A    between atoms: C_9  and  O_10
REMARK    7  A    between atoms: C_9  and  C_11
REMARK    8  A    between atoms: C_11  and  N_12
REMARK                            x       y       z     vdW  Elec       q    Type
REMARK                         _______ _______ _______ _____ _____    ______ ____
ROOT
ATOM      1  C   UNL     1       1.018   9.547  19.344  0.00  0.00    +0.000 A 
ATOM      2  C   UNL     1       0.558  10.442  18.407  0.00  0.00    +0.000 A 
ATOM      3  N   UNL     1      -0.334  11.278  19.021  0.00  0.00    +0.000 N 
ATOM      4  C   UNL     1      -0.423  10.977  20.364  0.00  0.00    +0.000 A 
ATOM      5  C   UNL     1      -1.188  11.562  21.389  0.00  0.00    +0.000 A 
ATOM      6  C   UNL     1      -1.078  11.037  22.678  0.00  0.00    +0.000 A 
ATOM      7  C   UNL     1      -0.231   9.966  22.940  0.00  0.00    +0.000 A 
ATOM      8  C   UNL     1       0.528   9.388  21.914  0.00  0.00    +0.000 A 
ATOM      9  C   UNL     1       0.437   9.897  20.600  0.00  0.00    +0.000 A 
ENDROOT
BRANCH   1  11
ATOM     10  C   UNL     1       2.561   8.330  17.893  0.00  0.00    +0.000 C 
ATOM     11  C   UNL     1       1.898   8.461  19.055  0.00  0.00    +0.000 C 
BRANCH  10  13
ATOM     12  O   UNL     1       4.306   7.133  16.830  0.00  0.00    +0.000 OA
ATOM     13  C   UNL     1       3.390   7.131  17.638  0.00  0.00    +0.000 C 
BRANCH  13  14
ATOM     14  C   UNL     1       3.099   5.913  18.438  0.00  0.00    +0.000 A 
ATOM     15  C   UNL     1       1.956   5.169  18.111  0.00  0.00    +0.000 A 
ATOM     16  C   UNL     1       1.591   4.066  18.885  0.00  0.00    +0.000 A 
ATOM     17  C   UNL     1       2.366   3.712  19.988  0.00  0.00    +0.000 A 
ATOM     18 BR   UNL     1       1.840   2.257  21.073  0.00  0.00    +0.000 Br
ATOM     19  C   UNL     1       3.514   4.438  20.313  0.00  0.00    +0.000 A 
ATOM     20  C   UNL     1       3.882   5.541  19.537  0.00  0.00    +0.000 A 
ENDBRANCH  13  14
ENDBRANCH  10  13
ENDBRANCH   1  11
BRANCH   3  21
ATOM     21  C   UNL     1      -1.081  12.315  18.328  0.00  0.00    +0.000 C 
BRANCH  21  22
ATOM     22  C   UNL     1      -2.261  11.776  17.509  0.00  0.00    +0.000 C 
BRANCH  22  23
ATOM     23  O   UNL     1      -1.824  10.884  16.475  0.00  0.00    +0.000 OA
ATOM     24  H   UNL     1      -1.498  11.427  15.732  0.00  0.00    +0.000 HD
ENDBRANCH  22  23
BRANCH  22  25
ATOM     25  C   UNL     1      -3.355  11.091  18.365  0.00  0.00    +0.000 C 
BRANCH  25  26
ATOM     26  N   UNL     1      -4.580  11.889  18.592  0.00  0.00    +0.000 NA
ATOM     27  C   UNL     1      -5.812  11.125  18.391  0.00  0.00    +0.000 C 
ATOM     28  C   UNL     1      -6.910  12.030  17.824  0.00  0.00    +0.000 C 
ATOM     29  C   UNL     1      -7.662  12.837  18.872  0.00  0.00    +0.000 C 
ATOM     30  C   UNL     1      -6.779  13.756  19.707  0.00  0.00    +0.000 C 
ATOM     31  C   UNL     1      -5.801  12.990  20.590  0.00  0.00    +0.000 C 
ATOM     32  C   UNL     1      -4.496  12.575  19.894  0.00  0.00    +0.000 C 
ENDBRANCH  25  26
ENDBRANCH  22  25
ENDBRANCH  21  22
ENDBRANCH   3  21
TORSDOF 8
ENDMDL
MODEL 6
REMARK VINA RESULT:      -8.1      4.175     10.170
REMARK  Name = 
REMARK  8 active torsions:
REMARK  status: ('A' for Active; 'I' for Inactive)
REMARK    1  A    between atoms: C_2  and  C_3
REMARK    2  A    between atoms: C_2  and  C_25
REMARK    3  A    between atoms: C_4  and  C_5
REMARK    4  A    between atoms: N_7  and  C_8
REMARK    5  A    between atoms: C_8  and  C_9
REMARK    6  A    between atoms: C_9  and  O_10
REMARK    7  A    between atoms: C_9  and  C_11
REMARK    8  A    between atoms: C_11  and  N_12
REMARK                            x       y       z     vdW  Elec       q    Type
REMARK                         _______ _______ _______ _____ _____    ______ ____
ROOT
ATOM      1  C   UNL     1       1.187   9.116  20.204  0.00  0.00    +0.000 A 
ATOM      2  C   UNL     1       1.378  10.138  19.303  0.00  0.00    +0.000 A 
ATOM      3  N   UNL     1       0.718  11.243  19.770  0.00  0.00    +0.000 N 
ATOM      4  C   UNL     1       0.142  10.972  20.994  0.00  0.00    +0.000 A 
ATOM      5  C   UNL     1      -0.616  11.787  21.854  0.00  0.00    +0.000 A 
ATOM      6  C   UNL     1      -1.082  11.234  23.048  0.00  0.00    +0.000 A 
ATOM      7  C   UNL     1      -0.800   9.914  23.379  0.00  0.00    +0.000 A 
ATOM      8  C   UNL     1      -0.045   9.107  22.517  0.00  0.00    +0.000 A 
ATOM      9  C   UNL     1       0.439   9.639  21.301  0.00  0.00    +0.000 A 
ENDROOT
BRANCH   1  11
ATOM     10  C   UNL     1       2.479   7.415  19.019  0.00  0.00    +0.000 C 
ATOM     11  C   UNL     1       1.651   7.780  20.013  0.00  0.00    +0.000 C 
BRANCH  10  13
ATOM     12  O   UNL     1       2.448   5.117  19.591  0.00  0.00    +0.000 OA
ATOM     13  C   UNL     1       2.847   5.993  18.839  0.00  0.00    +0.000 C 
BRANCH  13  14
ATOM     14  C   UNL     1       3.698   5.647  17.671  0.00  0.00    +0.000 A 
ATOM     15  C   UNL     1       3.870   4.290  17.362  0.00  0.00    +0.000 A 
ATOM     16  C   UNL     1       4.728   3.909  16.328  0.00  0.00    +0.000 A 
ATOM     17  C   UNL     1       5.415   4.884  15.609  0.00  0.00    +0.000 A 
ATOM     18 BR   UNL     1       6.624   4.368  14.251  0.00  0.00    +0.000 Br
ATOM     19  C   UNL     1       5.239   6.239  15.899  0.00  0.00    +0.000 A 
ATOM     20  C   UNL     1       4.379   6.622  16.933  0.00  0.00    +0.000 A 
ENDBRANCH  13  14
ENDBRANCH  10  13
ENDBRANCH   1  11
BRANCH   3  21
ATOM     21  C   UNL     1       0.636  12.502  19.048  0.00  0.00    +0.000 C 
BRANCH  21  22
ATOM     22  C   UNL     1      -0.803  12.969  18.792  0.00  0.00    +0.000 C 
BRANCH  22  23
ATOM     23  O   UNL     1      -0.842  14.113  17.929  0.00  0.00    +0.000 OA
ATOM     24  H   UNL     1      -1.141  14.876  18.460  0.00  0.00    +0.000 HD
ENDBRANCH  22  23
BRANCH  22  25
ATOM     25  C   UNL     1      -1.730  11.860  18.237  0.00  0.00    +0.000 C 
BRANCH  25  26
ATOM     26  N   UNL     1      -3.069  11.777  18.860  0.00  0.00    +0.000 NA
ATOM     27  C   UNL     1      -3.361  12.898  19.754  0.00  0.00    +0.000 C 
ATOM     28  C   UNL     1      -4.236  12.433  20.921  0.00  0.00    +0.000 C 
ATOM     29  C   UNL     1      -5.725  12.383  20.609  0.00  0.00    +0.000 C 
ATOM     30  C   UNL     1      -6.090  11.470  19.446  0.00  0.00    +0.000 C 
ATOM     31  C   UNL     1      -5.540  11.964  18.114  0.00  0.00    +0.000 C 
ATOM     32  C   UNL     1      -4.090  11.546  17.823  0.00  0.00    +0.000 C 
ENDBRANCH  25  26
ENDBRANCH  22  25
ENDBRANCH  21  22
ENDBRANCH   3  21
TORSDOF 8
ENDMDL
MODEL 7
REMARK VINA RESULT:      -8.1      1.780      2.142
REMARK  Name = 
REMARK  8 active torsions:
REMARK  status: ('A' for Active; 'I' for Inactive)
REMARK    1  A    between atoms: C_2  and  C_3
REMARK    2  A    between atoms: C_2  and  C_25
REMARK    3  A    between atoms: C_4  and  C_5
REMARK    4  A    between atoms: N_7  and  C_8
REMARK    5  A    between atoms: C_8  and  C_9
REMARK    6  A    between atoms: C_9  and  O_10
REMARK    7  A    between atoms: C_9  and  C_11
REMARK    8  A    between atoms: C_11  and  N_12
REMARK                            x       y       z     vdW  Elec       q    Type
REMARK                         _______ _______ _______ _____ _____    ______ ____
ROOT
ATOM      1  C   UNL     1       2.697   5.963  18.195  0.00  0.00    +0.000 A 
ATOM      2  C   UNL     1       3.854   5.704  17.497  0.00  0.00    +0.000 A 
ATOM      3  N   UNL     1       4.222   4.411  17.750  0.00  0.00    +0.000 N 
ATOM      4  C   UNL     1       3.290   3.800  18.564  0.00  0.00    +0.000 A 
ATOM      5  C   UNL     1       3.234   2.492  19.077  0.00  0.00    +0.000 A 
ATOM      6  C   UNL     1       2.154   2.148  19.893  0.00  0.00    +0.000 A 
ATOM      7  C   UNL     1       1.161   3.075  20.187  0.00  0.00    +0.000 A 
ATOM      8  C   UNL     1       1.224   4.377  19.674  0.00  0.00    +0.000 A 
ATOM      9  C   UNL     1       2.305   4.754  18.846  0.00  0.00    +0.000 A 
ENDROOT
BRANCH   1  11
ATOM     10  C   UNL     1       2.671   8.390  17.924  0.00  0.00    +0.000 C 
ATOM     11  C   UNL     1       2.059   7.238  18.250  0.00  0.00    +0.000 C 
BRANCH  10  13
ATOM     12  O   UNL     1       2.025  10.565  17.247  0.00  0.00    +0.000 OA
ATOM     13  C   UNL     1       1.966   9.681  18.088  0.00  0.00    +0.000 C 
BRANCH  13  14
ATOM     14  C   UNL     1       1.134   9.859  19.306  0.00  0.00    +0.000 A 
ATOM     15  C   UNL     1       0.049  10.743  19.238  0.00  0.00    +0.000 A 
ATOM     16  C   UNL     1      -0.711  11.011  20.378  0.00  0.00    +0.000 A 
ATOM     17  C   UNL     1      -0.381  10.399  21.585  0.00  0.00    +0.000 A 
ATOM     18 BR   UNL     1      -1.370  10.808  23.143  0.00  0.00    +0.000 Br
ATOM     19  C   UNL     1       0.689   9.506  21.660  0.00  0.00    +0.000 A 
ATOM     20  C   UNL     1       1.451   9.235  20.519  0.00  0.00    +0.000 A 
ENDBRANCH  13  14
ENDBRANCH  10  13
ENDBRANCH   1  11
BRANCH   3  21
ATOM     21  C   UNL     1       5.438   3.800  17.238  0.00  0.00    +0.000 C 
BRANCH  21  22
ATOM     22  C   UNL     1       6.670   4.708  17.342  0.00  0.00    +0.000 C 
BRANCH  22  23
ATOM     23  O   UNL     1       7.837   3.973  17.734  0.00  0.00    +0.000 OA
ATOM     24  H   UNL     1       8.241   3.601  16.926  0.00  0.00    +0.000 HD
ENDBRANCH  22  23
BRANCH  22  25
ATOM     25  C   UNL     1       6.965   5.511  16.051  0.00  0.00    +0.000 C 
BRANCH  25  26
ATOM     26  N   UNL     1       6.804   4.765  14.784  0.00  0.00    +0.000 NA
ATOM     27  C   UNL     1       5.433   4.785  14.272  0.00  0.00    +0.000 C 
ATOM     28  C   UNL     1       5.113   3.468  13.559  0.00  0.00    +0.000 C 
ATOM     29  C   UNL     1       5.580   3.408  12.112  0.00  0.00    +0.000 C 
ATOM     30  C   UNL     1       7.079   3.608  11.930  0.00  0.00    +0.000 C 
ATOM     31  C   UNL     1       7.537   5.009  12.315  0.00  0.00    +0.000 C 
ATOM     32  C   UNL     1       7.821   5.203  13.812  0.00  0.00    +0.000 C 
ENDBRANCH  25  26
ENDBRANCH  22  25
ENDBRANCH  21  22
ENDBRANCH   3  21
TORSDOF 8
ENDMDL
MODEL 8
REMARK VINA RESULT:      -8.1      4.648      9.404
REMARK  Name = 
REMARK  8 active torsions:
REMARK  status: ('A' for Active; 'I' for Inactive)
REMARK    1  A    between atoms: C_2  and  C_3
REMARK    2  A    between atoms: C_2  and  C_25
REMARK    3  A    between atoms: C_4  and  C_5
REMARK    4  A    between atoms: N_7  and  C_8
REMARK    5  A    between atoms: C_8  and  C_9
REMARK    6  A    between atoms: C_9  and  O_10
REMARK    7  A    between atoms: C_9  and  C_11
REMARK    8  A    between atoms: C_11  and  N_12
REMARK                            x       y       z     vdW  Elec       q    Type
REMARK                         _______ _______ _______ _____ _____    ______ ____
ROOT
ATOM      1  C   UNL     1       1.030   8.886  20.119  0.00  0.00    +0.000 A 
ATOM      2  C   UNL     1       0.659   9.546  18.971  0.00  0.00    +0.000 A 
ATOM      3  N   UNL     1      -0.263  10.499  19.308  0.00  0.00    +0.000 N 
ATOM      4  C   UNL     1      -0.460  10.509  20.674  0.00  0.00    +0.000 A 
ATOM      5  C   UNL     1      -1.292  11.310  21.477  0.00  0.00    +0.000 A 
ATOM      6  C   UNL     1      -1.290  11.090  22.856  0.00  0.00    +0.000 A 
ATOM      7  C   UNL     1      -0.485  10.106  23.418  0.00  0.00    +0.000 A 
ATOM      8  C   UNL     1       0.341   9.311  22.612  0.00  0.00    +0.000 A 
ATOM      9  C   UNL     1       0.360   9.511  21.214  0.00  0.00    +0.000 A 
ENDROOT
BRANCH   1  11
ATOM     10  C   UNL     1       2.401   7.171  19.050  0.00  0.00    +0.000 C 
ATOM     11  C   UNL     1       1.910   7.763  20.152  0.00  0.00    +0.000 C 
BRANCH  10  13
ATOM     12  O   UNL     1       3.255   5.270  20.177  0.00  0.00    +0.000 OA
ATOM     13  C   UNL     1       3.242   5.958  19.167  0.00  0.00    +0.000 C 
BRANCH  13  14
ATOM     14  C   UNL     1       4.052   5.568  17.985  0.00  0.00    +0.000 A 
ATOM     15  C   UNL     1       4.514   6.587  17.139  0.00  0.00    +0.000 A 
ATOM     16  C   UNL     1       5.206   6.268  15.970  0.00  0.00    +0.000 A 
ATOM     17  C   UNL     1       5.431   4.933  15.644  0.00  0.00    +0.000 A 
ATOM     18 BR   UNL     1       6.313   4.497  14.030  0.00  0.00    +0.000 Br
ATOM     19  C   UNL     1       4.987   3.911  16.487  0.00  0.00    +0.000 A 
ATOM     20  C   UNL     1       4.296   4.228  17.660  0.00  0.00    +0.000 A 
ENDBRANCH  13  14
ENDBRANCH  10  13
ENDBRANCH   1  11
BRANCH   3  21
ATOM     21  C   UNL     1      -0.936  11.353  18.343  0.00  0.00    +0.000 C 
BRANCH  21  22
ATOM     22  C   UNL     1      -0.470  12.814  18.386  0.00  0.00    +0.000 C 
BRANCH  22  23
ATOM     23  O   UNL     1      -1.452  13.664  18.994  0.00  0.00    +0.000 OA
ATOM     24  H   UNL     1      -1.525  13.410  19.934  0.00  0.00    +0.000 HD
ENDBRANCH  22  23
BRANCH  22  25
ATOM     25  C   UNL     1       0.899  13.012  19.082  0.00  0.00    +0.000 C 
BRANCH  25  26
ATOM     26  N   UNL     1       1.755  14.077  18.514  0.00  0.00    +0.000 NA
ATOM     27  C   UNL     1       1.705  15.325  19.277  0.00  0.00    +0.000 C 
ATOM     28  C   UNL     1       1.852  16.527  18.339  0.00  0.00    +0.000 C 
ATOM     29  C   UNL     1       3.290  16.878  17.987  0.00  0.00    +0.000 C 
ATOM     30  C   UNL     1       4.063  15.749  17.316  0.00  0.00    +0.000 C 
ATOM     31  C   UNL     1       4.282  14.556  18.238  0.00  0.00    +0.000 C 
ATOM     32  C   UNL     1       3.114  13.559  18.285  0.00  0.00    +0.000 C 
ENDBRANCH  25  26
ENDBRANCH  22  25
ENDBRANCH  21  22
ENDBRANCH   3  21
TORSDOF 8
ENDMDL
MODEL 9
REMARK VINA RESULT:      -8.1      4.785     11.387
REMARK  Name = 
REMARK  8 active torsions:
REMARK  status: ('A' for Active; 'I' for Inactive)
REMARK    1  A    between atoms: C_2  and  C_3
REMARK    2  A    between atoms: C_2  and  C_25
REMARK    3  A    between atoms: C_4  and  C_5
REMARK    4  A    between atoms: N_7  and  C_8
REMARK    5  A    between atoms: C_8  and  C_9
REMARK    6  A    between atoms: C_9  and  O_10
REMARK    7  A    between atoms: C_9  and  C_11
REMARK    8  A    between atoms: C_11  and  N_12
REMARK                            x       y       z     vdW  Elec       q    Type
REMARK                         _______ _______ _______ _____ _____    ______ ____
ROOT
ATOM      1  C   UNL     1       0.300  10.131  18.557  0.00  0.00    +0.000 A 
ATOM      2  C   UNL     1       0.619  10.882  19.665  0.00  0.00    +0.000 A 
ATOM      3  N   UNL     1      -0.473  11.639  19.993  0.00  0.00    +0.000 N 
ATOM      4  C   UNL     1      -1.524  11.352  19.146  0.00  0.00    +0.000 A 
ATOM      5  C   UNL     1      -2.834  11.861  19.101  0.00  0.00    +0.000 A 
ATOM      6  C   UNL     1      -3.696  11.381  18.113  0.00  0.00    +0.000 A 
ATOM      7  C   UNL     1      -3.270  10.422  17.202  0.00  0.00    +0.000 A 
ATOM      8  C   UNL     1      -1.963   9.920  17.252  0.00  0.00    +0.000 A 
ATOM      9  C   UNL     1      -1.068  10.387  18.239  0.00  0.00    +0.000 A 
ENDROOT
BRANCH   1  11
ATOM     10  C   UNL     1       2.048   8.427  18.489  0.00  0.00    +0.000 C 
ATOM     11  C   UNL     1       1.219   9.283  17.868  0.00  0.00    +0.000 C 
BRANCH  10  13
ATOM     12  O   UNL     1       3.760   8.159  16.874  0.00  0.00    +0.000 OA
ATOM     13  C   UNL     1       3.031   7.643  17.708  0.00  0.00    +0.000 C 
BRANCH  13  14
ATOM     14  C   UNL     1       3.139   6.190  18.001  0.00  0.00    +0.000 A 
ATOM     15  C   UNL     1       4.108   5.450  17.309  0.00  0.00    +0.000 A 
ATOM     16  C   UNL     1       4.193   4.068  17.485  0.00  0.00    +0.000 A 
ATOM     17  C   UNL     1       3.306   3.427  18.348  0.00  0.00    +0.000 A 
ATOM     18 BR   UNL     1       3.378   1.548  18.540  0.00  0.00    +0.000 Br
ATOM     19  C   UNL     1       2.347   4.157  19.052  0.00  0.00    +0.000 A 
ATOM     20  C   UNL     1       2.261   5.542  18.879  0.00  0.00    +0.000 A 
ENDBRANCH  13  14
ENDBRANCH  10  13
ENDBRANCH   1  11
BRANCH   3  21
ATOM     21  C   UNL     1      -0.488  12.612  21.072  0.00  0.00    +0.000 C 
BRANCH  21  22
ATOM     22  C   UNL     1      -1.125  12.084  22.364  0.00  0.00    +0.000 C 
BRANCH  22  23
ATOM     23  O   UNL     1      -0.318  11.068  22.974  0.00  0.00    +0.000 OA
ATOM     24  H   UNL     1       0.527  11.026  22.487  0.00  0.00    +0.000 HD
ENDBRANCH  22  23
BRANCH  22  25
ATOM     25  C   UNL     1      -1.449  13.189  23.399  0.00  0.00    +0.000 C 
BRANCH  25  26
ATOM     26  N   UNL     1      -2.824  13.730  23.345  0.00  0.00    +0.000 NA
ATOM     27  C   UNL     1      -3.814  12.856  23.977  0.00  0.00    +0.000 C 
ATOM     28  C   UNL     1      -5.155  12.955  23.243  0.00  0.00    +0.000 C 
ATOM     29  C   UNL     1      -6.020  14.131  23.673  0.00  0.00    +0.000 C 
ATOM     30  C   UNL     1      -5.361  15.493  23.489  0.00  0.00    +0.000 C 
ATOM     31  C   UNL     1      -4.151  15.688  24.394  0.00  0.00    +0.000 C 
ATOM     32  C   UNL     1      -2.836  15.118  23.841  0.00  0.00    +0.000 C 
ENDBRANCH  25  26
ENDBRANCH  22  25
ENDBRANCH  21  22
ENDBRANCH   3  21
TORSDOF 8
ENDMDL
