MODEL 1
REMARK VINA RESULT:      -6.8      0.000      0.000
REMARK  Name = 
REMARK  8 active torsions:
REMARK  status: ('A' for Active; 'I' for Inactive)
REMARK    1  A    between atoms: C_1  and  C_2
REMARK    2  A    between atoms: C_2  and  C_3
REMARK    3  A    between atoms: C_2  and  C_4
REMARK    4  A    between atoms: C_7  and  C_8
REMARK    5  A    between atoms: C_8  and  C_9
REMARK    6  A    between atoms: C_8  and  N_15
REMARK    7  A    between atoms: N_15  and  C_16
REMARK    8  A    between atoms: N_15  and  C_17
REMARK                            x       y       z     vdW  Elec       q    Type
REMARK                         _______ _______ _______ _____ _____    ______ ____
ROOT
ATOM      1  C   UNL     1       4.787   3.940  17.626  0.00  0.00    +0.000 C 
ENDROOT
BRANCH   1   5
ATOM      2  C   UNL     1       1.718   2.760  19.287  0.00  0.00    +0.000 C 
ATOM      3  O   UNL     1       1.723   3.763  18.274  0.00  0.00    +0.000 OA
ATOM      4  C   UNL     1       2.273   3.242  17.071  0.00  0.00    +0.000 C 
ATOM      5  C   UNL     1       3.729   2.816  17.267  0.00  0.00    +0.000 C 
ATOM      6  C   UNL     1       3.652   1.764  18.401  0.00  0.00    +0.000 C 
ATOM      7  O   UNL     1       3.044   2.320  19.570  0.00  0.00    +0.000 OA
BRANCH   2   9
ATOM      8  C   UNL     1       1.548   2.594  21.829  0.00  0.00    +0.000 C 
ATOM      9  C   UNL     1       1.064   3.312  20.566  0.00  0.00    +0.000 C 
ATOM     10  C   UNL     1       1.323   4.816  20.694  0.00  0.00    +0.000 C 
ENDBRANCH   2   9
ENDBRANCH   1   5
BRANCH   1  11
ATOM     11  C   UNL     1       5.596   4.194  16.328  0.00  0.00    +0.000 A 
ATOM     12  C   UNL     1       6.913   4.689  16.382  0.00  0.00    +0.000 A 
ATOM     13  C   UNL     1       7.616   4.977  15.212  0.00  0.00    +0.000 A 
ATOM     14  C   UNL     1       7.026   4.750  13.972  0.00  0.00    +0.000 A 
ATOM     15  C   UNL     1       5.735   4.227  13.901  0.00  0.00    +0.000 A 
ATOM     16  C   UNL     1       5.022   3.950  15.069  0.00  0.00    +0.000 A 
ENDBRANCH   1  11
BRANCH   1  17
ATOM     17  N   UNL     1       4.298   5.263  18.148  0.00  0.00    +0.000 NA
ATOM     18  C   UNL     1       4.901   5.659  19.421  0.00  0.00    +0.000 C 
ATOM     19  C   UNL     1       4.594   6.345  17.183  0.00  0.00    +0.000 C 
ENDBRANCH   1  17
TORSDOF 4
ENDMDL
MODEL 2
REMARK VINA RESULT:      -6.8      0.160      1.120
REMARK  Name = 
REMARK  8 active torsions:
REMARK  status: ('A' for Active; 'I' for Inactive)
REMARK    1  A    between atoms: C_1  and  C_2
REMARK    2  A    between atoms: C_2  and  C_3
REMARK    3  A    between atoms: C_2  and  C_4
REMARK    4  A    between atoms: C_7  and  C_8
REMARK    5  A    between atoms: C_8  and  C_9
REMARK    6  A    between atoms: C_8  and  N_15
REMARK    7  A    between atoms: N_15  and  C_16
REMARK    8  A    between atoms: N_15  and  C_17
REMARK                            x       y       z     vdW  Elec       q    Type
REMARK                         _______ _______ _______ _____ _____    ______ ____
ROOT
ATOM      1  C   UNL     1       4.827   3.890  17.611  0.00  0.00    +0.000 C 
ENDROOT
BRANCH   1   5
ATOM      2  C   UNL     1       1.714   2.863  19.293  0.00  0.00    +0.000 C 
ATOM      3  O   UNL     1       1.774   3.915  18.332  0.00  0.00    +0.000 OA
ATOM      4  C   UNL     1       2.254   3.416  17.090  0.00  0.00    +0.000 C 
ATOM      5  C   UNL     1       3.676   2.870  17.224  0.00  0.00    +0.000 C 
ATOM      6  C   UNL     1       3.544   1.770  18.306  0.00  0.00    +0.000 C 
ATOM      7  O   UNL     1       3.009   2.309  19.518  0.00  0.00    +0.000 OA
BRANCH   2   9
ATOM      8  C   UNL     1       1.645   2.621  21.834  0.00  0.00    +0.000 C 
ATOM      9  C   UNL     1       1.135   3.396  20.615  0.00  0.00    +0.000 C 
ATOM     10  C   UNL     1       1.454   4.885  20.779  0.00  0.00    +0.000 C 
ENDBRANCH   2   9
ENDBRANCH   1   5
BRANCH   1  11
ATOM     11  C   UNL     1       5.583   4.199  16.293  0.00  0.00    +0.000 A 
ATOM     12  C   UNL     1       4.973   3.982  15.042  0.00  0.00    +0.000 A 
ATOM     13  C   UNL     1       5.676   4.201  13.858  0.00  0.00    +0.000 A 
ATOM     14  C   UNL     1       6.989   4.664  13.903  0.00  0.00    +0.000 A 
ATOM     15  C   UNL     1       7.595   4.917  15.133  0.00  0.00    +0.000 A 
ATOM     16  C   UNL     1       6.900   4.687  16.322  0.00  0.00    +0.000 A 
ENDBRANCH   1  11
BRANCH   1  17
ATOM     17  N   UNL     1       4.458   5.193  18.264  0.00  0.00    +0.000 NA
ATOM     18  C   UNL     1       5.354   5.586  19.353  0.00  0.00    +0.000 C 
ATOM     19  C   UNL     1       4.480   6.295  17.277  0.00  0.00    +0.000 C 
ENDBRANCH   1  17
TORSDOF 4
ENDMDL
MODEL 3
REMARK VINA RESULT:      -6.7      2.697      6.182
REMARK  Name = 
REMARK  8 active torsions:
REMARK  status: ('A' for Active; 'I' for Inactive)
REMARK    1  A    between atoms: C_1  and  C_2
REMARK    2  A    between atoms: C_2  and  C_3
REMARK    3  A    between atoms: C_2  and  C_4
REMARK    4  A    between atoms: C_7  and  C_8
REMARK    5  A    between atoms: C_8  and  C_9
REMARK    6  A    between atoms: C_8  and  N_15
REMARK    7  A    between atoms: N_15  and  C_16
REMARK    8  A    between atoms: N_15  and  C_17
REMARK                            x       y       z     vdW  Elec       q    Type
REMARK                         _______ _______ _______ _____ _____    ______ ____
ROOT
ATOM      1  C   UNL     1       5.924   6.207  17.452  0.00  0.00    +0.000 C 
ENDROOT
BRANCH   1   5
ATOM      2  C   UNL     1       6.464   4.105  14.475  0.00  0.00    +0.000 C 
ATOM      3  O   UNL     1       7.528   4.663  15.242  0.00  0.00    +0.000 OA
ATOM      4  C   UNL     1       7.457   4.203  16.586  0.00  0.00    +0.000 C 
ATOM      5  C   UNL     1       6.158   4.651  17.257  0.00  0.00    +0.000 C 
ATOM      6  C   UNL     1       5.054   4.049  16.353  0.00  0.00    +0.000 C 
ATOM      7  O   UNL     1       5.199   4.499  15.003  0.00  0.00    +0.000 OA
BRANCH   2   9
ATOM      8  C   UNL     1       7.911   5.264  12.719  0.00  0.00    +0.000 C 
ATOM      9  C   UNL     1       6.584   4.556  13.009  0.00  0.00    +0.000 C 
ATOM     10  C   UNL     1       6.418   3.362  12.065  0.00  0.00    +0.000 C 
ENDBRANCH   2   9
ENDBRANCH   1   5
BRANCH   1  11
ATOM     11  C   UNL     1       4.535   6.348  18.127  0.00  0.00    +0.000 A 
ATOM     12  C   UNL     1       3.594   7.283  17.656  0.00  0.00    +0.000 A 
ATOM     13  C   UNL     1       2.370   7.452  18.303  0.00  0.00    +0.000 A 
ATOM     14  C   UNL     1       2.057   6.672  19.415  0.00  0.00    +0.000 A 
ATOM     15  C   UNL     1       2.964   5.718  19.873  0.00  0.00    +0.000 A 
ATOM     16  C   UNL     1       4.197   5.554  19.236  0.00  0.00    +0.000 A 
ENDBRANCH   1  11
BRANCH   1  17
ATOM     17  N   UNL     1       6.923   7.001  18.248  0.00  0.00    +0.000 NA
ATOM     18  C   UNL     1       7.885   6.179  18.983  0.00  0.00    +0.000 C 
ATOM     19  C   UNL     1       7.710   7.887  17.362  0.00  0.00    +0.000 C 
ENDBRANCH   1  17
TORSDOF 4
ENDMDL
MODEL 4
REMARK VINA RESULT:      -6.6      2.648      6.124
REMARK  Name = 
REMARK  8 active torsions:
REMARK  status: ('A' for Active; 'I' for Inactive)
REMARK    1  A    between atoms: C_1  and  C_2
REMARK    2  A    between atoms: C_2  and  C_3
REMARK    3  A    between atoms: C_2  and  C_4
REMARK    4  A    between atoms: C_7  and  C_8
REMARK    5  A    between atoms: C_8  and  C_9
REMARK    6  A    between atoms: C_8  and  N_15
REMARK    7  A    between atoms: N_15  and  C_16
REMARK    8  A    between atoms: N_15  and  C_17
REMARK                            x       y       z     vdW  Elec       q    Type
REMARK                         _______ _______ _______ _____ _____    ______ ____
ROOT
ATOM      1  C   UNL     1       5.925   6.167  17.483  0.00  0.00    +0.000 C 
ENDROOT
BRANCH   1   5
ATOM      2  C   UNL     1       6.464   4.074  14.500  0.00  0.00    +0.000 C 
ATOM      3  O   UNL     1       7.527   4.668  15.241  0.00  0.00    +0.000 OA
ATOM      4  C   UNL     1       7.501   4.210  16.588  0.00  0.00    +0.000 C 
ATOM      5  C   UNL     1       6.204   4.619  17.286  0.00  0.00    +0.000 C 
ATOM      6  C   UNL     1       5.099   3.979  16.410  0.00  0.00    +0.000 C 
ATOM      7  O   UNL     1       5.200   4.429  15.055  0.00  0.00    +0.000 OA
BRANCH   2   9
ATOM      8  C   UNL     1       7.858   5.222  12.695  0.00  0.00    +0.000 C 
ATOM      9  C   UNL     1       6.537   4.524  13.030  0.00  0.00    +0.000 C 
ATOM     10  C   UNL     1       6.329   3.330  12.093  0.00  0.00    +0.000 C 
ENDBRANCH   2   9
ENDBRANCH   1   5
BRANCH   1  11
ATOM     11  C   UNL     1       4.555   6.265  18.204  0.00  0.00    +0.000 A 
ATOM     12  C   UNL     1       4.269   5.463  19.325  0.00  0.00    +0.000 A 
ATOM     13  C   UNL     1       3.015   5.506  19.933  0.00  0.00    +0.000 A 
ATOM     14  C   UNL     1       2.035   6.369  19.447  0.00  0.00    +0.000 A 
ATOM     15  C   UNL     1       2.314   7.196  18.359  0.00  0.00    +0.000 A 
ATOM     16  C   UNL     1       3.564   7.147  17.739  0.00  0.00    +0.000 A 
ENDBRANCH   1  11
BRANCH   1  17
ATOM     17  N   UNL     1       6.921   6.998  18.243  0.00  0.00    +0.000 NA
ATOM     18  C   UNL     1       7.909   6.211  18.982  0.00  0.00    +0.000 C 
ATOM     19  C   UNL     1       7.679   7.875  17.322  0.00  0.00    +0.000 C 
ENDBRANCH   1  17
TORSDOF 4
ENDMDL
MODEL 5
REMARK VINA RESULT:      -6.5      2.028      5.723
REMARK  Name = 
REMARK  8 active torsions:
REMARK  status: ('A' for Active; 'I' for Inactive)
REMARK    1  A    between atoms: C_1  and  C_2
REMARK    2  A    between atoms: C_2  and  C_3
REMARK    3  A    between atoms: C_2  and  C_4
REMARK    4  A    between atoms: C_7  and  C_8
REMARK    5  A    between atoms: C_8  and  C_9
REMARK    6  A    between atoms: C_8  and  N_15
REMARK    7  A    between atoms: N_15  and  C_16
REMARK    8  A    between atoms: N_15  and  C_17
REMARK                            x       y       z     vdW  Elec       q    Type
REMARK                         _______ _______ _______ _____ _____    ______ ____
ROOT
ATOM      1  C   UNL     1       3.040   5.730  18.119  0.00  0.00    +0.000 C 
ENDROOT
BRANCH   1   5
ATOM      2  C   UNL     1       6.154   4.620  16.495  0.00  0.00    +0.000 C 
ATOM      3  O   UNL     1       5.729   5.981  16.525  0.00  0.00    +0.000 OA
ATOM      4  C   UNL     1       5.603   6.426  17.869  0.00  0.00    +0.000 C 
ATOM      5  C   UNL     1       4.540   5.623  18.621  0.00  0.00    +0.000 C 
ATOM      6  C   UNL     1       5.041   4.162  18.512  0.00  0.00    +0.000 C 
ATOM      7  O   UNL     1       5.203   3.779  17.143  0.00  0.00    +0.000 OA
BRANCH   2   9
ATOM      8  C   UNL     1       5.041   4.170  14.241  0.00  0.00    +0.000 C 
ATOM      9  C   UNL     1       6.350   4.166  15.038  0.00  0.00    +0.000 C 
ATOM     10  C   UNL     1       7.386   5.048  14.335  0.00  0.00    +0.000 C 
ENDBRANCH   2   9
ENDBRANCH   1   5
BRANCH   1  11
ATOM     11  C   UNL     1       2.266   4.600  18.846  0.00  0.00    +0.000 A 
ATOM     12  C   UNL     1       2.289   4.495  20.250  0.00  0.00    +0.000 A 
ATOM     13  C   UNL     1       1.645   3.441  20.898  0.00  0.00    +0.000 A 
ATOM     14  C   UNL     1       0.947   2.491  20.156  0.00  0.00    +0.000 A 
ATOM     15  C   UNL     1       0.885   2.600  18.768  0.00  0.00    +0.000 A 
ATOM     16  C   UNL     1       1.540   3.646  18.113  0.00  0.00    +0.000 A 
ENDBRANCH   1  11
BRANCH   1  17
ATOM     17  N   UNL     1       2.294   7.021  18.319  0.00  0.00    +0.000 NA
ATOM     18  C   UNL     1       2.282   7.491  19.705  0.00  0.00    +0.000 C 
ATOM     19  C   UNL     1       2.897   8.102  17.509  0.00  0.00    +0.000 C 
ENDBRANCH   1  17
TORSDOF 4
ENDMDL
MODEL 6
REMARK VINA RESULT:      -6.5      2.039      5.818
REMARK  Name = 
REMARK  8 active torsions:
REMARK  status: ('A' for Active; 'I' for Inactive)
REMARK    1  A    between atoms: C_1  and  C_2
REMARK    2  A    between atoms: C_2  and  C_3
REMARK    3  A    between atoms: C_2  and  C_4
REMARK    4  A    between atoms: C_7  and  C_8
REMARK    5  A    between atoms: C_8  and  C_9
REMARK    6  A    between atoms: C_8  and  N_15
REMARK    7  A    between atoms: N_15  and  C_16
REMARK    8  A    between atoms: N_15  and  C_17
REMARK                            x       y       z     vdW  Elec       q    Type
REMARK                         _______ _______ _______ _____ _____    ______ ____
ROOT
ATOM      1  C   UNL     1       3.077   5.743  18.087  0.00  0.00    +0.000 C 
ENDROOT
BRANCH   1   5
ATOM      2  C   UNL     1       6.187   4.664  16.434  0.00  0.00    +0.000 C 
ATOM      3  O   UNL     1       5.740   6.018  16.454  0.00  0.00    +0.000 OA
ATOM      4  C   UNL     1       5.624   6.477  17.795  0.00  0.00    +0.000 C 
ATOM      5  C   UNL     1       4.585   5.666  18.570  0.00  0.00    +0.000 C 
ATOM      6  C   UNL     1       5.108   4.212  18.472  0.00  0.00    +0.000 C 
ATOM      7  O   UNL     1       5.258   3.816  17.106  0.00  0.00    +0.000 OA
BRANCH   2   9
ATOM      8  C   UNL     1       5.051   4.160  14.204  0.00  0.00    +0.000 C 
ATOM      9  C   UNL     1       6.371   4.195  14.981  0.00  0.00    +0.000 C 
ATOM     10  C   UNL     1       7.377   5.091  14.251  0.00  0.00    +0.000 C 
ENDBRANCH   2   9
ENDBRANCH   1   5
BRANCH   1  11
ATOM     11  C   UNL     1       2.338   4.587  18.810  0.00  0.00    +0.000 A 
ATOM     12  C   UNL     1       1.597   3.636  18.083  0.00  0.00    +0.000 A 
ATOM     13  C   UNL     1       0.882   2.634  18.739  0.00  0.00    +0.000 A 
ATOM     14  C   UNL     1       0.918   2.550  20.129  0.00  0.00    +0.000 A 
ATOM     15  C   UNL     1       1.676   3.462  20.862  0.00  0.00    +0.000 A 
ATOM     16  C   UNL     1       2.383   4.476  20.210  0.00  0.00    +0.000 A 
ENDBRANCH   1  11
BRANCH   1  17
ATOM     17  N   UNL     1       2.303   7.013  18.310  0.00  0.00    +0.000 NA
ATOM     18  C   UNL     1       2.296   7.468  19.701  0.00  0.00    +0.000 C 
ATOM     19  C   UNL     1       2.871   8.118  17.505  0.00  0.00    +0.000 C 
ENDBRANCH   1  17
TORSDOF 4
ENDMDL
MODEL 7
REMARK VINA RESULT:      -6.4      2.083      5.978
REMARK  Name = 
REMARK  8 active torsions:
REMARK  status: ('A' for Active; 'I' for Inactive)
REMARK    1  A    between atoms: C_1  and  C_2
REMARK    2  A    between atoms: C_2  and  C_3
REMARK    3  A    between atoms: C_2  and  C_4
REMARK    4  A    between atoms: C_7  and  C_8
REMARK    5  A    between atoms: C_8  and  C_9
REMARK    6  A    between atoms: C_8  and  N_15
REMARK    7  A    between atoms: N_15  and  C_16
REMARK    8  A    between atoms: N_15  and  C_17
REMARK                            x       y       z     vdW  Elec       q    Type
REMARK                         _______ _______ _______ _____ _____    ______ ____
ROOT
ATOM      1  C   UNL     1       3.469   5.809  18.363  0.00  0.00    +0.000 C 
ENDROOT
BRANCH   1   5
ATOM      2  C   UNL     1       6.161   4.899  16.017  0.00  0.00    +0.000 C 
ATOM      3  O   UNL     1       6.018   6.202  16.577  0.00  0.00    +0.000 OA
ATOM      4  C   UNL     1       6.091   6.138  17.996  0.00  0.00    +0.000 C 
ATOM      5  C   UNL     1       4.954   5.292  18.571  0.00  0.00    +0.000 C 
ATOM      6  C   UNL     1       5.145   3.914  17.893  0.00  0.00    +0.000 C 
ATOM      7  O   UNL     1       5.117   4.038  16.468  0.00  0.00    +0.000 OA
BRANCH   2   9
ATOM      8  C   UNL     1       7.539   5.212  13.891  0.00  0.00    +0.000 C 
ATOM      9  C   UNL     1       6.144   4.985  14.481  0.00  0.00    +0.000 C 
ATOM     10  C   UNL     1       5.529   3.717  13.880  0.00  0.00    +0.000 C 
ENDBRANCH   2   9
ENDBRANCH   1   5
BRANCH   1  11
ATOM     11  C   UNL     1       2.564   4.836  19.162  0.00  0.00    +0.000 A 
ATOM     12  C   UNL     1       2.749   4.649  20.546  0.00  0.00    +0.000 A 
ATOM     13  C   UNL     1       1.975   3.727  21.251  0.00  0.00    +0.000 A 
ATOM     14  C   UNL     1       0.989   2.997  20.591  0.00  0.00    +0.000 A 
ATOM     15  C   UNL     1       0.770   3.196  19.229  0.00  0.00    +0.000 A 
ATOM     16  C   UNL     1       1.551   4.109  18.515  0.00  0.00    +0.000 A 
ENDBRANCH   1  11
BRANCH   1  17
ATOM     17  N   UNL     1       3.124   7.217  18.762  0.00  0.00    +0.000 NA
ATOM     18  C   UNL     1       2.617   8.039  17.663  0.00  0.00    +0.000 C 
ATOM     19  C   UNL     1       2.079   7.219  19.811  0.00  0.00    +0.000 C 
ENDBRANCH   1  17
TORSDOF 4
ENDMDL
MODEL 8
REMARK VINA RESULT:      -6.4      2.085      6.080
REMARK  Name = 
REMARK  8 active torsions:
REMARK  status: ('A' for Active; 'I' for Inactive)
REMARK    1  A    between atoms: C_1  and  C_2
REMARK    2  A    between atoms: C_2  and  C_3
REMARK    3  A    between atoms: C_2  and  C_4
REMARK    4  A    between atoms: C_7  and  C_8
REMARK    5  A    between atoms: C_8  and  C_9
REMARK    6  A    between atoms: C_8  and  N_15
REMARK    7  A    between atoms: N_15  and  C_16
REMARK    8  A    between atoms: N_15  and  C_17
REMARK                            x       y       z     vdW  Elec       q    Type
REMARK                         _______ _______ _______ _____ _____    ______ ____
ROOT
ATOM      1  C   UNL     1       3.508   5.773  18.420  0.00  0.00    +0.000 C 
ENDROOT
BRANCH   1   5
ATOM      2  C   UNL     1       6.176   4.947  16.017  0.00  0.00    +0.000 C 
ATOM      3  O   UNL     1       6.003   6.246  16.579  0.00  0.00    +0.000 OA
ATOM      4  C   UNL     1       6.109   6.185  17.996  0.00  0.00    +0.000 C 
ATOM      5  C   UNL     1       5.013   5.304  18.596  0.00  0.00    +0.000 C 
ATOM      6  C   UNL     1       5.233   3.932  17.914  0.00  0.00    +0.000 C 
ATOM      7  O   UNL     1       5.170   4.054  16.491  0.00  0.00    +0.000 OA
BRANCH   2   9
ATOM      8  C   UNL     1       7.513   5.158  13.853  0.00  0.00    +0.000 C 
ATOM      9  C   UNL     1       6.123   5.031  14.482  0.00  0.00    +0.000 C 
ATOM     10  C   UNL     1       5.403   3.809  13.903  0.00  0.00    +0.000 C 
ENDBRANCH   2   9
ENDBRANCH   1   5
BRANCH   1  11
ATOM     11  C   UNL     1       2.652   4.771  19.238  0.00  0.00    +0.000 A 
ATOM     12  C   UNL     1       1.590   4.069  18.636  0.00  0.00    +0.000 A 
ATOM     13  C   UNL     1       0.782   3.216  19.387  0.00  0.00    +0.000 A 
ATOM     14  C   UNL     1       1.037   3.031  20.744  0.00  0.00    +0.000 A 
ATOM     15  C   UNL     1       2.107   3.691  21.347  0.00  0.00    +0.000 A 
ATOM     16  C   UNL     1       2.912   4.556  20.602  0.00  0.00    +0.000 A 
ENDBRANCH   1  11
BRANCH   1  17
ATOM     17  N   UNL     1       3.126   7.168  18.830  0.00  0.00    +0.000 NA
ATOM     18  C   UNL     1       2.657   8.005  17.724  0.00  0.00    +0.000 C 
ATOM     19  C   UNL     1       2.036   7.138  19.831  0.00  0.00    +0.000 C 
ENDBRANCH   1  17
TORSDOF 4
ENDMDL
MODEL 9
REMARK VINA RESULT:      -6.2      1.817      2.893
REMARK  Name = 
REMARK  8 active torsions:
REMARK  status: ('A' for Active; 'I' for Inactive)
REMARK    1  A    between atoms: C_1  and  C_2
REMARK    2  A    between atoms: C_2  and  C_3
REMARK    3  A    between atoms: C_2  and  C_4
REMARK    4  A    between atoms: C_7  and  C_8
REMARK    5  A    between atoms: C_8  and  C_9
REMARK    6  A    between atoms: C_8  and  N_15
REMARK    7  A    between atoms: N_15  and  C_16
REMARK    8  A    between atoms: N_15  and  C_17
REMARK                            x       y       z     vdW  Elec       q    Type
REMARK                         _______ _______ _______ _____ _____    ______ ____
ROOT
ATOM      1  C   UNL     1       6.252   4.688  16.411  0.00  0.00    +0.000 C 
ENDROOT
BRANCH   1   5
ATOM      2  C   UNL     1       3.559   4.187  18.874  0.00  0.00    +0.000 C 
ATOM      3  O   UNL     1       4.544   5.210  18.989  0.00  0.00    +0.000 OA
ATOM      4  C   UNL     1       4.491   6.072  17.859  0.00  0.00    +0.000 C 
ATOM      5  C   UNL     1       4.804   5.313  16.569  0.00  0.00    +0.000 C 
ATOM      6  C   UNL     1       3.729   4.199  16.531  0.00  0.00    +0.000 C 
ATOM      7  O   UNL     1       3.788   3.393  17.711  0.00  0.00    +0.000 OA
BRANCH   2   9
ATOM      8  C   UNL     1       2.177   2.871  20.570  0.00  0.00    +0.000 C 
ATOM      9  C   UNL     1       3.580   3.297  20.129  0.00  0.00    +0.000 C 
ATOM     10  C   UNL     1       4.447   2.056  19.892  0.00  0.00    +0.000 C 
ENDBRANCH   2   9
ENDBRANCH   1   5
BRANCH   1  11
ATOM     11  C   UNL     1       6.485   4.534  14.886  0.00  0.00    +0.000 A 
ATOM     12  C   UNL     1       5.701   3.650  14.120  0.00  0.00    +0.000 A 
ATOM     13  C   UNL     1       5.954   3.466  12.761  0.00  0.00    +0.000 A 
ATOM     14  C   UNL     1       6.975   4.180  12.140  0.00  0.00    +0.000 A 
ATOM     15  C   UNL     1       7.738   5.085  12.876  0.00  0.00    +0.000 A 
ATOM     16  C   UNL     1       7.498   5.264  14.240  0.00  0.00    +0.000 A 
ENDBRANCH   1  11
BRANCH   1  17
ATOM     17  N   UNL     1       7.429   5.415  17.000  0.00  0.00    +0.000 NA
ATOM     18  C   UNL     1       7.173   6.829  17.282  0.00  0.00    +0.000 C 
ATOM     19  C   UNL     1       7.838   4.794  18.280  0.00  0.00    +0.000 C 
ENDBRANCH   1  17
TORSDOF 4
ENDMDL
