MODEL 1
REMARK VINA RESULT:      -7.1      0.000      0.000
REMARK  Name = 
REMARK  9 active torsions:
REMARK  status: ('A' for Active; 'I' for Inactive)
REMARK    1  A    between atoms: C_1  and  O_2
REMARK    2  A    between atoms: O_2  and  C_3
REMARK    3  A    between atoms: C_3  and  C_4
REMARK    4  A    between atoms: C_7  and  C_8
REMARK    5  A    between atoms: C_8  and  N_9
REMARK    6  A    between atoms: C_13  and  C_14
REMARK    7  A    between atoms: C_13  and  C_16
REMARK    8  A    between atoms: C_14  and  O_15
REMARK    9  A    between atoms: C_16  and  C_17
REMARK                            x       y       z     vdW  Elec       q    Type
REMARK                         _______ _______ _______ _____ _____    ______ ____
ROOT
ATOM      1  N   UNL     1       2.502   4.328  20.049  0.00  0.00    +0.000 NA
ATOM      2  C   UNL     1       1.177   4.065  19.448  0.00  0.00    +0.000 C 
ATOM      3  C   UNL     1       1.168   2.859  18.512  0.00  0.00    +0.000 C 
ATOM      4  C   UNL     1       2.263   2.947  17.456  0.00  0.00    +0.000 C 
ATOM      5  C   UNL     1       3.663   3.238  18.041  0.00  0.00    +0.000 C 
ATOM      6  C   UNL     1       3.539   4.461  19.000  0.00  0.00    +0.000 C 
ENDROOT
BRANCH   1   7
ATOM      7  C   UNL     1       2.447   5.605  20.819  0.00  0.00    +0.000 C 
BRANCH   7  11
ATOM      8  C   UNL     1       1.394   8.812  19.569  0.00  0.00    +0.000 A 
ATOM      9  C   UNL     1       2.049   8.419  18.421  0.00  0.00    +0.000 A 
ATOM     10  C   UNL     1       2.584   7.136  18.679  0.00  0.00    +0.000 A 
ATOM     11  C   UNL     1       2.224   6.811  19.968  0.00  0.00    +0.000 A 
ATOM     12  O   UNL     1       1.501   7.834  20.520  0.00  0.00    +0.000 OA
BRANCH   8  13
ATOM     13  C   UNL     1       0.669  10.052  19.948  0.00  0.00    +0.000 C 
BRANCH  13  15
ATOM     14  C   UNL     1      -0.180  10.595  22.078  0.00  0.00    +0.000 C 
ATOM     15  O   UNL     1       0.989  10.341  21.309  0.00  0.00    +0.000 OA
ENDBRANCH  13  15
ENDBRANCH   8  13
ENDBRANCH   7  11
ENDBRANCH   1   7
BRANCH   5  16
ATOM     16  C   UNL     1       4.244   2.011  18.796  0.00  0.00    +0.000 C 
BRANCH  16  17
ATOM     17  O   UNL     1       4.985   2.331  19.965  0.00  0.00    +0.000 OA
ATOM     18  H   UNL     1       4.661   3.197  20.291  0.00  0.00    +0.000 HD
ENDBRANCH  16  17
ENDBRANCH   5  16
BRANCH   5  19
ATOM     19  C   UNL     1       4.656   3.649  16.902  0.00  0.00    +0.000 C 
BRANCH  19  20
ATOM     20  C   UNL     1       5.625   4.779  17.182  0.00  0.00    +0.000 A 
ATOM     21  C   UNL     1       5.376   6.068  16.692  0.00  0.00    +0.000 A 
ATOM     22  C   UNL     1       6.244   7.125  16.983  0.00  0.00    +0.000 A 
ATOM     23  C   UNL     1       7.373   6.903  17.772  0.00  0.00    +0.000 A 
ATOM     24  C   UNL     1       7.631   5.626  18.263  0.00  0.00    +0.000 A 
ATOM     25  C   UNL     1       6.765   4.570  17.973  0.00  0.00    +0.000 A 
ENDBRANCH  19  20
ENDBRANCH   5  19
TORSDOF 8
ENDMDL
MODEL 2
REMARK VINA RESULT:      -7.1      0.809      1.385
REMARK  Name = 
REMARK  9 active torsions:
REMARK  status: ('A' for Active; 'I' for Inactive)
REMARK    1  A    between atoms: C_1  and  O_2
REMARK    2  A    between atoms: O_2  and  C_3
REMARK    3  A    between atoms: C_3  and  C_4
REMARK    4  A    between atoms: C_7  and  C_8
REMARK    5  A    between atoms: C_8  and  N_9
REMARK    6  A    between atoms: C_13  and  C_14
REMARK    7  A    between atoms: C_13  and  C_16
REMARK    8  A    between atoms: C_14  and  O_15
REMARK    9  A    between atoms: C_16  and  C_17
REMARK                            x       y       z     vdW  Elec       q    Type
REMARK                         _______ _______ _______ _____ _____    ______ ____
ROOT
ATOM      1  N   UNL     1       2.435   4.128  20.203  0.00  0.00    +0.000 NA
ATOM      2  C   UNL     1       1.106   3.811  19.638  0.00  0.00    +0.000 C 
ATOM      3  C   UNL     1       1.110   2.568  18.750  0.00  0.00    +0.000 C 
ATOM      4  C   UNL     1       2.184   2.640  17.672  0.00  0.00    +0.000 C 
ATOM      5  C   UNL     1       3.587   2.987  18.219  0.00  0.00    +0.000 C 
ATOM      6  C   UNL     1       3.451   4.244  19.130  0.00  0.00    +0.000 C 
ENDROOT
BRANCH   1   7
ATOM      7  C   UNL     1       2.363   5.433  20.923  0.00  0.00    +0.000 C 
BRANCH   7  11
ATOM      8  C   UNL     1       1.537   8.641  19.515  0.00  0.00    +0.000 A 
ATOM      9  C   UNL     1       2.195   8.161  18.401  0.00  0.00    +0.000 A 
ATOM     10  C   UNL     1       2.645   6.861  18.726  0.00  0.00    +0.000 A 
ATOM     11  C   UNL     1       2.234   6.613  20.018  0.00  0.00    +0.000 A 
ATOM     12  O   UNL     1       1.562   7.700  20.508  0.00  0.00    +0.000 OA
BRANCH   8  13
ATOM     13  C   UNL     1       0.880   9.937  19.823  0.00  0.00    +0.000 C 
BRANCH  13  15
ATOM     14  C   UNL     1       1.477  12.093  19.082  0.00  0.00    +0.000 C 
ATOM     15  O   UNL     1       1.057  10.791  18.693  0.00  0.00    +0.000 OA
ENDBRANCH  13  15
ENDBRANCH   8  13
ENDBRANCH   7  11
ENDBRANCH   1   7
BRANCH   5  16
ATOM     16  C   UNL     1       4.210   1.805  19.010  0.00  0.00    +0.000 C 
BRANCH  16  17
ATOM     17  O   UNL     1       5.042   2.192  20.096  0.00  0.00    +0.000 OA
ATOM     18  H   UNL     1       5.787   1.557  20.135  0.00  0.00    +0.000 HD
ENDBRANCH  16  17
ENDBRANCH   5  16
BRANCH   5  19
ATOM     19  C   UNL     1       4.549   3.375  17.046  0.00  0.00    +0.000 C 
BRANCH  19  20
ATOM     20  C   UNL     1       5.417   4.605  17.221  0.00  0.00    +0.000 A 
ATOM     21  C   UNL     1       6.566   4.558  18.022  0.00  0.00    +0.000 A 
ATOM     22  C   UNL     1       7.394   5.677  18.153  0.00  0.00    +0.000 A 
ATOM     23  C   UNL     1       7.082   6.857  17.479  0.00  0.00    +0.000 A 
ATOM     24  C   UNL     1       5.943   6.916  16.680  0.00  0.00    +0.000 A 
ATOM     25  C   UNL     1       5.115   5.800  16.550  0.00  0.00    +0.000 A 
ENDBRANCH  19  20
ENDBRANCH   5  19
TORSDOF 8
ENDMDL
MODEL 3
REMARK VINA RESULT:      -7.0      4.088      8.047
REMARK  Name = 
REMARK  9 active torsions:
REMARK  status: ('A' for Active; 'I' for Inactive)
REMARK    1  A    between atoms: C_1  and  O_2
REMARK    2  A    between atoms: O_2  and  C_3
REMARK    3  A    between atoms: C_3  and  C_4
REMARK    4  A    between atoms: C_7  and  C_8
REMARK    5  A    between atoms: C_8  and  N_9
REMARK    6  A    between atoms: C_13  and  C_14
REMARK    7  A    between atoms: C_13  and  C_16
REMARK    8  A    between atoms: C_14  and  O_15
REMARK    9  A    between atoms: C_16  and  C_17
REMARK                            x       y       z     vdW  Elec       q    Type
REMARK                         _______ _______ _______ _____ _____    ______ ____
ROOT
ATOM      1  N   UNL     1       6.482   5.351  15.647  0.00  0.00    +0.000 NA
ATOM      2  C   UNL     1       5.498   6.435  15.443  0.00  0.00    +0.000 C 
ATOM      3  C   UNL     1       4.641   6.711  16.675  0.00  0.00    +0.000 C 
ATOM      4  C   UNL     1       3.986   5.444  17.211  0.00  0.00    +0.000 C 
ATOM      5  C   UNL     1       4.977   4.279  17.423  0.00  0.00    +0.000 C 
ATOM      6  C   UNL     1       5.813   4.115  16.117  0.00  0.00    +0.000 C 
ENDROOT
BRANCH   1   7
ATOM      7  C   UNL     1       7.160   5.053  14.352  0.00  0.00    +0.000 C 
BRANCH   7  11
ATOM      8  C   UNL     1       6.169   2.609  11.901  0.00  0.00    +0.000 A 
ATOM      9  C   UNL     1       4.891   3.023  12.215  0.00  0.00    +0.000 A 
ATOM     10  C   UNL     1       5.021   4.017  13.212  0.00  0.00    +0.000 A 
ATOM     11  C   UNL     1       6.370   4.161  13.450  0.00  0.00    +0.000 A 
ATOM     12  O   UNL     1       7.077   3.299  12.657  0.00  0.00    +0.000 OA
BRANCH   8  13
ATOM     13  C   UNL     1       6.701   1.579  10.972  0.00  0.00    +0.000 C 
BRANCH  13  15
ATOM     14  C   UNL     1       6.121  -0.663  11.403  0.00  0.00    +0.000 C 
ATOM     15  O   UNL     1       5.702   0.569  10.829  0.00  0.00    +0.000 OA
ENDBRANCH  13  15
ENDBRANCH   8  13
ENDBRANCH   7  11
ENDBRANCH   1   7
BRANCH   5  16
ATOM     16  C   UNL     1       5.910   4.523  18.640  0.00  0.00    +0.000 C 
BRANCH  16  17
ATOM     17  O   UNL     1       7.283   4.245  18.400  0.00  0.00    +0.000 OA
ATOM     18  H   UNL     1       7.325   3.521  17.741  0.00  0.00    +0.000 HD
ENDBRANCH  16  17
ENDBRANCH   5  16
BRANCH   5  19
ATOM     19  C   UNL     1       4.202   2.935  17.640  0.00  0.00    +0.000 C 
BRANCH  19  20
ATOM     20  C   UNL     1       3.137   2.900  18.718  0.00  0.00    +0.000 A 
ATOM     21  C   UNL     1       1.778   2.933  18.378  0.00  0.00    +0.000 A 
ATOM     22  C   UNL     1       0.791   2.857  19.366  0.00  0.00    +0.000 A 
ATOM     23  C   UNL     1       1.154   2.744  20.707  0.00  0.00    +0.000 A 
ATOM     24  C   UNL     1       2.502   2.711  21.057  0.00  0.00    +0.000 A 
ATOM     25  C   UNL     1       3.488   2.787  20.072  0.00  0.00    +0.000 A 
ENDBRANCH  19  20
ENDBRANCH   5  19
TORSDOF 8
ENDMDL
MODEL 4
REMARK VINA RESULT:      -6.9      1.106      1.599
REMARK  Name = 
REMARK  9 active torsions:
REMARK  status: ('A' for Active; 'I' for Inactive)
REMARK    1  A    between atoms: C_1  and  O_2
REMARK    2  A    between atoms: O_2  and  C_3
REMARK    3  A    between atoms: C_3  and  C_4
REMARK    4  A    between atoms: C_7  and  C_8
REMARK    5  A    between atoms: C_8  and  N_9
REMARK    6  A    between atoms: C_13  and  C_14
REMARK    7  A    between atoms: C_13  and  C_16
REMARK    8  A    between atoms: C_14  and  O_15
REMARK    9  A    between atoms: C_16  and  C_17
REMARK                            x       y       z     vdW  Elec       q    Type
REMARK                         _______ _______ _______ _____ _____    ______ ____
ROOT
ATOM      1  N   UNL     1       2.424   4.863  19.820  0.00  0.00    +0.000 NA
ATOM      2  C   UNL     1       1.234   4.499  19.022  0.00  0.00    +0.000 C 
ATOM      3  C   UNL     1       1.417   3.214  18.218  0.00  0.00    +0.000 C 
ATOM      4  C   UNL     1       2.682   3.246  17.369  0.00  0.00    +0.000 C 
ATOM      5  C   UNL     1       3.948   3.639  18.163  0.00  0.00    +0.000 C 
ATOM      6  C   UNL     1       3.631   4.938  18.964  0.00  0.00    +0.000 C 
ENDROOT
BRANCH   1   7
ATOM      7  C   UNL     1       2.208   6.200  20.444  0.00  0.00    +0.000 C 
BRANCH   7  11
ATOM      8  C   UNL     1       1.465   9.293  18.758  0.00  0.00    +0.000 A 
ATOM      9  C   UNL     1       2.257   8.771  17.757  0.00  0.00    +0.000 A 
ATOM     10  C   UNL     1       2.700   7.506  18.209  0.00  0.00    +0.000 A 
ATOM     11  C   UNL     1       2.152   7.321  19.459  0.00  0.00    +0.000 A 
ATOM     12  O   UNL     1       1.401   8.412  19.803  0.00  0.00    +0.000 OA
BRANCH   8  13
ATOM     13  C   UNL     1       0.745  10.583  18.911  0.00  0.00    +0.000 C 
BRANCH  13  15
ATOM     14  C   UNL     1      -1.361  10.282  17.897  0.00  0.00    +0.000 C 
ATOM     15  O   UNL     1      -0.636  10.284  19.120  0.00  0.00    +0.000 OA
ENDBRANCH  13  15
ENDBRANCH   8  13
ENDBRANCH   7  11
ENDBRANCH   1   7
BRANCH   5  16
ATOM     16  C   UNL     1       4.408   2.507  19.121  0.00  0.00    +0.000 C 
BRANCH  16  17
ATOM     17  O   UNL     1       3.911   2.615  20.448  0.00  0.00    +0.000 OA
ATOM     18  H   UNL     1       4.666   2.856  21.025  0.00  0.00    +0.000 HD
ENDBRANCH  16  17
ENDBRANCH   5  16
BRANCH   5  19
ATOM     19  C   UNL     1       5.122   3.981  17.183  0.00  0.00    +0.000 C 
BRANCH  19  20
ATOM     20  C   UNL     1       6.052   5.115  17.564  0.00  0.00    +0.000 A 
ATOM     21  C   UNL     1       7.014   4.941  18.568  0.00  0.00    +0.000 A 
ATOM     22  C   UNL     1       7.904   5.970  18.894  0.00  0.00    +0.000 A 
ATOM     23  C   UNL     1       7.842   7.186  18.214  0.00  0.00    +0.000 A 
ATOM     24  C   UNL     1       6.890   7.371  17.214  0.00  0.00    +0.000 A 
ATOM     25  C   UNL     1       6.001   6.345  16.889  0.00  0.00    +0.000 A 
ENDBRANCH  19  20
ENDBRANCH   5  19
TORSDOF 8
ENDMDL
MODEL 5
REMARK VINA RESULT:      -6.9      0.885      1.004
REMARK  Name = 
REMARK  9 active torsions:
REMARK  status: ('A' for Active; 'I' for Inactive)
REMARK    1  A    between atoms: C_1  and  O_2
REMARK    2  A    between atoms: O_2  and  C_3
REMARK    3  A    between atoms: C_3  and  C_4
REMARK    4  A    between atoms: C_7  and  C_8
REMARK    5  A    between atoms: C_8  and  N_9
REMARK    6  A    between atoms: C_13  and  C_14
REMARK    7  A    between atoms: C_13  and  C_16
REMARK    8  A    between atoms: C_14  and  O_15
REMARK    9  A    between atoms: C_16  and  C_17
REMARK                            x       y       z     vdW  Elec       q    Type
REMARK                         _______ _______ _______ _____ _____    ______ ____
ROOT
ATOM      1  N   UNL     1       2.376   4.531  20.037  0.00  0.00    +0.000 NA
ATOM      2  C   UNL     1       1.088   4.121  19.439  0.00  0.00    +0.000 C 
ATOM      3  C   UNL     1       1.183   2.829  18.632  0.00  0.00    +0.000 C 
ATOM      4  C   UNL     1       2.299   2.882  17.596  0.00  0.00    +0.000 C 
ATOM      5  C   UNL     1       3.661   3.323  18.178  0.00  0.00    +0.000 C 
ATOM      6  C   UNL     1       3.432   4.627  19.003  0.00  0.00    +0.000 C 
ENDROOT
BRANCH   1   7
ATOM      7  C   UNL     1       2.218   5.873  20.670  0.00  0.00    +0.000 C 
BRANCH   7  11
ATOM      8  C   UNL     1       1.573   9.028  19.061  0.00  0.00    +0.000 A 
ATOM      9  C   UNL     1       2.177   8.433  17.973  0.00  0.00    +0.000 A 
ATOM     10  C   UNL     1       2.549   7.130  18.378  0.00  0.00    +0.000 A 
ATOM     11  C   UNL     1       2.148   6.996  19.690  0.00  0.00    +0.000 A 
ATOM     12  O   UNL     1       1.556   8.155  20.115  0.00  0.00    +0.000 OA
BRANCH   8  13
ATOM     13  C   UNL     1       1.007  10.381  19.291  0.00  0.00    +0.000 C 
BRANCH  13  15
ATOM     14  C   UNL     1      -1.322  10.338  18.936  0.00  0.00    +0.000 C 
ATOM     15  O   UNL     1      -0.048  10.574  18.349  0.00  0.00    +0.000 OA
ENDBRANCH  13  15
ENDBRANCH   8  13
ENDBRANCH   7  11
ENDBRANCH   1   7
BRANCH   5  16
ATOM     16  C   UNL     1       4.297   2.221  19.068  0.00  0.00    +0.000 C 
BRANCH  16  17
ATOM     17  O   UNL     1       4.244   2.481  20.463  0.00  0.00    +0.000 OA
ATOM     18  H   UNL     1       4.740   3.311  20.627  0.00  0.00    +0.000 HD
ENDBRANCH  16  17
ENDBRANCH   5  16
BRANCH   5  19
ATOM     19  C   UNL     1       4.657   3.682  17.024  0.00  0.00    +0.000 C 
BRANCH  19  20
ATOM     20  C   UNL     1       5.659   4.791  17.274  0.00  0.00    +0.000 A 
ATOM     21  C   UNL     1       5.494   6.048  16.678  0.00  0.00    +0.000 A 
ATOM     22  C   UNL     1       6.392   7.088  16.938  0.00  0.00    +0.000 A 
ATOM     23  C   UNL     1       7.466   6.881  17.803  0.00  0.00    +0.000 A 
ATOM     24  C   UNL     1       7.641   5.635  18.401  0.00  0.00    +0.000 A 
ATOM     25  C   UNL     1       6.746   4.597  18.141  0.00  0.00    +0.000 A 
ENDBRANCH  19  20
ENDBRANCH   5  19
TORSDOF 8
ENDMDL
MODEL 6
REMARK VINA RESULT:      -6.8      1.809      4.153
REMARK  Name = 
REMARK  9 active torsions:
REMARK  status: ('A' for Active; 'I' for Inactive)
REMARK    1  A    between atoms: C_1  and  O_2
REMARK    2  A    between atoms: O_2  and  C_3
REMARK    3  A    between atoms: C_3  and  C_4
REMARK    4  A    between atoms: C_7  and  C_8
REMARK    5  A    between atoms: C_8  and  N_9
REMARK    6  A    between atoms: C_13  and  C_14
REMARK    7  A    between atoms: C_13  and  C_16
REMARK    8  A    between atoms: C_14  and  O_15
REMARK    9  A    between atoms: C_16  and  C_17
REMARK                            x       y       z     vdW  Elec       q    Type
REMARK                         _______ _______ _______ _____ _____    ______ ____
ROOT
ATOM      1  N   UNL     1       4.206   6.603  17.280  0.00  0.00    +0.000 NA
ATOM      2  C   UNL     1       5.326   6.801  18.223  0.00  0.00    +0.000 C 
ATOM      3  C   UNL     1       6.406   5.728  18.111  0.00  0.00    +0.000 C 
ATOM      4  C   UNL     1       5.827   4.321  18.204  0.00  0.00    +0.000 C 
ATOM      5  C   UNL     1       4.640   4.077  17.244  0.00  0.00    +0.000 C 
ATOM      6  C   UNL     1       3.626   5.247  17.426  0.00  0.00    +0.000 C 
ENDROOT
BRANCH   1   7
ATOM      7  C   UNL     1       3.137   7.603  17.569  0.00  0.00    +0.000 C 
BRANCH   7  11
ATOM      8  C   UNL     1       1.348   8.115  20.650  0.00  0.00    +0.000 A 
ATOM      9  C   UNL     1       1.646   6.787  20.876  0.00  0.00    +0.000 A 
ATOM     10  C   UNL     1       2.368   6.336  19.748  0.00  0.00    +0.000 A 
ATOM     11  C   UNL     1       2.478   7.412  18.895  0.00  0.00    +0.000 A 
ATOM     12  O   UNL     1       1.850   8.501  19.437  0.00  0.00    +0.000 OA
BRANCH   8  13
ATOM     13  C   UNL     1       0.588   9.129  21.425  0.00  0.00    +0.000 C 
BRANCH  13  15
ATOM     14  C   UNL     1      -0.591  11.120  20.982  0.00  0.00    +0.000 C 
ATOM     15  O   UNL     1      -0.268   9.817  20.513  0.00  0.00    +0.000 OA
ENDBRANCH  13  15
ENDBRANCH   8  13
ENDBRANCH   7  11
ENDBRANCH   1   7
BRANCH   5  16
ATOM     16  C   UNL     1       5.100   3.981  15.764  0.00  0.00    +0.000 C 
BRANCH  16  17
ATOM     17  O   UNL     1       6.242   3.162  15.550  0.00  0.00    +0.000 OA
ATOM     18  H   UNL     1       6.408   2.667  16.380  0.00  0.00    +0.000 HD
ENDBRANCH  16  17
ENDBRANCH   5  16
BRANCH   5  19
ATOM     19  C   UNL     1       3.890   2.758  17.629  0.00  0.00    +0.000 C 
BRANCH  19  20
ATOM     20  C   UNL     1       2.968   2.793  18.832  0.00  0.00    +0.000 A 
ATOM     21  C   UNL     1       3.492   2.767  20.131  0.00  0.00    +0.000 A 
ATOM     22  C   UNL     1       2.649   2.842  21.245  0.00  0.00    +0.000 A 
ATOM     23  C   UNL     1       1.270   2.948  21.069  0.00  0.00    +0.000 A 
ATOM     24  C   UNL     1       0.738   2.975  19.782  0.00  0.00    +0.000 A 
ATOM     25  C   UNL     1       1.579   2.899  18.671  0.00  0.00    +0.000 A 
ENDBRANCH  19  20
ENDBRANCH   5  19
TORSDOF 8
ENDMDL
MODEL 7
REMARK VINA RESULT:      -6.8      3.748      6.479
REMARK  Name = 
REMARK  9 active torsions:
REMARK  status: ('A' for Active; 'I' for Inactive)
REMARK    1  A    between atoms: C_1  and  O_2
REMARK    2  A    between atoms: O_2  and  C_3
REMARK    3  A    between atoms: C_3  and  C_4
REMARK    4  A    between atoms: C_7  and  C_8
REMARK    5  A    between atoms: C_8  and  N_9
REMARK    6  A    between atoms: C_13  and  C_14
REMARK    7  A    between atoms: C_13  and  C_16
REMARK    8  A    between atoms: C_14  and  O_15
REMARK    9  A    between atoms: C_16  and  C_17
REMARK                            x       y       z     vdW  Elec       q    Type
REMARK                         _______ _______ _______ _____ _____    ______ ____
ROOT
ATOM      1  N   UNL     1       6.710   6.205  17.568  0.00  0.00    +0.000 NA
ATOM      2  C   UNL     1       7.192   5.776  16.238  0.00  0.00    +0.000 C 
ATOM      3  C   UNL     1       6.098   5.159  15.370  0.00  0.00    +0.000 C 
ATOM      4  C   UNL     1       5.357   4.040  16.094  0.00  0.00    +0.000 C 
ATOM      5  C   UNL     1       4.851   4.442  17.497  0.00  0.00    +0.000 C 
ATOM      6  C   UNL     1       6.040   5.086  18.272  0.00  0.00    +0.000 C 
ENDROOT
BRANCH   1   7
ATOM      7  C   UNL     1       7.871   6.649  18.392  0.00  0.00    +0.000 C 
BRANCH   7  11
ATOM      8  C   UNL     1       9.097   9.983  18.972  0.00  0.00    +0.000 A 
ATOM      9  C   UNL     1       8.314  10.306  17.883  0.00  0.00    +0.000 A 
ATOM     10  C   UNL     1       7.712   9.103  17.447  0.00  0.00    +0.000 A 
ATOM     11  C   UNL     1       8.153   8.112  18.295  0.00  0.00    +0.000 A 
ATOM     12  O   UNL     1       9.005   8.642  19.226  0.00  0.00    +0.000 OA
BRANCH   8  13
ATOM     13  C   UNL     1       9.999  10.779  19.843  0.00  0.00    +0.000 C 
BRANCH  13  15
ATOM     14  C   UNL     1      11.098  12.855  19.659  0.00  0.00    +0.000 C 
ATOM     15  O   UNL     1      10.764  11.640  18.999  0.00  0.00    +0.000 OA
ENDBRANCH  13  15
ENDBRANCH   8  13
ENDBRANCH   7  11
ENDBRANCH   1   7
BRANCH   5  16
ATOM     16  C   UNL     1       3.652   5.427  17.422  0.00  0.00    +0.000 C 
BRANCH  16  17
ATOM     17  O   UNL     1       3.954   6.758  17.817  0.00  0.00    +0.000 OA
ATOM     18  H   UNL     1       4.202   6.734  18.765  0.00  0.00    +0.000 HD
ENDBRANCH  16  17
ENDBRANCH   5  16
BRANCH   5  19
ATOM     19  C   UNL     1       4.414   3.172  18.303  0.00  0.00    +0.000 C 
BRANCH  19  20
ATOM     20  C   UNL     1       3.060   3.198  18.983  0.00  0.00    +0.000 A 
ATOM     21  C   UNL     1       1.956   2.567  18.395  0.00  0.00    +0.000 A 
ATOM     22  C   UNL     1       0.714   2.551  19.038  0.00  0.00    +0.000 A 
ATOM     23  C   UNL     1       0.565   3.164  20.281  0.00  0.00    +0.000 A 
ATOM     24  C   UNL     1       1.655   3.794  20.876  0.00  0.00    +0.000 A 
ATOM     25  C   UNL     1       2.895   3.812  20.234  0.00  0.00    +0.000 A 
ENDBRANCH  19  20
ENDBRANCH   5  19
TORSDOF 8
ENDMDL
MODEL 8
REMARK VINA RESULT:      -6.8      1.051      1.483
REMARK  Name = 
REMARK  9 active torsions:
REMARK  status: ('A' for Active; 'I' for Inactive)
REMARK    1  A    between atoms: C_1  and  O_2
REMARK    2  A    between atoms: O_2  and  C_3
REMARK    3  A    between atoms: C_3  and  C_4
REMARK    4  A    between atoms: C_7  and  C_8
REMARK    5  A    between atoms: C_8  and  N_9
REMARK    6  A    between atoms: C_13  and  C_14
REMARK    7  A    between atoms: C_13  and  C_16
REMARK    8  A    between atoms: C_14  and  O_15
REMARK    9  A    between atoms: C_16  and  C_17
REMARK                            x       y       z     vdW  Elec       q    Type
REMARK                         _______ _______ _______ _____ _____    ______ ____
ROOT
ATOM      1  N   UNL     1       2.450   5.193  19.665  0.00  0.00    +0.000 NA
ATOM      2  C   UNL     1       1.629   5.174  18.436  0.00  0.00    +0.000 C 
ATOM      3  C   UNL     1       1.839   3.919  17.591  0.00  0.00    +0.000 C 
ATOM      4  C   UNL     1       3.313   3.669  17.295  0.00  0.00    +0.000 C 
ATOM      5  C   UNL     1       4.209   3.698  18.553  0.00  0.00    +0.000 C 
ATOM      6  C   UNL     1       3.884   5.001  19.346  0.00  0.00    +0.000 C 
ENDROOT
BRANCH   1   7
ATOM      7  C   UNL     1       2.293   6.516  20.339  0.00  0.00    +0.000 C 
BRANCH   7  11
ATOM      8  C   UNL     1       1.320   9.616  18.791  0.00  0.00    +0.000 A 
ATOM      9  C   UNL     1       2.065   9.152  17.726  0.00  0.00    +0.000 A 
ATOM     10  C   UNL     1       2.586   7.896  18.113  0.00  0.00    +0.000 A 
ATOM     11  C   UNL     1       2.129   7.658  19.391  0.00  0.00    +0.000 A 
ATOM     12  O   UNL     1       1.360   8.708  19.813  0.00  0.00    +0.000 OA
BRANCH   8  13
ATOM     13  C   UNL     1       0.561  10.871  19.025  0.00  0.00    +0.000 C 
BRANCH  13  15
ATOM     14  C   UNL     1       0.019  11.895  21.077  0.00  0.00    +0.000 C 
ATOM     15  O   UNL     1       1.069  11.467  20.219  0.00  0.00    +0.000 OA
ENDBRANCH  13  15
ENDBRANCH   8  13
ENDBRANCH   7  11
ENDBRANCH   1   7
BRANCH   5  16
ATOM     16  C   UNL     1       3.995   2.448  19.449  0.00  0.00    +0.000 C 
BRANCH  16  17
ATOM     17  O   UNL     1       5.175   1.947  20.061  0.00  0.00    +0.000 OA
ATOM     18  H   UNL     1       5.431   2.578  20.766  0.00  0.00    +0.000 HD
ENDBRANCH  16  17
ENDBRANCH   5  16
BRANCH   5  19
ATOM     19  C   UNL     1       5.719   3.777  18.146  0.00  0.00    +0.000 C 
BRANCH  19  20
ATOM     20  C   UNL     1       6.347   5.151  18.018  0.00  0.00    +0.000 A 
ATOM     21  C   UNL     1       7.447   5.507  18.809  0.00  0.00    +0.000 A 
ATOM     22  C   UNL     1       8.057   6.758  18.665  0.00  0.00    +0.000 A 
ATOM     23  C   UNL     1       7.573   7.665  17.724  0.00  0.00    +0.000 A 
ATOM     24  C   UNL     1       6.479   7.322  16.932  0.00  0.00    +0.000 A 
ATOM     25  C   UNL     1       5.869   6.075  17.076  0.00  0.00    +0.000 A 
ENDBRANCH  19  20
ENDBRANCH   5  19
TORSDOF 8
ENDMDL
MODEL 9
REMARK VINA RESULT:      -6.8      1.784      4.058
REMARK  Name = 
REMARK  9 active torsions:
REMARK  status: ('A' for Active; 'I' for Inactive)
REMARK    1  A    between atoms: C_1  and  O_2
REMARK    2  A    between atoms: O_2  and  C_3
REMARK    3  A    between atoms: C_3  and  C_4
REMARK    4  A    between atoms: C_7  and  C_8
REMARK    5  A    between atoms: C_8  and  N_9
REMARK    6  A    between atoms: C_13  and  C_14
REMARK    7  A    between atoms: C_13  and  C_16
REMARK    8  A    between atoms: C_14  and  O_15
REMARK    9  A    between atoms: C_16  and  C_17
REMARK                            x       y       z     vdW  Elec       q    Type
REMARK                         _______ _______ _______ _____ _____    ______ ____
ROOT
ATOM      1  N   UNL     1       4.227   6.624  17.237  0.00  0.00    +0.000 NA
ATOM      2  C   UNL     1       5.359   6.838  18.164  0.00  0.00    +0.000 C 
ATOM      3  C   UNL     1       6.432   5.757  18.065  0.00  0.00    +0.000 C 
ATOM      4  C   UNL     1       5.847   4.356  18.196  0.00  0.00    +0.000 C 
ATOM      5  C   UNL     1       4.650   4.097  17.255  0.00  0.00    +0.000 C 
ATOM      6  C   UNL     1       3.643   5.275  17.420  0.00  0.00    +0.000 C 
ENDROOT
BRANCH   1   7
ATOM      7  C   UNL     1       3.167   7.636  17.514  0.00  0.00    +0.000 C 
BRANCH   7  11
ATOM      8  C   UNL     1       1.313   8.166  20.554  0.00  0.00    +0.000 A 
ATOM      9  C   UNL     1       1.664   6.860  20.825  0.00  0.00    +0.000 A 
ATOM     10  C   UNL     1       2.421   6.405  19.721  0.00  0.00    +0.000 A 
ATOM     11  C   UNL     1       2.497   7.459  18.837  0.00  0.00    +0.000 A 
ATOM     12  O   UNL     1       1.817   8.536  19.337  0.00  0.00    +0.000 OA
BRANCH   8  13
ATOM     13  C   UNL     1       0.501   9.170  21.287  0.00  0.00    +0.000 C 
BRANCH  13  15
ATOM     14  C   UNL     1       0.141  11.494  21.427  0.00  0.00    +0.000 C 
ATOM     15  O   UNL     1       0.729  10.440  20.675  0.00  0.00    +0.000 OA
ENDBRANCH  13  15
ENDBRANCH   8  13
ENDBRANCH   7  11
ENDBRANCH   1   7
BRANCH   5  16
ATOM     16  C   UNL     1       5.094   3.964  15.773  0.00  0.00    +0.000 C 
BRANCH  16  17
ATOM     17  O   UNL     1       6.244   3.156  15.569  0.00  0.00    +0.000 OA
ATOM     18  H   UNL     1       6.155   2.734  14.688  0.00  0.00    +0.000 HD
ENDBRANCH  16  17
ENDBRANCH   5  16
BRANCH   5  19
ATOM     19  C   UNL     1       3.897   2.790  17.678  0.00  0.00    +0.000 C 
BRANCH  19  20
ATOM     20  C   UNL     1       2.976   2.862  18.879  0.00  0.00    +0.000 A 
ATOM     21  C   UNL     1       1.588   2.948  18.708  0.00  0.00    +0.000 A 
ATOM     22  C   UNL     1       0.730   2.971  19.813  0.00  0.00    +0.000 A 
ATOM     23  C   UNL     1       1.254   2.905  21.103  0.00  0.00    +0.000 A 
ATOM     24  C   UNL     1       2.633   2.820  21.286  0.00  0.00    +0.000 A 
ATOM     25  C   UNL     1       3.489   2.798  20.184  0.00  0.00    +0.000 A 
ENDBRANCH  19  20
ENDBRANCH   5  19
TORSDOF 8
ENDMDL
