MODEL 1
REMARK VINA RESULT:      -6.8      0.000      0.000
REMARK  Name = 
REMARK  5 active torsions:
REMARK  status: ('A' for Active; 'I' for Inactive)
REMARK    1  A    between atoms: C_1  and  C_2
REMARK    2  A    between atoms: C_5  and  S_6
REMARK    3  A    between atoms: S_6  and  C_9
REMARK    4  A    between atoms: C_9  and  C_10
REMARK    5  A    between atoms: C_19  and  N_20
REMARK                            x       y       z     vdW  Elec       q    Type
REMARK                         _______ _______ _______ _____ _____    ______ ____
ROOT
ATOM      1  C   UNL     1      -0.459  10.716  19.615  0.00  0.00    +0.000 A 
ATOM      2  N   UNL     1      -0.731  10.091  18.421  0.00  0.00    +0.000 NA
ATOM      3  C   UNL     1      -1.920  10.510  18.053  0.00  0.00    +0.000 A 
ATOM      4  C   UNL     1      -2.680  10.173  16.900  0.00  0.00    +0.000 A 
ATOM      5  C   UNL     1      -3.888  10.731  16.705  0.00  0.00    +0.000 A 
ATOM      6  C   UNL     1      -4.437  11.687  17.652  0.00  0.00    +0.000 A 
ATOM      7 BR   UNL     1      -6.116  12.410  17.298  0.00  0.00    +0.000 Br
ATOM      8  C   UNL     1      -3.722  12.012  18.744  0.00  0.00    +0.000 A 
ATOM      9  N   UNL     1      -2.466  11.428  18.959  0.00  0.00    +0.000 N 
ATOM     10  C   UNL     1      -1.513  11.552  19.957  0.00  0.00    +0.000 A 
ENDROOT
BRANCH  10  11
ATOM     11  N   UNL     1      -1.637  12.424  21.075  0.00  0.00    +0.000 N 
ATOM     12  O   UNL     1      -1.246  13.585  20.912  0.00  0.00    +0.000 OA
ATOM     13  O   UNL     1      -2.146  11.987  22.111  0.00  0.00    +0.000 OA
ENDBRANCH  10  11
BRANCH   1  14
ATOM     14  C   UNL     1       0.860  10.455  20.251  0.00  0.00    +0.000 C 
BRANCH  14  15
ATOM     15  S   UNL     1       0.915   8.990  21.256  0.00  0.00    +0.000 S 
ATOM     16  O   UNL     1      -0.453   8.567  21.511  0.00  0.00    +0.000 OA
ATOM     17  O   UNL     1       1.819   9.246  22.364  0.00  0.00    +0.000 OA
BRANCH  15  22
ATOM     18  C   UNL     1       3.208   4.579  17.756  0.00  0.00    +0.000 C 
ATOM     19  C   UNL     1       2.696   5.668  18.655  0.00  0.00    +0.000 A 
ATOM     20  C   UNL     1       2.191   5.374  19.929  0.00  0.00    +0.000 A 
ATOM     21  C   UNL     1       1.680   6.390  20.745  0.00  0.00    +0.000 A 
ATOM     22  C   UNL     1       1.686   7.710  20.286  0.00  0.00    +0.000 A 
ATOM     23  C   UNL     1       2.190   8.016  19.018  0.00  0.00    +0.000 A 
ATOM     24  C   UNL     1       2.693   6.997  18.208  0.00  0.00    +0.000 A 
ENDBRANCH  15  22
ENDBRANCH  14  15
ENDBRANCH   1  14
TORSDOF 4
ENDMDL
MODEL 2
REMARK VINA RESULT:      -6.8      6.448      9.110
REMARK  Name = 
REMARK  5 active torsions:
REMARK  status: ('A' for Active; 'I' for Inactive)
REMARK    1  A    between atoms: C_1  and  C_2
REMARK    2  A    between atoms: C_5  and  S_6
REMARK    3  A    between atoms: S_6  and  C_9
REMARK    4  A    between atoms: C_9  and  C_10
REMARK    5  A    between atoms: C_19  and  N_20
REMARK                            x       y       z     vdW  Elec       q    Type
REMARK                         _______ _______ _______ _____ _____    ______ ____
ROOT
ATOM      1  C   UNL     1       5.115   4.378  18.367  0.00  0.00    +0.000 A 
ATOM      2  N   UNL     1       4.505   3.758  17.303  0.00  0.00    +0.000 NA
ATOM      3  C   UNL     1       5.222   4.059  16.245  0.00  0.00    +0.000 A 
ATOM      4  C   UNL     1       5.032   3.684  14.888  0.00  0.00    +0.000 A 
ATOM      5  C   UNL     1       5.901   4.096  13.948  0.00  0.00    +0.000 A 
ATOM      6  C   UNL     1       7.048   4.920  14.293  0.00  0.00    +0.000 A 
ATOM      7 BR   UNL     1       8.200   5.441  12.927  0.00  0.00    +0.000 Br
ATOM      8  C   UNL     1       7.235   5.276  15.577  0.00  0.00    +0.000 A 
ATOM      9  N   UNL     1       6.328   4.857  16.561  0.00  0.00    +0.000 N 
ATOM     10  C   UNL     1       6.247   5.052  17.930  0.00  0.00    +0.000 A 
ENDROOT
BRANCH  10  11
ATOM     11  N   UNL     1       7.204   5.782  18.690  0.00  0.00    +0.000 N 
ATOM     12  O   UNL     1       7.462   6.924  18.296  0.00  0.00    +0.000 OA
ATOM     13  O   UNL     1       7.686   5.253  19.696  0.00  0.00    +0.000 OA
ENDBRANCH  10  11
BRANCH   1  14
ATOM     14  C   UNL     1       4.531   4.172  19.719  0.00  0.00    +0.000 C 
BRANCH  14  15
ATOM     15  S   UNL     1       2.778   4.449  19.813  0.00  0.00    +0.000 S 
ATOM     16  O   UNL     1       2.364   4.246  21.192  0.00  0.00    +0.000 OA
ATOM     17  O   UNL     1       2.152   3.692  18.743  0.00  0.00    +0.000 OA
BRANCH  15  22
ATOM     18  C   UNL     1       1.420  10.211  18.429  0.00  0.00    +0.000 C 
ATOM     19  C   UNL     1       1.818   8.804  18.774  0.00  0.00    +0.000 A 
ATOM     20  C   UNL     1       2.365   7.951  17.807  0.00  0.00    +0.000 A 
ATOM     21  C   UNL     1       2.696   6.629  18.127  0.00  0.00    +0.000 A 
ATOM     22  C   UNL     1       2.490   6.164  19.428  0.00  0.00    +0.000 A 
ATOM     23  C   UNL     1       1.947   7.007  20.404  0.00  0.00    +0.000 A 
ATOM     24  C   UNL     1       1.614   8.322  20.074  0.00  0.00    +0.000 A 
ENDBRANCH  15  22
ENDBRANCH  14  15
ENDBRANCH   1  14
TORSDOF 4
ENDMDL
MODEL 3
REMARK VINA RESULT:      -6.7      3.626      7.041
REMARK  Name = 
REMARK  5 active torsions:
REMARK  status: ('A' for Active; 'I' for Inactive)
REMARK    1  A    between atoms: C_1  and  C_2
REMARK    2  A    between atoms: C_5  and  S_6
REMARK    3  A    between atoms: S_6  and  C_9
REMARK    4  A    between atoms: C_9  and  C_10
REMARK    5  A    between atoms: C_19  and  N_20
REMARK                            x       y       z     vdW  Elec       q    Type
REMARK                         _______ _______ _______ _____ _____    ______ ____
ROOT
ATOM      1  C   UNL     1       1.223  10.080  19.587  0.00  0.00    +0.000 A 
ATOM      2  N   UNL     1       1.794   9.658  18.410  0.00  0.00    +0.000 NA
ATOM      3  C   UNL     1       2.127   8.402  18.595  0.00  0.00    +0.000 A 
ATOM      4  C   UNL     1       2.756   7.493  17.702  0.00  0.00    +0.000 A 
ATOM      5  C   UNL     1       3.003   6.230  18.092  0.00  0.00    +0.000 A 
ATOM      6  C   UNL     1       2.630   5.765  19.418  0.00  0.00    +0.000 A 
ATOM      7 BR   UNL     1       3.008   3.999  19.869  0.00  0.00    +0.000 Br
ATOM      8  C   UNL     1       2.032   6.620  20.267  0.00  0.00    +0.000 A 
ATOM      9  N   UNL     1       1.780   7.941  19.871  0.00  0.00    +0.000 N 
ATOM     10  C   UNL     1       1.197   9.031  20.496  0.00  0.00    +0.000 A 
ENDROOT
BRANCH  10  11
ATOM     11  N   UNL     1       0.654   9.000  21.812  0.00  0.00    +0.000 N 
ATOM     12  O   UNL     1      -0.469   8.500  21.931  0.00  0.00    +0.000 OA
ATOM     13  O   UNL     1       1.337   9.438  22.742  0.00  0.00    +0.000 OA
ENDBRANCH  10  11
BRANCH   1  14
ATOM     14  C   UNL     1       0.707  11.473  19.650  0.00  0.00    +0.000 C 
BRANCH  14  15
ATOM     15  S   UNL     1      -1.006  11.643  19.205  0.00  0.00    +0.000 S 
ATOM     16  O   UNL     1      -1.491  10.341  18.776  0.00  0.00    +0.000 OA
ATOM     17  O   UNL     1      -1.122  12.793  18.325  0.00  0.00    +0.000 OA
BRANCH  15  22
ATOM     18  C   UNL     1      -4.174  12.736  24.277  0.00  0.00    +0.000 C 
ATOM     19  C   UNL     1      -3.379  12.530  23.020  0.00  0.00    +0.000 A 
ATOM     20  C   UNL     1      -3.932  12.807  21.762  0.00  0.00    +0.000 A 
ATOM     21  C   UNL     1      -3.199  12.574  20.593  0.00  0.00    +0.000 A 
ATOM     22  C   UNL     1      -1.898  12.073  20.685  0.00  0.00    +0.000 A 
ATOM     23  C   UNL     1      -1.333  11.795  21.935  0.00  0.00    +0.000 A 
ATOM     24  C   UNL     1      -2.074  12.024  23.096  0.00  0.00    +0.000 A 
ENDBRANCH  15  22
ENDBRANCH  14  15
ENDBRANCH   1  14
TORSDOF 4
ENDMDL
MODEL 4
REMARK VINA RESULT:      -6.7      6.650      9.219
REMARK  Name = 
REMARK  5 active torsions:
REMARK  status: ('A' for Active; 'I' for Inactive)
REMARK    1  A    between atoms: C_1  and  C_2
REMARK    2  A    between atoms: C_5  and  S_6
REMARK    3  A    between atoms: S_6  and  C_9
REMARK    4  A    between atoms: C_9  and  C_10
REMARK    5  A    between atoms: C_19  and  N_20
REMARK                            x       y       z     vdW  Elec       q    Type
REMARK                         _______ _______ _______ _____ _____    ______ ____
ROOT
ATOM      1  C   UNL     1       5.276   4.256  18.265  0.00  0.00    +0.000 A 
ATOM      2  N   UNL     1       4.660   3.631  17.207  0.00  0.00    +0.000 NA
ATOM      3  C   UNL     1       5.345   3.964  16.138  0.00  0.00    +0.000 A 
ATOM      4  C   UNL     1       5.135   3.599  14.781  0.00  0.00    +0.000 A 
ATOM      5  C   UNL     1       5.970   4.047  13.827  0.00  0.00    +0.000 A 
ATOM      6  C   UNL     1       7.100   4.900  14.157  0.00  0.00    +0.000 A 
ATOM      7 BR   UNL     1       8.206   5.469  12.771  0.00  0.00    +0.000 Br
ATOM      8  C   UNL     1       7.306   5.247  15.440  0.00  0.00    +0.000 A 
ATOM      9  N   UNL     1       6.434   4.791  16.438  0.00  0.00    +0.000 N 
ATOM     10  C   UNL     1       6.378   4.967  17.811  0.00  0.00    +0.000 A 
ENDROOT
BRANCH  10  11
ATOM     11  N   UNL     1       7.330   5.716  18.559  0.00  0.00    +0.000 N 
ATOM     12  O   UNL     1       8.005   5.085  19.378  0.00  0.00    +0.000 OA
ATOM     13  O   UNL     1       7.445   6.923  18.327  0.00  0.00    +0.000 OA
ENDBRANCH  10  11
BRANCH   1  14
ATOM     14  C   UNL     1       4.729   4.018  19.627  0.00  0.00    +0.000 C 
BRANCH  14  15
ATOM     15  S   UNL     1       2.956   4.096  19.732  0.00  0.00    +0.000 S 
ATOM     16  O   UNL     1       2.576   3.850  21.114  0.00  0.00    +0.000 OA
ATOM     17  O   UNL     1       2.413   3.271  18.667  0.00  0.00    +0.000 OA
BRANCH  15  22
ATOM     18  C   UNL     1       1.686   9.905  18.466  0.00  0.00    +0.000 C 
ATOM     19  C   UNL     1       1.937   8.457  18.777  0.00  0.00    +0.000 A 
ATOM     20  C   UNL     1       1.746   7.953  20.071  0.00  0.00    +0.000 A 
ATOM     21  C   UNL     1       2.019   6.612  20.361  0.00  0.00    +0.000 A 
ATOM     22  C   UNL     1       2.475   5.767  19.346  0.00  0.00    +0.000 A 
ATOM     23  C   UNL     1       2.667   6.257  18.050  0.00  0.00    +0.000 A 
ATOM     24  C   UNL     1       2.398   7.598  17.770  0.00  0.00    +0.000 A 
ENDBRANCH  15  22
ENDBRANCH  14  15
ENDBRANCH   1  14
TORSDOF 4
ENDMDL
MODEL 5
REMARK VINA RESULT:      -6.6      6.632      9.193
REMARK  Name = 
REMARK  5 active torsions:
REMARK  status: ('A' for Active; 'I' for Inactive)
REMARK    1  A    between atoms: C_1  and  C_2
REMARK    2  A    between atoms: C_5  and  S_6
REMARK    3  A    between atoms: S_6  and  C_9
REMARK    4  A    between atoms: C_9  and  C_10
REMARK    5  A    between atoms: C_19  and  N_20
REMARK                            x       y       z     vdW  Elec       q    Type
REMARK                         _______ _______ _______ _____ _____    ______ ____
ROOT
ATOM      1  C   UNL     1       4.629   3.463  19.359  0.00  0.00    +0.000 A 
ATOM      2  N   UNL     1       5.572   4.463  19.392  0.00  0.00    +0.000 NA
ATOM      3  C   UNL     1       5.973   4.627  18.153  0.00  0.00    +0.000 A 
ATOM      4  C   UNL     1       6.940   5.527  17.628  0.00  0.00    +0.000 A 
ATOM      5  C   UNL     1       7.198   5.541  16.308  0.00  0.00    +0.000 A 
ATOM      6  C   UNL     1       6.498   4.653  15.395  0.00  0.00    +0.000 A 
ATOM      7 BR   UNL     1       6.918   4.745  13.584  0.00  0.00    +0.000 Br
ATOM      8  C   UNL     1       5.579   3.801  15.885  0.00  0.00    +0.000 A 
ATOM      9  N   UNL     1       5.311   3.774  17.261  0.00  0.00    +0.000 N 
ATOM     10  C   UNL     1       4.448   3.034  18.052  0.00  0.00    +0.000 A 
ENDROOT
BRANCH  10  11
ATOM     11  N   UNL     1       3.542   2.059  17.547  0.00  0.00    +0.000 N 
ATOM     12  O   UNL     1       3.757   0.887  17.875  0.00  0.00    +0.000 OA
ATOM     13  O   UNL     1       2.595   2.438  16.852  0.00  0.00    +0.000 OA
ENDBRANCH  10  11
BRANCH   1  14
ATOM     14  C   UNL     1       3.965   3.092  20.637  0.00  0.00    +0.000 C 
BRANCH  14  15
ATOM     15  S   UNL     1       2.255   3.564  20.741  0.00  0.00    +0.000 S 
ATOM     16  O   UNL     1       1.921   3.740  22.145  0.00  0.00    +0.000 OA
ATOM     17  O   UNL     1       1.490   2.644  19.918  0.00  0.00    +0.000 OA
BRANCH  15  22
ATOM     18  C   UNL     1       2.105   9.022  18.068  0.00  0.00    +0.000 C 
ATOM     19  C   UNL     1       2.078   7.678  18.736  0.00  0.00    +0.000 A 
ATOM     20  C   UNL     1       1.989   7.566  20.130  0.00  0.00    +0.000 A 
ATOM     21  C   UNL     1       2.004   6.311  20.747  0.00  0.00    +0.000 A 
ATOM     22  C   UNL     1       2.096   5.159  19.962  0.00  0.00    +0.000 A 
ATOM     23  C   UNL     1       2.183   5.256  18.570  0.00  0.00    +0.000 A 
ATOM     24  C   UNL     1       2.174   6.513  17.962  0.00  0.00    +0.000 A 
ENDBRANCH  15  22
ENDBRANCH  14  15
ENDBRANCH   1  14
TORSDOF 4
ENDMDL
MODEL 6
REMARK VINA RESULT:      -6.6      5.236      6.857
REMARK  Name = 
REMARK  5 active torsions:
REMARK  status: ('A' for Active; 'I' for Inactive)
REMARK    1  A    between atoms: C_1  and  C_2
REMARK    2  A    between atoms: C_5  and  S_6
REMARK    3  A    between atoms: S_6  and  C_9
REMARK    4  A    between atoms: C_9  and  C_10
REMARK    5  A    between atoms: C_19  and  N_20
REMARK                            x       y       z     vdW  Elec       q    Type
REMARK                         _______ _______ _______ _____ _____    ______ ____
ROOT
ATOM      1  C   UNL     1       2.419   5.467  18.483  0.00  0.00    +0.000 A 
ATOM      2  N   UNL     1       2.505   6.774  18.068  0.00  0.00    +0.000 NA
ATOM      3  C   UNL     1       2.010   7.500  19.044  0.00  0.00    +0.000 A 
ATOM      4  C   UNL     1       1.853   8.909  19.132  0.00  0.00    +0.000 A 
ATOM      5  C   UNL     1       1.326   9.459  20.240  0.00  0.00    +0.000 A 
ATOM      6  C   UNL     1       0.913   8.636  21.365  0.00  0.00    +0.000 A 
ATOM      7 BR   UNL     1       0.196   9.485  22.859  0.00  0.00    +0.000 Br
ATOM      8  C   UNL     1       1.061   7.301  21.289  0.00  0.00    +0.000 A 
ATOM      9  N   UNL     1       1.602   6.720  20.134  0.00  0.00    +0.000 N 
ATOM     10  C   UNL     1       1.875   5.415  19.759  0.00  0.00    +0.000 A 
ENDROOT
BRANCH  10  11
ATOM     11  N   UNL     1       1.653   4.282  20.592  0.00  0.00    +0.000 N 
ATOM     12  O   UNL     1       0.821   3.461  20.192  0.00  0.00    +0.000 OA
ATOM     13  O   UNL     1       2.313   4.175  21.630  0.00  0.00    +0.000 OA
ENDBRANCH  10  11
BRANCH   1  14
ATOM     14  C   UNL     1       2.955   4.414  17.579  0.00  0.00    +0.000 C 
BRANCH  14  15
ATOM     15  S   UNL     1       4.563   3.805  18.030  0.00  0.00    +0.000 S 
ATOM     16  O   UNL     1       4.957   2.807  17.049  0.00  0.00    +0.000 OA
ATOM     17  O   UNL     1       4.528   3.468  19.442  0.00  0.00    +0.000 OA
BRANCH  15  22
ATOM     18  C   UNL     1       8.269   8.619  17.818  0.00  0.00    +0.000 C 
ATOM     19  C   UNL     1       7.383   7.407  17.817  0.00  0.00    +0.000 A 
ATOM     20  C   UNL     1       6.293   7.309  16.942  0.00  0.00    +0.000 A 
ATOM     21  C   UNL     1       5.449   6.194  16.975  0.00  0.00    +0.000 A 
ATOM     22  C   UNL     1       5.705   5.163  17.883  0.00  0.00    +0.000 A 
ATOM     23  C   UNL     1       6.792   5.247  18.760  0.00  0.00    +0.000 A 
ATOM     24  C   UNL     1       7.625   6.366  18.725  0.00  0.00    +0.000 A 
ENDBRANCH  15  22
ENDBRANCH  14  15
ENDBRANCH   1  14
TORSDOF 4
ENDMDL
MODEL 7
REMARK VINA RESULT:      -6.6      4.933      6.853
REMARK  Name = 
REMARK  5 active torsions:
REMARK  status: ('A' for Active; 'I' for Inactive)
REMARK    1  A    between atoms: C_1  and  C_2
REMARK    2  A    between atoms: C_5  and  S_6
REMARK    3  A    between atoms: S_6  and  C_9
REMARK    4  A    between atoms: C_9  and  C_10
REMARK    5  A    between atoms: C_19  and  N_20
REMARK                            x       y       z     vdW  Elec       q    Type
REMARK                         _______ _______ _______ _____ _____    ______ ____
ROOT
ATOM      1  C   UNL     1       2.646   5.981  18.568  0.00  0.00    +0.000 A 
ATOM      2  N   UNL     1       2.610   7.284  18.132  0.00  0.00    +0.000 NA
ATOM      3  C   UNL     1       1.979   7.962  19.062  0.00  0.00    +0.000 A 
ATOM      4  C   UNL     1       1.661   9.346  19.113  0.00  0.00    +0.000 A 
ATOM      5  C   UNL     1       1.010   9.848  20.177  0.00  0.00    +0.000 A 
ATOM      6  C   UNL     1       0.625   9.000  21.293  0.00  0.00    +0.000 A 
ATOM      7 BR   UNL     1      -0.271   9.782  22.725  0.00  0.00    +0.000 Br
ATOM      8  C   UNL     1       0.926   7.689  21.252  0.00  0.00    +0.000 A 
ATOM      9  N   UNL     1       1.597   7.157  20.142  0.00  0.00    +0.000 N 
ATOM     10  C   UNL     1       2.036   5.886  19.811  0.00  0.00    +0.000 A 
ENDROOT
BRANCH  10  11
ATOM     11  N   UNL     1       1.891   4.747  20.653  0.00  0.00    +0.000 N 
ATOM     12  O   UNL     1       2.821   4.521  21.435  0.00  0.00    +0.000 OA
ATOM     13  O   UNL     1       0.853   4.083  20.575  0.00  0.00    +0.000 OA
ENDBRANCH  10  11
BRANCH   1  14
ATOM     14  C   UNL     1       3.349   4.983  17.718  0.00  0.00    +0.000 C 
BRANCH  14  15
ATOM     15  S   UNL     1       5.123   5.056  17.812  0.00  0.00    +0.000 S 
ATOM     16  O   UNL     1       5.572   3.982  18.684  0.00  0.00    +0.000 OA
ATOM     17  O   UNL     1       5.495   6.431  18.096  0.00  0.00    +0.000 OA
BRANCH  15  22
ATOM     18  C   UNL     1       7.162   4.221  12.146  0.00  0.00    +0.000 C 
ATOM     19  C   UNL     1       6.672   4.365  13.559  0.00  0.00    +0.000 A 
ATOM     20  C   UNL     1       5.409   3.890  13.937  0.00  0.00    +0.000 A 
ATOM     21  C   UNL     1       4.945   4.064  15.245  0.00  0.00    +0.000 A 
ATOM     22  C   UNL     1       5.755   4.707  16.184  0.00  0.00    +0.000 A 
ATOM     23  C   UNL     1       7.019   5.183  15.820  0.00  0.00    +0.000 A 
ATOM     24  C   UNL     1       7.473   5.011  14.511  0.00  0.00    +0.000 A 
ENDBRANCH  15  22
ENDBRANCH  14  15
ENDBRANCH   1  14
TORSDOF 4
ENDMDL
MODEL 8
REMARK VINA RESULT:      -6.6      3.636      7.051
REMARK  Name = 
REMARK  5 active torsions:
REMARK  status: ('A' for Active; 'I' for Inactive)
REMARK    1  A    between atoms: C_1  and  C_2
REMARK    2  A    between atoms: C_5  and  S_6
REMARK    3  A    between atoms: S_6  and  C_9
REMARK    4  A    between atoms: C_9  and  C_10
REMARK    5  A    between atoms: C_19  and  N_20
REMARK                            x       y       z     vdW  Elec       q    Type
REMARK                         _______ _______ _______ _____ _____    ______ ____
ROOT
ATOM      1  C   UNL     1       1.196  10.097  19.533  0.00  0.00    +0.000 A 
ATOM      2  N   UNL     1       1.812   9.719  18.364  0.00  0.00    +0.000 NA
ATOM      3  C   UNL     1       2.184   8.471  18.534  0.00  0.00    +0.000 A 
ATOM      4  C   UNL     1       2.867   7.603  17.641  0.00  0.00    +0.000 A 
ATOM      5  C   UNL     1       3.147   6.341  18.013  0.00  0.00    +0.000 A 
ATOM      6  C   UNL     1       2.755   5.837  19.319  0.00  0.00    +0.000 A 
ATOM      7 BR   UNL     1       3.180   4.076  19.746  0.00  0.00    +0.000 Br
ATOM      8  C   UNL     1       2.105   6.654  20.167  0.00  0.00    +0.000 A 
ATOM      9  N   UNL     1       1.818   7.973  19.790  0.00  0.00    +0.000 N 
ATOM     10  C   UNL     1       1.181   9.030  20.420  0.00  0.00    +0.000 A 
ENDROOT
BRANCH  10  11
ATOM     11  N   UNL     1       0.605   8.954  21.719  0.00  0.00    +0.000 N 
ATOM     12  O   UNL     1       1.286   9.399  22.649  0.00  0.00    +0.000 OA
ATOM     13  O   UNL     1      -0.531   8.485  21.834  0.00  0.00    +0.000 OA
ENDBRANCH  10  11
BRANCH   1  14
ATOM     14  C   UNL     1       0.631  11.470  19.608  0.00  0.00    +0.000 C 
BRANCH  14  15
ATOM     15  S   UNL     1      -1.095  11.579  19.194  0.00  0.00    +0.000 S 
ATOM     16  O   UNL     1      -1.543  10.258  18.784  0.00  0.00    +0.000 OA
ATOM     17  O   UNL     1      -1.267  12.717  18.308  0.00  0.00    +0.000 OA
BRANCH  15  22
ATOM     18  C   UNL     1      -3.965  13.347  24.253  0.00  0.00    +0.000 C 
ATOM     19  C   UNL     1      -3.273  12.849  23.017  0.00  0.00    +0.000 A 
ATOM     20  C   UNL     1      -2.008  12.249  23.090  0.00  0.00    +0.000 A 
ATOM     21  C   UNL     1      -1.353  11.824  21.928  0.00  0.00    +0.000 A 
ATOM     22  C   UNL     1      -1.974  11.989  20.688  0.00  0.00    +0.000 A 
ATOM     23  C   UNL     1      -3.237  12.584  20.602  0.00  0.00    +0.000 A 
ATOM     24  C   UNL     1      -3.881  13.011  21.764  0.00  0.00    +0.000 A 
ENDBRANCH  15  22
ENDBRANCH  14  15
ENDBRANCH   1  14
TORSDOF 4
ENDMDL
MODEL 9
REMARK VINA RESULT:      -6.6      6.450      9.166
REMARK  Name = 
REMARK  5 active torsions:
REMARK  status: ('A' for Active; 'I' for Inactive)
REMARK    1  A    between atoms: C_1  and  C_2
REMARK    2  A    between atoms: C_5  and  S_6
REMARK    3  A    between atoms: S_6  and  C_9
REMARK    4  A    between atoms: C_9  and  C_10
REMARK    5  A    between atoms: C_19  and  N_20
REMARK                            x       y       z     vdW  Elec       q    Type
REMARK                         _______ _______ _______ _____ _____    ______ ____
ROOT
ATOM      1  C   UNL     1       4.646   3.662  19.237  0.00  0.00    +0.000 A 
ATOM      2  N   UNL     1       5.647   4.604  19.260  0.00  0.00    +0.000 NA
ATOM      3  C   UNL     1       6.060   4.727  18.020  0.00  0.00    +0.000 A 
ATOM      4  C   UNL     1       7.080   5.560  17.486  0.00  0.00    +0.000 A 
ATOM      5  C   UNL     1       7.341   5.541  16.167  0.00  0.00    +0.000 A 
ATOM      6  C   UNL     1       6.591   4.684  15.263  0.00  0.00    +0.000 A 
ATOM      7 BR   UNL     1       7.019   4.726  13.452  0.00  0.00    +0.000 Br
ATOM      8  C   UNL     1       5.622   3.896  15.762  0.00  0.00    +0.000 A 
ATOM      9  N   UNL     1       5.350   3.903  17.138  0.00  0.00    +0.000 N 
ATOM     10  C   UNL     1       4.442   3.227  17.936  0.00  0.00    +0.000 A 
ENDROOT
BRANCH  10  11
ATOM     11  N   UNL     1       3.479   2.302  17.441  0.00  0.00    +0.000 N 
ATOM     12  O   UNL     1       3.610   1.127  17.802  0.00  0.00    +0.000 OA
ATOM     13  O   UNL     1       2.571   2.725  16.721  0.00  0.00    +0.000 OA
ENDBRANCH  10  11
BRANCH   1  14
ATOM     14  C   UNL     1       3.958   3.349  20.518  0.00  0.00    +0.000 C 
BRANCH  14  15
ATOM     15  S   UNL     1       2.278   3.923  20.610  0.00  0.00    +0.000 S 
ATOM     16  O   UNL     1       1.924   4.056  22.014  0.00  0.00    +0.000 OA
ATOM     17  O   UNL     1       1.477   3.090  19.731  0.00  0.00    +0.000 OA
BRANCH  15  22
ATOM     18  C   UNL     1       1.745   9.468  18.175  0.00  0.00    +0.000 C 
ATOM     19  C   UNL     1       1.941   8.104  18.772  0.00  0.00    +0.000 A 
ATOM     20  C   UNL     1       2.229   6.996  17.962  0.00  0.00    +0.000 A 
ATOM     21  C   UNL     1       2.371   5.722  18.522  0.00  0.00    +0.000 A 
ATOM     22  C   UNL     1       2.236   5.557  19.903  0.00  0.00    +0.000 A 
ATOM     23  C   UNL     1       1.951   6.655  20.722  0.00  0.00    +0.000 A 
ATOM     24  C   UNL     1       1.805   7.922  20.155  0.00  0.00    +0.000 A 
ENDBRANCH  15  22
ENDBRANCH  14  15
ENDBRANCH   1  14
TORSDOF 4
ENDMDL
