MODEL 1
REMARK VINA RESULT:      -6.8      0.000      0.000
REMARK  Name = 
REMARK  14 active torsions:
REMARK  status: ('A' for Active; 'I' for Inactive)
REMARK    1  A    between atoms: C_1  and  C_2
REMARK    2  A    between atoms: C_2  and  C_3
REMARK    3  A    between atoms: C_3  and  C_4
REMARK    4  A    between atoms: C_4  and  C_5
REMARK    5  A    between atoms: C_5  and  C_6
REMARK    6  A    between atoms: C_6  and  C_7
REMARK    7  A    between atoms: C_7  and  C_8
REMARK    8  A    between atoms: C_8  and  C_9
REMARK    9  A    between atoms: C_9  and  C_10
REMARK   10  A    between atoms: C_10  and  C_12
REMARK   11  A    between atoms: C_12  and  C_13
REMARK   12  A    between atoms: C_13  and  O_14
REMARK   13  A    between atoms: C_13  and  C_15
REMARK   14  A    between atoms: C_15  and  C_16
REMARK                            x       y       z     vdW  Elec       q    Type
REMARK                         _______ _______ _______ _____ _____    ______ ____
ROOT
ATOM      1  C   UNL     1       5.555   5.897  17.672  0.00  0.00    +0.000 C 
ENDROOT
BRANCH   1   2
ATOM      2  C   UNL     1       7.041   5.771  17.439  0.00  0.00    +0.000 C 
ATOM      3  O   UNL     1       7.496   5.002  16.592  0.00  0.00    +0.000 OA
BRANCH   2   4
ATOM      4  C   UNL     1       7.924   6.706  18.236  0.00  0.00    +0.000 C 
BRANCH   4   5
ATOM      5  C   UNL     1       7.838   8.133  17.714  0.00  0.00    +0.000 C 
BRANCH   5   6
ATOM      6  C   UNL     1       8.577   9.091  18.640  0.00  0.00    +0.000 C 
BRANCH   6   7
ATOM      7  C   UNL     1       9.040  10.318  17.867  0.00  0.00    +0.000 C 
BRANCH   7   8
ATOM      8  C   UNL     1       9.161  11.531  18.780  0.00  0.00    +0.000 C 
BRANCH   8   9
ATOM      9  C   UNL     1       9.719  11.114  20.135  0.00  0.00    +0.000 C 
BRANCH   9  10
ATOM     10  C   UNL     1      10.561  12.228  20.745  0.00  0.00    +0.000 C 
BRANCH  10  12
ATOM     11  C   UNL     1       8.696  12.285  22.419  0.00  0.00    +0.000 C 
ATOM     12  C   UNL     1       9.713  13.112  21.654  0.00  0.00    +0.000 C 
ENDBRANCH  10  12
ENDBRANCH   9  10
ENDBRANCH   8   9
ENDBRANCH   7   8
ENDBRANCH   6   7
ENDBRANCH   5   6
ENDBRANCH   4   5
ENDBRANCH   2   4
ENDBRANCH   1   2
BRANCH   1  13
ATOM     13  C   UNL     1       5.059   5.014  18.816  0.00  0.00    +0.000 C 
BRANCH  13  14
ATOM     14  O   UNL     1       5.906   3.864  18.834  0.00  0.00    +0.000 OA
ATOM     15  H   UNL     1       5.417   3.125  19.238  0.00  0.00    +0.000 HD
ENDBRANCH  13  14
BRANCH  13  16
ATOM     16  C   UNL     1       3.591   4.602  18.644  0.00  0.00    +0.000 C 
BRANCH  16  17
ATOM     17  C   UNL     1       3.327   3.079  18.644  0.00  0.00    +0.000 C 
ATOM     18  C   UNL     1       1.971   2.606  18.113  0.00  0.00    +0.000 C 
ATOM     19  C   UNL     1       0.897   3.101  19.029  0.00  0.00    +0.000 C 
ATOM     20  C   UNL     1       1.151   3.228  20.337  0.00  0.00    +0.000 C 
ATOM     21  C   UNL     1       2.459   2.830  20.901  0.00  0.00    +0.000 C 
ATOM     22  O   UNL     1       2.601   2.708  22.113  0.00  0.00    +0.000 OA
ATOM     23  O   UNL     1       3.469   2.614  20.015  0.00  0.00    +0.000 OA
ENDBRANCH  16  17
ENDBRANCH  13  16
ENDBRANCH   1  13
TORSDOF 13
ENDMDL
MODEL 2
REMARK VINA RESULT:      -6.7      1.313      1.619
REMARK  Name = 
REMARK  14 active torsions:
REMARK  status: ('A' for Active; 'I' for Inactive)
REMARK    1  A    between atoms: C_1  and  C_2
REMARK    2  A    between atoms: C_2  and  C_3
REMARK    3  A    between atoms: C_3  and  C_4
REMARK    4  A    between atoms: C_4  and  C_5
REMARK    5  A    between atoms: C_5  and  C_6
REMARK    6  A    between atoms: C_6  and  C_7
REMARK    7  A    between atoms: C_7  and  C_8
REMARK    8  A    between atoms: C_8  and  C_9
REMARK    9  A    between atoms: C_9  and  C_10
REMARK   10  A    between atoms: C_10  and  C_12
REMARK   11  A    between atoms: C_12  and  C_13
REMARK   12  A    between atoms: C_13  and  O_14
REMARK   13  A    between atoms: C_13  and  C_15
REMARK   14  A    between atoms: C_15  and  C_16
REMARK                            x       y       z     vdW  Elec       q    Type
REMARK                         _______ _______ _______ _____ _____    ______ ____
ROOT
ATOM      1  C   UNL     1       5.736   5.257  17.691  0.00  0.00    +0.000 C 
ENDROOT
BRANCH   1   2
ATOM      2  C   UNL     1       7.077   5.835  18.070  0.00  0.00    +0.000 C 
ATOM      3  O   UNL     1       7.894   5.189  18.728  0.00  0.00    +0.000 OA
BRANCH   2   4
ATOM      4  C   UNL     1       7.393   7.209  17.519  0.00  0.00    +0.000 C 
BRANCH   4   5
ATOM      5  C   UNL     1       8.399   7.941  18.395  0.00  0.00    +0.000 C 
BRANCH   5   6
ATOM      6  C   UNL     1       8.346   9.442  18.136  0.00  0.00    +0.000 C 
BRANCH   6   7
ATOM      7  C   UNL     1       9.181  10.184  19.170  0.00  0.00    +0.000 C 
BRANCH   7   8
ATOM      8  C   UNL     1      10.156  11.147  18.504  0.00  0.00    +0.000 C 
BRANCH   8   9
ATOM      9  C   UNL     1       9.391  12.244  17.773  0.00  0.00    +0.000 C 
BRANCH   9  10
ATOM     10  C   UNL     1       9.933  13.621  18.136  0.00  0.00    +0.000 C 
BRANCH  10  12
ATOM     11  C   UNL     1      11.732  14.700  19.508  0.00  0.00    +0.000 C 
ATOM     12  C   UNL     1      10.728  13.565  19.436  0.00  0.00    +0.000 C 
ENDBRANCH  10  12
ENDBRANCH   9  10
ENDBRANCH   8   9
ENDBRANCH   7   8
ENDBRANCH   6   7
ENDBRANCH   5   6
ENDBRANCH   4   5
ENDBRANCH   2   4
ENDBRANCH   1   2
BRANCH   1  13
ATOM     13  C   UNL     1       5.028   4.584  18.865  0.00  0.00    +0.000 C 
BRANCH  13  14
ATOM     14  O   UNL     1       5.724   3.361  19.108  0.00  0.00    +0.000 OA
ATOM     15  H   UNL     1       6.502   3.324  18.524  0.00  0.00    +0.000 HD
ENDBRANCH  13  14
BRANCH  13  16
ATOM     16  C   UNL     1       3.544   4.314  18.580  0.00  0.00    +0.000 C 
BRANCH  16  17
ATOM     17  C   UNL     1       3.110   2.835  18.680  0.00  0.00    +0.000 C 
ATOM     18  C   UNL     1       1.682   2.495  18.240  0.00  0.00    +0.000 C 
ATOM     19  C   UNL     1       0.721   3.160  19.173  0.00  0.00    +0.000 C 
ATOM     20  C   UNL     1       1.055   3.326  20.459  0.00  0.00    +0.000 C 
ATOM     21  C   UNL     1       2.337   2.809  20.985  0.00  0.00    +0.000 C 
ATOM     22  O   UNL     1       2.527   2.735  22.194  0.00  0.00    +0.000 OA
ATOM     23  O   UNL     1       3.268   2.430  20.068  0.00  0.00    +0.000 OA
ENDBRANCH  16  17
ENDBRANCH  13  16
ENDBRANCH   1  13
TORSDOF 13
ENDMDL
MODEL 3
REMARK VINA RESULT:      -6.7      4.096      7.335
REMARK  Name = 
REMARK  14 active torsions:
REMARK  status: ('A' for Active; 'I' for Inactive)
REMARK    1  A    between atoms: C_1  and  C_2
REMARK    2  A    between atoms: C_2  and  C_3
REMARK    3  A    between atoms: C_3  and  C_4
REMARK    4  A    between atoms: C_4  and  C_5
REMARK    5  A    between atoms: C_5  and  C_6
REMARK    6  A    between atoms: C_6  and  C_7
REMARK    7  A    between atoms: C_7  and  C_8
REMARK    8  A    between atoms: C_8  and  C_9
REMARK    9  A    between atoms: C_9  and  C_10
REMARK   10  A    between atoms: C_10  and  C_12
REMARK   11  A    between atoms: C_12  and  C_13
REMARK   12  A    between atoms: C_13  and  O_14
REMARK   13  A    between atoms: C_13  and  C_15
REMARK   14  A    between atoms: C_15  and  C_16
REMARK                            x       y       z     vdW  Elec       q    Type
REMARK                         _______ _______ _______ _____ _____    ______ ____
ROOT
ATOM      1  C   UNL     1       5.174   5.623  17.608  0.00  0.00    +0.000 C 
ENDROOT
BRANCH   1   2
ATOM      2  C   UNL     1       6.541   5.985  17.082  0.00  0.00    +0.000 C 
ATOM      3  O   UNL     1       7.322   6.674  17.739  0.00  0.00    +0.000 OA
BRANCH   2   4
ATOM      4  C   UNL     1       6.927   5.378  15.750  0.00  0.00    +0.000 C 
BRANCH   4   5
ATOM      5  C   UNL     1       5.702   4.917  14.974  0.00  0.00    +0.000 C 
BRANCH   5   6
ATOM      6  C   UNL     1       6.018   3.667  14.162  0.00  0.00    +0.000 C 
BRANCH   6   7
ATOM      7  C   UNL     1       6.854   4.029  12.942  0.00  0.00    +0.000 C 
BRANCH   7   8
ATOM      8  C   UNL     1       6.123   3.685  11.651  0.00  0.00    +0.000 C 
BRANCH   8   9
ATOM      9  C   UNL     1       5.101   2.583  11.906  0.00  0.00    +0.000 C 
BRANCH   9  10
ATOM     10  C   UNL     1       3.844   2.802  11.071  0.00  0.00    +0.000 C 
BRANCH  10  12
ATOM     11  C   UNL     1       2.719   4.342   9.446  0.00  0.00    +0.000 C 
ATOM     12  C   UNL     1       3.832   4.202  10.468  0.00  0.00    +0.000 C 
ENDBRANCH  10  12
ENDBRANCH   9  10
ENDBRANCH   8   9
ENDBRANCH   7   8
ENDBRANCH   6   7
ENDBRANCH   5   6
ENDBRANCH   4   5
ENDBRANCH   2   4
ENDBRANCH   1   2
BRANCH   1  13
ATOM     13  C   UNL     1       5.143   5.484  19.129  0.00  0.00    +0.000 C 
BRANCH  13  14
ATOM     14  O   UNL     1       6.257   4.662  19.482  0.00  0.00    +0.000 OA
ATOM     15  H   UNL     1       6.881   4.649  18.735  0.00  0.00    +0.000 HD
ENDBRANCH  13  14
BRANCH  13  16
ATOM     16  C   UNL     1       3.833   4.864  19.635  0.00  0.00    +0.000 C 
BRANCH  16  17
ATOM     17  C   UNL     1       3.639   3.367  19.305  0.00  0.00    +0.000 C 
ATOM     18  C   UNL     1       2.605   3.018  18.229  0.00  0.00    +0.000 C 
ATOM     19  C   UNL     1       1.247   3.400  18.727  0.00  0.00    +0.000 C 
ATOM     20  C   UNL     1       0.976   3.320  20.035  0.00  0.00    +0.000 C 
ATOM     21  C   UNL     1       1.980   2.805  20.991  0.00  0.00    +0.000 C 
ATOM     22  O   UNL     1       1.651   2.497  22.131  0.00  0.00    +0.000 OA
ATOM     23  O   UNL     1       3.259   2.696  20.538  0.00  0.00    +0.000 OA
ENDBRANCH  16  17
ENDBRANCH  13  16
ENDBRANCH   1  13
TORSDOF 13
ENDMDL
MODEL 4
REMARK VINA RESULT:      -6.4      1.982      2.640
REMARK  Name = 
REMARK  14 active torsions:
REMARK  status: ('A' for Active; 'I' for Inactive)
REMARK    1  A    between atoms: C_1  and  C_2
REMARK    2  A    between atoms: C_2  and  C_3
REMARK    3  A    between atoms: C_3  and  C_4
REMARK    4  A    between atoms: C_4  and  C_5
REMARK    5  A    between atoms: C_5  and  C_6
REMARK    6  A    between atoms: C_6  and  C_7
REMARK    7  A    between atoms: C_7  and  C_8
REMARK    8  A    between atoms: C_8  and  C_9
REMARK    9  A    between atoms: C_9  and  C_10
REMARK   10  A    between atoms: C_10  and  C_12
REMARK   11  A    between atoms: C_12  and  C_13
REMARK   12  A    between atoms: C_13  and  O_14
REMARK   13  A    between atoms: C_13  and  C_15
REMARK   14  A    between atoms: C_15  and  C_16
REMARK                            x       y       z     vdW  Elec       q    Type
REMARK                         _______ _______ _______ _____ _____    ______ ____
ROOT
ATOM      1  C   UNL     1       4.942   3.836  16.492  0.00  0.00    +0.000 C 
ENDROOT
BRANCH   1   2
ATOM      2  C   UNL     1       5.861   4.838  15.839  0.00  0.00    +0.000 C 
ATOM      3  O   UNL     1       5.465   5.591  14.949  0.00  0.00    +0.000 OA
BRANCH   2   4
ATOM      4  C   UNL     1       7.263   4.926  16.404  0.00  0.00    +0.000 C 
BRANCH   4   5
ATOM      5  C   UNL     1       7.281   5.661  17.736  0.00  0.00    +0.000 C 
BRANCH   5   6
ATOM      6  C   UNL     1       7.242   7.169  17.520  0.00  0.00    +0.000 C 
BRANCH   6   7
ATOM      7  C   UNL     1       8.341   7.845  18.329  0.00  0.00    +0.000 C 
BRANCH   7   8
ATOM      8  C   UNL     1       8.373   9.345  18.068  0.00  0.00    +0.000 C 
BRANCH   8   9
ATOM      9  C   UNL     1       9.183  10.048  19.151  0.00  0.00    +0.000 C 
BRANCH   9  10
ATOM     10  C   UNL     1       9.686  11.402  18.664  0.00  0.00    +0.000 C 
BRANCH  10  12
ATOM     11  C   UNL     1      11.977  12.127  19.376  0.00  0.00    +0.000 C 
ATOM     12  C   UNL     1      11.177  11.345  18.351  0.00  0.00    +0.000 C 
ENDBRANCH  10  12
ENDBRANCH   9  10
ENDBRANCH   8   9
ENDBRANCH   7   8
ENDBRANCH   6   7
ENDBRANCH   5   6
ENDBRANCH   4   5
ENDBRANCH   2   4
ENDBRANCH   1   2
BRANCH   1  13
ATOM     13  C   UNL     1       3.615   4.450  16.934  0.00  0.00    +0.000 C 
BRANCH  13  14
ATOM     14  O   UNL     1       3.921   5.750  17.439  0.00  0.00    +0.000 OA
ATOM     15  H   UNL     1       4.348   6.266  16.732  0.00  0.00    +0.000 HD
ENDBRANCH  13  14
BRANCH  13  16
ATOM     16  C   UNL     1       2.906   3.608  18.003  0.00  0.00    +0.000 C 
BRANCH  16  17
ATOM     17  C   UNL     1       3.536   3.663  19.413  0.00  0.00    +0.000 C 
ATOM     18  C   UNL     1       3.054   2.627  20.434  0.00  0.00    +0.000 C 
ATOM     19  C   UNL     1       1.611   2.884  20.733  0.00  0.00    +0.000 C 
ATOM     20  C   UNL     1       1.144   4.138  20.708  0.00  0.00    +0.000 C 
ATOM     21  C   UNL     1       2.045   5.281  20.447  0.00  0.00    +0.000 C 
ATOM     22  O   UNL     1       1.675   6.428  20.672  0.00  0.00    +0.000 OA
ATOM     23  O   UNL     1       3.279   4.989  19.952  0.00  0.00    +0.000 OA
ENDBRANCH  16  17
ENDBRANCH  13  16
ENDBRANCH   1  13
TORSDOF 13
ENDMDL
MODEL 5
REMARK VINA RESULT:      -6.4      1.177      1.559
REMARK  Name = 
REMARK  14 active torsions:
REMARK  status: ('A' for Active; 'I' for Inactive)
REMARK    1  A    between atoms: C_1  and  C_2
REMARK    2  A    between atoms: C_2  and  C_3
REMARK    3  A    between atoms: C_3  and  C_4
REMARK    4  A    between atoms: C_4  and  C_5
REMARK    5  A    between atoms: C_5  and  C_6
REMARK    6  A    between atoms: C_6  and  C_7
REMARK    7  A    between atoms: C_7  and  C_8
REMARK    8  A    between atoms: C_8  and  C_9
REMARK    9  A    between atoms: C_9  and  C_10
REMARK   10  A    between atoms: C_10  and  C_12
REMARK   11  A    between atoms: C_12  and  C_13
REMARK   12  A    between atoms: C_13  and  O_14
REMARK   13  A    between atoms: C_13  and  C_15
REMARK   14  A    between atoms: C_15  and  C_16
REMARK                            x       y       z     vdW  Elec       q    Type
REMARK                         _______ _______ _______ _____ _____    ______ ____
ROOT
ATOM      1  C   UNL     1       5.409   5.035  17.503  0.00  0.00    +0.000 C 
ENDROOT
BRANCH   1   2
ATOM      2  C   UNL     1       5.433   6.506  17.167  0.00  0.00    +0.000 C 
ATOM      3  O   UNL     1       4.410   7.191  17.201  0.00  0.00    +0.000 OA
BRANCH   2   4
ATOM      4  C   UNL     1       6.793   7.104  16.878  0.00  0.00    +0.000 C 
BRANCH   4   5
ATOM      5  C   UNL     1       7.791   6.771  17.977  0.00  0.00    +0.000 C 
BRANCH   5   6
ATOM      6  C   UNL     1       8.356   8.044  18.595  0.00  0.00    +0.000 C 
BRANCH   6   7
ATOM      7  C   UNL     1       8.094   9.234  17.681  0.00  0.00    +0.000 C 
BRANCH   7   8
ATOM      8  C   UNL     1       8.492  10.542  18.351  0.00  0.00    +0.000 C 
BRANCH   8   9
ATOM      9  C   UNL     1       9.632  10.302  19.335  0.00  0.00    +0.000 C 
BRANCH   9  10
ATOM     10  C   UNL     1       9.435  11.118  20.607  0.00  0.00    +0.000 C 
BRANCH  10  12
ATOM     11  C   UNL     1      11.758  11.828  19.989  0.00  0.00    +0.000 C 
ATOM     12  C   UNL     1      10.482  12.222  20.709  0.00  0.00    +0.000 C 
ENDBRANCH  10  12
ENDBRANCH   9  10
ENDBRANCH   8   9
ENDBRANCH   7   8
ENDBRANCH   6   7
ENDBRANCH   5   6
ENDBRANCH   4   5
ENDBRANCH   2   4
ENDBRANCH   1   2
BRANCH   1  13
ATOM     13  C   UNL     1       4.955   4.763  18.935  0.00  0.00    +0.000 C 
BRANCH  13  14
ATOM     14  O   UNL     1       5.804   3.731  19.439  0.00  0.00    +0.000 OA
ATOM     15  H   UNL     1       5.325   2.884  19.392  0.00  0.00    +0.000 HD
ENDBRANCH  13  14
BRANCH  13  16
ATOM     16  C   UNL     1       3.482   4.337  19.013  0.00  0.00    +0.000 C 
BRANCH  16  17
ATOM     17  C   UNL     1       3.238   2.813  19.080  0.00  0.00    +0.000 C 
ATOM     18  C   UNL     1       2.048   2.261  18.289  0.00  0.00    +0.000 C 
ATOM     19  C   UNL     1       0.785   2.799  18.883  0.00  0.00    +0.000 C 
ATOM     20  C   UNL     1       0.723   3.039  20.199  0.00  0.00    +0.000 C 
ATOM     21  C   UNL     1       1.864   2.724  21.084  0.00  0.00    +0.000 C 
ATOM     22  O   UNL     1       1.719   2.704  22.302  0.00  0.00    +0.000 OA
ATOM     23  O   UNL     1       3.056   2.464  20.481  0.00  0.00    +0.000 OA
ENDBRANCH  16  17
ENDBRANCH  13  16
ENDBRANCH   1  13
TORSDOF 13
ENDMDL
MODEL 6
REMARK VINA RESULT:      -6.4      4.580      6.873
REMARK  Name = 
REMARK  14 active torsions:
REMARK  status: ('A' for Active; 'I' for Inactive)
REMARK    1  A    between atoms: C_1  and  C_2
REMARK    2  A    between atoms: C_2  and  C_3
REMARK    3  A    between atoms: C_3  and  C_4
REMARK    4  A    between atoms: C_4  and  C_5
REMARK    5  A    between atoms: C_5  and  C_6
REMARK    6  A    between atoms: C_6  and  C_7
REMARK    7  A    between atoms: C_7  and  C_8
REMARK    8  A    between atoms: C_8  and  C_9
REMARK    9  A    between atoms: C_9  and  C_10
REMARK   10  A    between atoms: C_10  and  C_12
REMARK   11  A    between atoms: C_12  and  C_13
REMARK   12  A    between atoms: C_13  and  O_14
REMARK   13  A    between atoms: C_13  and  C_15
REMARK   14  A    between atoms: C_15  and  C_16
REMARK                            x       y       z     vdW  Elec       q    Type
REMARK                         _______ _______ _______ _____ _____    ______ ____
ROOT
ATOM      1  C   UNL     1       1.932   2.359  18.687  0.00  0.00    +0.000 C 
ENDROOT
BRANCH   1   2
ATOM      2  C   UNL     1       2.500   2.950  19.953  0.00  0.00    +0.000 C 
ATOM      3  O   UNL     1       3.530   2.511  20.464  0.00  0.00    +0.000 OA
BRANCH   2   4
ATOM      4  C   UNL     1       1.784   4.166  20.502  0.00  0.00    +0.000 C 
BRANCH   4   5
ATOM      5  C   UNL     1       2.604   5.432  20.302  0.00  0.00    +0.000 C 
BRANCH   5   6
ATOM      6  C   UNL     1       2.184   6.149  19.025  0.00  0.00    +0.000 C 
BRANCH   6   7
ATOM      7  C   UNL     1       2.316   7.656  19.200  0.00  0.00    +0.000 C 
BRANCH   7   8
ATOM      8  C   UNL     1       2.422   8.360  17.854  0.00  0.00    +0.000 C 
BRANCH   8   9
ATOM      9  C   UNL     1       1.633   9.664  17.880  0.00  0.00    +0.000 C 
BRANCH   9  10
ATOM     10  C   UNL     1       0.613   9.661  19.013  0.00  0.00    +0.000 C 
BRANCH  10  12
ATOM     11  C   UNL     1      -1.157  11.323  19.633  0.00  0.00    +0.000 C 
ATOM     12  C   UNL     1      -0.681  10.341  18.579  0.00  0.00    +0.000 C 
ENDBRANCH  10  12
ENDBRANCH   9  10
ENDBRANCH   8   9
ENDBRANCH   7   8
ENDBRANCH   6   7
ENDBRANCH   5   6
ENDBRANCH   4   5
ENDBRANCH   2   4
ENDBRANCH   1   2
BRANCH   1  13
ATOM     13  C   UNL     1       2.956   2.290  17.555  0.00  0.00    +0.000 C 
BRANCH  13  14
ATOM     14  O   UNL     1       4.026   1.471  18.029  0.00  0.00    +0.000 OA
ATOM     15  H   UNL     1       3.691   0.907  18.748  0.00  0.00    +0.000 HD
ENDBRANCH  13  14
BRANCH  13  16
ATOM     16  C   UNL     1       3.475   3.676  17.148  0.00  0.00    +0.000 C 
BRANCH  16  17
ATOM     17  C   UNL     1       4.972   3.930  17.431  0.00  0.00    +0.000 C 
ATOM     18  C   UNL     1       5.388   5.371  17.744  0.00  0.00    +0.000 C 
ATOM     19  C   UNL     1       5.160   6.211  16.528  0.00  0.00    +0.000 C 
ATOM     20  C   UNL     1       5.307   5.670  15.313  0.00  0.00    +0.000 C 
ATOM     21  C   UNL     1       5.750   4.269  15.152  0.00  0.00    +0.000 C 
ATOM     22  O   UNL     1       6.125   3.857  14.060  0.00  0.00    +0.000 OA
ATOM     23  O   UNL     1       5.716   3.483  16.264  0.00  0.00    +0.000 OA
ENDBRANCH  16  17
ENDBRANCH  13  16
ENDBRANCH   1  13
TORSDOF 13
ENDMDL
MODEL 7
REMARK VINA RESULT:      -6.4      4.721      7.929
REMARK  Name = 
REMARK  14 active torsions:
REMARK  status: ('A' for Active; 'I' for Inactive)
REMARK    1  A    between atoms: C_1  and  C_2
REMARK    2  A    between atoms: C_2  and  C_3
REMARK    3  A    between atoms: C_3  and  C_4
REMARK    4  A    between atoms: C_4  and  C_5
REMARK    5  A    between atoms: C_5  and  C_6
REMARK    6  A    between atoms: C_6  and  C_7
REMARK    7  A    between atoms: C_7  and  C_8
REMARK    8  A    between atoms: C_8  and  C_9
REMARK    9  A    between atoms: C_9  and  C_10
REMARK   10  A    between atoms: C_10  and  C_12
REMARK   11  A    between atoms: C_12  and  C_13
REMARK   12  A    between atoms: C_13  and  O_14
REMARK   13  A    between atoms: C_13  and  C_15
REMARK   14  A    between atoms: C_15  and  C_16
REMARK                            x       y       z     vdW  Elec       q    Type
REMARK                         _______ _______ _______ _____ _____    ______ ____
ROOT
ATOM      1  C   UNL     1       5.775   5.086  17.322  0.00  0.00    +0.000 C 
ENDROOT
BRANCH   1   2
ATOM      2  C   UNL     1       6.588   4.950  16.058  0.00  0.00    +0.000 C 
ATOM      3  O   UNL     1       7.534   5.700  15.818  0.00  0.00    +0.000 OA
BRANCH   2   4
ATOM      4  C   UNL     1       6.231   3.788  15.156  0.00  0.00    +0.000 C 
BRANCH   4   5
ATOM      5  C   UNL     1       5.596   4.266  13.859  0.00  0.00    +0.000 C 
BRANCH   5   6
ATOM      6  C   UNL     1       6.417   3.813  12.658  0.00  0.00    +0.000 C 
BRANCH   6   7
ATOM      7  C   UNL     1       6.010   2.405  12.244  0.00  0.00    +0.000 C 
BRANCH   7   8
ATOM      8  C   UNL     1       5.220   2.420  10.942  0.00  0.00    +0.000 C 
BRANCH   8   9
ATOM      9  C   UNL     1       3.783   2.856  11.206  0.00  0.00    +0.000 C 
BRANCH   9  10
ATOM     10  C   UNL     1       3.505   4.221  10.589  0.00  0.00    +0.000 C 
BRANCH  10  12
ATOM     11  C   UNL     1       1.996   5.134   8.808  0.00  0.00    +0.000 C 
ATOM     12  C   UNL     1       3.031   4.077   9.147  0.00  0.00    +0.000 C 
ENDBRANCH  10  12
ENDBRANCH   9  10
ENDBRANCH   8   9
ENDBRANCH   7   8
ENDBRANCH   6   7
ENDBRANCH   5   6
ENDBRANCH   4   5
ENDBRANCH   2   4
ENDBRANCH   1   2
BRANCH   1  13
ATOM     13  C   UNL     1       4.349   5.565  17.060  0.00  0.00    +0.000 C 
BRANCH  13  14
ATOM     14  O   UNL     1       4.229   6.839  17.696  0.00  0.00    +0.000 OA
ATOM     15  H   UNL     1       4.146   6.700  18.656  0.00  0.00    +0.000 HD
ENDBRANCH  13  14
BRANCH  13  16
ATOM     16  C   UNL     1       3.293   4.591  17.600  0.00  0.00    +0.000 C 
BRANCH  16  17
ATOM     17  C   UNL     1       3.851   3.303  18.246  0.00  0.00    +0.000 C 
ATOM     18  C   UNL     1       3.155   1.986  17.892  0.00  0.00    +0.000 C 
ATOM     19  C   UNL     1       1.760   2.019  18.431  0.00  0.00    +0.000 C 
ATOM     20  C   UNL     1       1.506   2.682  19.566  0.00  0.00    +0.000 C 
ATOM     21  C   UNL     1       2.594   3.333  20.327  0.00  0.00    +0.000 C 
ATOM     22  O   UNL     1       2.406   3.714  21.478  0.00  0.00    +0.000 OA
ATOM     23  O   UNL     1       3.787   3.479  19.689  0.00  0.00    +0.000 OA
ENDBRANCH  16  17
ENDBRANCH  13  16
ENDBRANCH   1  13
TORSDOF 13
ENDMDL
MODEL 8
REMARK VINA RESULT:      -6.3      4.337      6.991
REMARK  Name = 
REMARK  14 active torsions:
REMARK  status: ('A' for Active; 'I' for Inactive)
REMARK    1  A    between atoms: C_1  and  C_2
REMARK    2  A    between atoms: C_2  and  C_3
REMARK    3  A    between atoms: C_3  and  C_4
REMARK    4  A    between atoms: C_4  and  C_5
REMARK    5  A    between atoms: C_5  and  C_6
REMARK    6  A    between atoms: C_6  and  C_7
REMARK    7  A    between atoms: C_7  and  C_8
REMARK    8  A    between atoms: C_8  and  C_9
REMARK    9  A    between atoms: C_9  and  C_10
REMARK   10  A    between atoms: C_10  and  C_12
REMARK   11  A    between atoms: C_12  and  C_13
REMARK   12  A    between atoms: C_13  and  O_14
REMARK   13  A    between atoms: C_13  and  C_15
REMARK   14  A    between atoms: C_15  and  C_16
REMARK                            x       y       z     vdW  Elec       q    Type
REMARK                         _______ _______ _______ _____ _____    ______ ____
ROOT
ATOM      1  C   UNL     1       3.143   2.200  19.102  0.00  0.00    +0.000 C 
ENDROOT
BRANCH   1   2
ATOM      2  C   UNL     1       1.826   2.704  18.566  0.00  0.00    +0.000 C 
ATOM      3  O   UNL     1       1.516   2.564  17.383  0.00  0.00    +0.000 OA
BRANCH   2   4
ATOM      4  C   UNL     1       0.876   3.304  19.581  0.00  0.00    +0.000 C 
BRANCH   4   5
ATOM      5  C   UNL     1       1.518   3.393  20.958  0.00  0.00    +0.000 C 
BRANCH   5   6
ATOM      6  C   UNL     1       2.218   4.734  21.140  0.00  0.00    +0.000 C 
BRANCH   6   7
ATOM      7  C   UNL     1       1.337   5.862  20.619  0.00  0.00    +0.000 C 
BRANCH   7   8
ATOM      8  C   UNL     1       2.172   6.958  19.970  0.00  0.00    +0.000 C 
BRANCH   8   9
ATOM      9  C   UNL     1       1.564   8.324  20.265  0.00  0.00    +0.000 C 
BRANCH   9  10
ATOM     10  C   UNL     1       1.052   8.396  21.698  0.00  0.00    +0.000 C 
BRANCH  10  12
ATOM     11  C   UNL     1      -0.467   9.759  23.153  0.00  0.00    +0.000 C 
ATOM     12  C   UNL     1       0.545   9.797  22.023  0.00  0.00    +0.000 C 
ENDBRANCH  10  12
ENDBRANCH   9  10
ENDBRANCH   8   9
ENDBRANCH   7   8
ENDBRANCH   6   7
ENDBRANCH   5   6
ENDBRANCH   4   5
ENDBRANCH   2   4
ENDBRANCH   1   2
BRANCH   1  13
ATOM     13  C   UNL     1       4.342   2.950  18.527  0.00  0.00    +0.000 C 
BRANCH  13  14
ATOM     14  O   UNL     1       5.292   3.067  19.587  0.00  0.00    +0.000 OA
ATOM     15  H   UNL     1       4.969   2.555  20.351  0.00  0.00    +0.000 HD
ENDBRANCH  13  14
BRANCH  13  16
ATOM     16  C   UNL     1       3.963   4.335  17.985  0.00  0.00    +0.000 C 
BRANCH  16  17
ATOM     17  C   UNL     1       4.980   5.461  18.279  0.00  0.00    +0.000 C 
ATOM     18  C   UNL     1       4.815   6.771  17.503  0.00  0.00    +0.000 C 
ATOM     19  C   UNL     1       5.066   6.503  16.053  0.00  0.00    +0.000 C 
ATOM     20  C   UNL     1       5.952   5.565  15.697  0.00  0.00    +0.000 C 
ATOM     21  C   UNL     1       6.730   4.828  16.715  0.00  0.00    +0.000 C 
ATOM     22  O   UNL     1       7.707   4.162  16.388  0.00  0.00    +0.000 OA
ATOM     23  O   UNL     1       6.306   4.930  18.004  0.00  0.00    +0.000 OA
ENDBRANCH  16  17
ENDBRANCH  13  16
ENDBRANCH   1  13
TORSDOF 13
ENDMDL
MODEL 9
REMARK VINA RESULT:      -6.3      4.437      7.035
REMARK  Name = 
REMARK  14 active torsions:
REMARK  status: ('A' for Active; 'I' for Inactive)
REMARK    1  A    between atoms: C_1  and  C_2
REMARK    2  A    between atoms: C_2  and  C_3
REMARK    3  A    between atoms: C_3  and  C_4
REMARK    4  A    between atoms: C_4  and  C_5
REMARK    5  A    between atoms: C_5  and  C_6
REMARK    6  A    between atoms: C_6  and  C_7
REMARK    7  A    between atoms: C_7  and  C_8
REMARK    8  A    between atoms: C_8  and  C_9
REMARK    9  A    between atoms: C_9  and  C_10
REMARK   10  A    between atoms: C_10  and  C_12
REMARK   11  A    between atoms: C_12  and  C_13
REMARK   12  A    between atoms: C_13  and  O_14
REMARK   13  A    between atoms: C_13  and  C_15
REMARK   14  A    between atoms: C_15  and  C_16
REMARK                            x       y       z     vdW  Elec       q    Type
REMARK                         _______ _______ _______ _____ _____    ______ ____
ROOT
ATOM      1  C   UNL     1       2.583   2.055  18.954  0.00  0.00    +0.000 C 
ENDROOT
BRANCH   1   2
ATOM      2  C   UNL     1       2.213   2.870  20.169  0.00  0.00    +0.000 C 
ATOM      3  O   UNL     1       2.548   2.525  21.302  0.00  0.00    +0.000 OA
BRANCH   2   4
ATOM      4  C   UNL     1       1.492   4.175  19.904  0.00  0.00    +0.000 C 
BRANCH   4   5
ATOM      5  C   UNL     1       2.211   5.349  20.552  0.00  0.00    +0.000 C 
BRANCH   5   6
ATOM      6  C   UNL     1       1.214   6.415  20.989  0.00  0.00    +0.000 C 
BRANCH   6   7
ATOM      7  C   UNL     1       1.638   7.779  20.459  0.00  0.00    +0.000 C 
BRANCH   7   8
ATOM      8  C   UNL     1       1.064   8.903  21.312  0.00  0.00    +0.000 C 
BRANCH   8   9
ATOM      9  C   UNL     1       0.745  10.112  20.440  0.00  0.00    +0.000 C 
BRANCH   9  10
ATOM     10  C   UNL     1      -0.445  10.886  20.994  0.00  0.00    +0.000 C 
BRANCH  10  12
ATOM     11  C   UNL     1      -1.727  11.484  23.064  0.00  0.00    +0.000 C 
ATOM     12  C   UNL     1      -0.506  10.770  22.514  0.00  0.00    +0.000 C 
ENDBRANCH  10  12
ENDBRANCH   9  10
ENDBRANCH   8   9
ENDBRANCH   7   8
ENDBRANCH   6   7
ENDBRANCH   5   6
ENDBRANCH   4   5
ENDBRANCH   2   4
ENDBRANCH   1   2
BRANCH   1  13
ATOM     13  C   UNL     1       4.037   2.252  18.530  0.00  0.00    +0.000 C 
BRANCH  13  14
ATOM     14  O   UNL     1       4.802   2.324  19.734  0.00  0.00    +0.000 OA
ATOM     15  H   UNL     1       5.719   2.560  19.506  0.00  0.00    +0.000 HD
ENDBRANCH  13  14
BRANCH  13  16
ATOM     16  C   UNL     1       4.236   3.519  17.687  0.00  0.00    +0.000 C 
BRANCH  16  17
ATOM     17  C   UNL     1       4.909   4.701  18.419  0.00  0.00    +0.000 C 
ATOM     18  C   UNL     1       4.726   6.095  17.810  0.00  0.00    +0.000 C 
ATOM     19  C   UNL     1       5.409   6.131  16.480  0.00  0.00    +0.000 C 
ATOM     20  C   UNL     1       6.514   5.402  16.283  0.00  0.00    +0.000 C 
ATOM     21  C   UNL     1       7.106   4.607  17.380  0.00  0.00    +0.000 C 
ATOM     22  O   UNL     1       8.239   4.151  17.275  0.00  0.00    +0.000 OA
ATOM     23  O   UNL     1       6.334   4.416  18.485  0.00  0.00    +0.000 OA
ENDBRANCH  16  17
ENDBRANCH  13  16
ENDBRANCH   1  13
TORSDOF 13
ENDMDL
