MODEL 1
REMARK VINA RESULT:      -7.7      0.000      0.000
REMARK  Name = 
REMARK  11 active torsions:
REMARK  status: ('A' for Active; 'I' for Inactive)
REMARK    1  A    between atoms: C_1  and  C_2
REMARK    2  A    between atoms: C_2  and  C_3
REMARK    3  A    between atoms: C_3  and  C_4
REMARK    4  A    between atoms: C_4  and  C_5
REMARK    5  A    between atoms: C_5  and  C_6
REMARK    6  A    between atoms: C_6  and  C_7
REMARK    7  A    between atoms: C_7  and  C_8
REMARK    8  A    between atoms: C_8  and  C_9
REMARK    9  A    between atoms: C_9  and  C_10
REMARK   10  A    between atoms: N_12  and  C_13
REMARK   11  A    between atoms: C_16  and  O_17
REMARK                            x       y       z     vdW  Elec       q    Type
REMARK                         _______ _______ _______ _____ _____    ______ ____
ROOT
ATOM      1  C   UNL     1       6.637   4.648  18.157  0.00  0.00    +0.000 C 
ATOM      2  O   UNL     1       7.167   4.934  19.226  0.00  0.00    +0.000 OA
ATOM      3  N   UNL     1       5.376   4.089  18.009  0.00  0.00    +0.000 N 
ATOM      4  H   UNL     1       5.158   3.691  17.106  0.00  0.00    +0.000 HD
ENDROOT
BRANCH   3   5
ATOM      5  C   UNL     1       4.479   3.818  19.084  0.00  0.00    +0.000 A 
ATOM      6  C   UNL     1       4.514   2.566  19.721  0.00  0.00    +0.000 A 
ATOM      7  C   UNL     1       3.603   2.223  20.709  0.00  0.00    +0.000 A 
ATOM      8  C   UNL     1       2.647   3.147  21.097  0.00  0.00    +0.000 A 
ATOM      9  C   UNL     1       2.604   4.438  20.536  0.00  0.00    +0.000 A 
ATOM     10  C   UNL     1       1.636   5.369  20.961  0.00  0.00    +0.000 A 
ATOM     11  C   UNL     1       1.570   6.651  20.424  0.00  0.00    +0.000 A 
ATOM     12  C   UNL     1       2.477   7.027  19.446  0.00  0.00    +0.000 A 
ATOM     13  C   UNL     1       3.443   6.118  19.000  0.00  0.00    +0.000 A 
ATOM     14  C   UNL     1       3.537   4.801  19.522  0.00  0.00    +0.000 A 
BRANCH   8  15
ATOM     15  O   UNL     1       1.733   2.789  22.053  0.00  0.00    +0.000 OA
ATOM     16  H   UNL     1       1.954   3.248  22.880  0.00  0.00    +0.000 HD
ENDBRANCH   8  15
ENDBRANCH   3   5
BRANCH   1  17
ATOM     17  C   UNL     1       7.374   4.862  16.843  0.00  0.00    +0.000 C 
BRANCH  17  18
ATOM     18  C   UNL     1       6.344   5.000  15.719  0.00  0.00    +0.000 C 
BRANCH  18  19
ATOM     19  C   UNL     1       6.420   3.902  14.667  0.00  0.00    +0.000 C 
BRANCH  19  20
ATOM     20  C   UNL     1       7.048   4.463  13.387  0.00  0.00    +0.000 C 
BRANCH  20  21
ATOM     21  C   UNL     1       6.573   3.707  12.152  0.00  0.00    +0.000 C 
BRANCH  21  22
ATOM     22  C   UNL     1       5.092   3.340  12.263  0.00  0.00    +0.000 C 
BRANCH  22  23
ATOM     23  C   UNL     1       4.549   2.873  10.913  0.00  0.00    +0.000 C 
BRANCH  23  25
ATOM     24  C   UNL     1       2.932   4.220   9.541  0.00  0.00    +0.000 C 
ATOM     25  C   UNL     1       3.090   3.279  10.724  0.00  0.00    +0.000 C 
ENDBRANCH  23  25
ENDBRANCH  22  23
ENDBRANCH  21  22
ENDBRANCH  20  21
ENDBRANCH  19  20
ENDBRANCH  18  19
ENDBRANCH  17  18
ENDBRANCH   1  17
TORSDOF 10
ENDMDL
MODEL 2
REMARK VINA RESULT:      -7.6      2.805      6.844
REMARK  Name = 
REMARK  11 active torsions:
REMARK  status: ('A' for Active; 'I' for Inactive)
REMARK    1  A    between atoms: C_1  and  C_2
REMARK    2  A    between atoms: C_2  and  C_3
REMARK    3  A    between atoms: C_3  and  C_4
REMARK    4  A    between atoms: C_4  and  C_5
REMARK    5  A    between atoms: C_5  and  C_6
REMARK    6  A    between atoms: C_6  and  C_7
REMARK    7  A    between atoms: C_7  and  C_8
REMARK    8  A    between atoms: C_8  and  C_9
REMARK    9  A    between atoms: C_9  and  C_10
REMARK   10  A    between atoms: N_12  and  C_13
REMARK   11  A    between atoms: C_16  and  O_17
REMARK                            x       y       z     vdW  Elec       q    Type
REMARK                         _______ _______ _______ _____ _____    ______ ____
ROOT
ATOM      1  C   UNL     1       2.848   2.690  17.555  0.00  0.00    +0.000 C 
ATOM      2  O   UNL     1       2.187   3.382  16.787  0.00  0.00    +0.000 OA
ATOM      3  N   UNL     1       4.234   2.662  17.621  0.00  0.00    +0.000 N 
ATOM      4  H   UNL     1       4.649   1.890  18.124  0.00  0.00    +0.000 HD
ENDROOT
BRANCH   3   5
ATOM      5  C   UNL     1       5.099   3.484  16.839  0.00  0.00    +0.000 A 
ATOM      6  C   UNL     1       5.139   3.322  15.444  0.00  0.00    +0.000 A 
ATOM      7  C   UNL     1       6.027   4.034  14.652  0.00  0.00    +0.000 A 
ATOM      8  C   UNL     1       6.883   4.945  15.248  0.00  0.00    +0.000 A 
ATOM      9  C   UNL     1       6.845   5.191  16.633  0.00  0.00    +0.000 A 
ATOM     10  C   UNL     1       7.711   6.138  17.214  0.00  0.00    +0.000 A 
ATOM     11  C   UNL     1       7.695   6.401  18.581  0.00  0.00    +0.000 A 
ATOM     12  C   UNL     1       6.807   5.717  19.395  0.00  0.00    +0.000 A 
ATOM     13  C   UNL     1       5.942   4.765  18.844  0.00  0.00    +0.000 A 
ATOM     14  C   UNL     1       5.934   4.467  17.456  0.00  0.00    +0.000 A 
BRANCH   8  15
ATOM     15  O   UNL     1       7.779   5.621  14.460  0.00  0.00    +0.000 OA
ATOM     16  H   UNL     1       7.544   6.564  14.463  0.00  0.00    +0.000 HD
ENDBRANCH   8  15
ENDBRANCH   3   5
BRANCH   1  17
ATOM     17  C   UNL     1       2.166   1.733  18.522  0.00  0.00    +0.000 C 
BRANCH  17  18
ATOM     18  C   UNL     1       0.810   2.323  18.921  0.00  0.00    +0.000 C 
BRANCH  18  19
ATOM     19  C   UNL     1       0.779   2.916  20.323  0.00  0.00    +0.000 C 
BRANCH  19  20
ATOM     20  C   UNL     1       0.962   4.435  20.238  0.00  0.00    +0.000 C 
BRANCH  20  21
ATOM     21  C   UNL     1       2.227   4.888  20.960  0.00  0.00    +0.000 C 
BRANCH  21  22
ATOM     22  C   UNL     1       2.957   5.974  20.168  0.00  0.00    +0.000 C 
BRANCH  22  23
ATOM     23  C   UNL     1       2.376   6.097  18.759  0.00  0.00    +0.000 C 
BRANCH  23  25
ATOM     24  C   UNL     1       3.901   7.423  17.267  0.00  0.00    +0.000 C 
ATOM     25  C   UNL     1       2.665   7.467  18.150  0.00  0.00    +0.000 C 
ENDBRANCH  23  25
ENDBRANCH  22  23
ENDBRANCH  21  22
ENDBRANCH  20  21
ENDBRANCH  19  20
ENDBRANCH  18  19
ENDBRANCH  17  18
ENDBRANCH   1  17
TORSDOF 10
ENDMDL
MODEL 3
REMARK VINA RESULT:      -7.4      1.716      2.829
REMARK  Name = 
REMARK  11 active torsions:
REMARK  status: ('A' for Active; 'I' for Inactive)
REMARK    1  A    between atoms: C_1  and  C_2
REMARK    2  A    between atoms: C_2  and  C_3
REMARK    3  A    between atoms: C_3  and  C_4
REMARK    4  A    between atoms: C_4  and  C_5
REMARK    5  A    between atoms: C_5  and  C_6
REMARK    6  A    between atoms: C_6  and  C_7
REMARK    7  A    between atoms: C_7  and  C_8
REMARK    8  A    between atoms: C_8  and  C_9
REMARK    9  A    between atoms: C_9  and  C_10
REMARK   10  A    between atoms: N_12  and  C_13
REMARK   11  A    between atoms: C_16  and  O_17
REMARK                            x       y       z     vdW  Elec       q    Type
REMARK                         _______ _______ _______ _____ _____    ______ ____
ROOT
ATOM      1  C   UNL     1       5.462   4.429  16.409  0.00  0.00    +0.000 C 
ATOM      2  O   UNL     1       6.290   4.939  17.159  0.00  0.00    +0.000 OA
ATOM      3  N   UNL     1       4.086   4.467  16.586  0.00  0.00    +0.000 N 
ATOM      4  H   UNL     1       3.539   3.821  16.035  0.00  0.00    +0.000 HD
ENDROOT
BRANCH   3   5
ATOM      5  C   UNL     1       3.425   5.160  17.643  0.00  0.00    +0.000 A 
ATOM      6  C   UNL     1       3.486   6.563  17.701  0.00  0.00    +0.000 A 
ATOM      7  C   UNL     1       2.936   7.274  18.757  0.00  0.00    +0.000 A 
ATOM      8  C   UNL     1       2.289   6.588  19.771  0.00  0.00    +0.000 A 
ATOM      9  C   UNL     1       2.146   5.188  19.733  0.00  0.00    +0.000 A 
ATOM     10  C   UNL     1       1.465   4.512  20.766  0.00  0.00    +0.000 A 
ATOM     11  C   UNL     1       1.309   3.130  20.755  0.00  0.00    +0.000 A 
ATOM     12  C   UNL     1       1.834   2.393  19.705  0.00  0.00    +0.000 A 
ATOM     13  C   UNL     1       2.522   3.039  18.671  0.00  0.00    +0.000 A 
ATOM     14  C   UNL     1       2.704   4.447  18.652  0.00  0.00    +0.000 A 
BRANCH   8  15
ATOM     15  O   UNL     1       1.776   7.297  20.825  0.00  0.00    +0.000 OA
ATOM     16  H   UNL     1       1.100   6.755  21.264  0.00  0.00    +0.000 HD
ENDBRANCH   8  15
ENDBRANCH   3   5
BRANCH   1  17
ATOM     17  C   UNL     1       5.904   3.646  15.181  0.00  0.00    +0.000 C 
BRANCH  17  18
ATOM     18  C   UNL     1       6.560   4.613  14.192  0.00  0.00    +0.000 C 
BRANCH  18  19
ATOM     19  C   UNL     1       6.235   4.324  12.733  0.00  0.00    +0.000 C 
BRANCH  19  20
ATOM     20  C   UNL     1       6.267   2.811  12.492  0.00  0.00    +0.000 C 
BRANCH  20  21
ATOM     21  C   UNL     1       5.171   2.374  11.526  0.00  0.00    +0.000 C 
BRANCH  21  22
ATOM     22  C   UNL     1       4.224   3.532  11.204  0.00  0.00    +0.000 C 
BRANCH  22  23
ATOM     23  C   UNL     1       3.101   3.067  10.277  0.00  0.00    +0.000 C 
BRANCH  23  25
ATOM     24  C   UNL     1       2.194   5.130   9.167  0.00  0.00    +0.000 C 
ATOM     25  C   UNL     1       3.056   3.891   8.993  0.00  0.00    +0.000 C 
ENDBRANCH  23  25
ENDBRANCH  22  23
ENDBRANCH  21  22
ENDBRANCH  20  21
ENDBRANCH  19  20
ENDBRANCH  18  19
ENDBRANCH  17  18
ENDBRANCH   1  17
TORSDOF 10
ENDMDL
MODEL 4
REMARK VINA RESULT:      -7.3      2.272      6.887
REMARK  Name = 
REMARK  11 active torsions:
REMARK  status: ('A' for Active; 'I' for Inactive)
REMARK    1  A    between atoms: C_1  and  C_2
REMARK    2  A    between atoms: C_2  and  C_3
REMARK    3  A    between atoms: C_3  and  C_4
REMARK    4  A    between atoms: C_4  and  C_5
REMARK    5  A    between atoms: C_5  and  C_6
REMARK    6  A    between atoms: C_6  and  C_7
REMARK    7  A    between atoms: C_7  and  C_8
REMARK    8  A    between atoms: C_8  and  C_9
REMARK    9  A    between atoms: C_9  and  C_10
REMARK   10  A    between atoms: N_12  and  C_13
REMARK   11  A    between atoms: C_16  and  O_17
REMARK                            x       y       z     vdW  Elec       q    Type
REMARK                         _______ _______ _______ _____ _____    ______ ____
ROOT
ATOM      1  C   UNL     1       4.148   2.497  19.127  0.00  0.00    +0.000 C 
ATOM      2  O   UNL     1       5.042   2.427  19.965  0.00  0.00    +0.000 OA
ATOM      3  N   UNL     1       4.113   3.387  18.063  0.00  0.00    +0.000 N 
ATOM      4  H   UNL     1       3.225   3.498  17.593  0.00  0.00    +0.000 HD
ENDROOT
BRANCH   3   5
ATOM      5  C   UNL     1       5.147   4.319  17.751  0.00  0.00    +0.000 A 
ATOM      6  C   UNL     1       5.622   5.190  18.746  0.00  0.00    +0.000 A 
ATOM      7  C   UNL     1       6.561   6.173  18.469  0.00  0.00    +0.000 A 
ATOM      8  C   UNL     1       7.062   6.284  17.183  0.00  0.00    +0.000 A 
ATOM      9  C   UNL     1       6.667   5.400  16.161  0.00  0.00    +0.000 A 
ATOM     10  C   UNL     1       7.207   5.520  14.865  0.00  0.00    +0.000 A 
ATOM     11  C   UNL     1       6.834   4.659  13.837  0.00  0.00    +0.000 A 
ATOM     12  C   UNL     1       5.910   3.658  14.088  0.00  0.00    +0.000 A 
ATOM     13  C   UNL     1       5.352   3.523  15.364  0.00  0.00    +0.000 A 
ATOM     14  C   UNL     1       5.705   4.385  16.436  0.00  0.00    +0.000 A 
BRANCH   8  15
ATOM     15  O   UNL     1       7.967   7.278  16.912  0.00  0.00    +0.000 OA
ATOM     16  H   UNL     1       7.524   7.967  16.390  0.00  0.00    +0.000 HD
ENDBRANCH   8  15
ENDBRANCH   3   5
BRANCH   1  17
ATOM     17  C   UNL     1       2.929   1.591  19.213  0.00  0.00    +0.000 C 
BRANCH  17  18
ATOM     18  C   UNL     1       1.671   2.440  19.015  0.00  0.00    +0.000 C 
BRANCH  18  19
ATOM     19  C   UNL     1       1.064   2.962  20.310  0.00  0.00    +0.000 C 
BRANCH  19  20
ATOM     20  C   UNL     1       0.904   4.483  20.222  0.00  0.00    +0.000 C 
BRANCH  20  21
ATOM     21  C   UNL     1       2.191   5.206  20.604  0.00  0.00    +0.000 C 
BRANCH  21  22
ATOM     22  C   UNL     1       2.279   6.574  19.926  0.00  0.00    +0.000 C 
BRANCH  22  23
ATOM     23  C   UNL     1       2.297   6.423  18.405  0.00  0.00    +0.000 C 
BRANCH  23  25
ATOM     24  C   UNL     1       2.185   8.883  17.908  0.00  0.00    +0.000 C 
ATOM     25  C   UNL     1       2.989   7.604  17.731  0.00  0.00    +0.000 C 
ENDBRANCH  23  25
ENDBRANCH  22  23
ENDBRANCH  21  22
ENDBRANCH  20  21
ENDBRANCH  19  20
ENDBRANCH  18  19
ENDBRANCH  17  18
ENDBRANCH   1  17
TORSDOF 10
ENDMDL
MODEL 5
REMARK VINA RESULT:      -7.2      2.762      7.567
REMARK  Name = 
REMARK  11 active torsions:
REMARK  status: ('A' for Active; 'I' for Inactive)
REMARK    1  A    between atoms: C_1  and  C_2
REMARK    2  A    between atoms: C_2  and  C_3
REMARK    3  A    between atoms: C_3  and  C_4
REMARK    4  A    between atoms: C_4  and  C_5
REMARK    5  A    between atoms: C_5  and  C_6
REMARK    6  A    between atoms: C_6  and  C_7
REMARK    7  A    between atoms: C_7  and  C_8
REMARK    8  A    between atoms: C_8  and  C_9
REMARK    9  A    between atoms: C_9  and  C_10
REMARK   10  A    between atoms: N_12  and  C_13
REMARK   11  A    between atoms: C_16  and  O_17
REMARK                            x       y       z     vdW  Elec       q    Type
REMARK                         _______ _______ _______ _____ _____    ______ ____
ROOT
ATOM      1  C   UNL     1       2.596   2.973  17.755  0.00  0.00    +0.000 C 
ATOM      2  O   UNL     1       1.970   3.685  16.975  0.00  0.00    +0.000 OA
ATOM      3  N   UNL     1       3.978   2.876  17.821  0.00  0.00    +0.000 N 
ATOM      4  H   UNL     1       4.355   2.093  18.336  0.00  0.00    +0.000 HD
ENDROOT
BRANCH   3   5
ATOM      5  C   UNL     1       4.883   3.640  17.026  0.00  0.00    +0.000 A 
ATOM      6  C   UNL     1       4.867   3.503  15.628  0.00  0.00    +0.000 A 
ATOM      7  C   UNL     1       5.786   4.156  14.819  0.00  0.00    +0.000 A 
ATOM      8  C   UNL     1       6.731   4.983  15.402  0.00  0.00    +0.000 A 
ATOM      9  C   UNL     1       6.755   5.205  16.792  0.00  0.00    +0.000 A 
ATOM     10  C   UNL     1       7.712   6.068  17.361  0.00  0.00    +0.000 A 
ATOM     11  C   UNL     1       7.759   6.305  18.731  0.00  0.00    +0.000 A 
ATOM     12  C   UNL     1       6.844   5.679  19.562  0.00  0.00    +0.000 A 
ATOM     13  C   UNL     1       5.888   4.811  19.024  0.00  0.00    +0.000 A 
ATOM     14  C   UNL     1       5.813   4.541  17.631  0.00  0.00    +0.000 A 
BRANCH   8  15
ATOM     15  O   UNL     1       7.654   5.600  14.598  0.00  0.00    +0.000 OA
ATOM     16  H   UNL     1       8.424   5.016  14.505  0.00  0.00    +0.000 HD
ENDBRANCH   8  15
ENDBRANCH   3   5
BRANCH   1  17
ATOM     17  C   UNL     1       1.867   2.068  18.737  0.00  0.00    +0.000 C 
BRANCH  17  18
ATOM     18  C   UNL     1       1.850   2.746  20.110  0.00  0.00    +0.000 C 
BRANCH  18  19
ATOM     19  C   UNL     1       1.044   4.036  20.155  0.00  0.00    +0.000 C 
BRANCH  19  20
ATOM     20  C   UNL     1       1.895   5.148  20.779  0.00  0.00    +0.000 C 
BRANCH  20  21
ATOM     21  C   UNL     1       2.561   6.010  19.712  0.00  0.00    +0.000 C 
BRANCH  21  22
ATOM     22  C   UNL     1       2.081   7.460  19.793  0.00  0.00    +0.000 C 
BRANCH  22  23
ATOM     23  C   UNL     1       1.198   7.667  21.024  0.00  0.00    +0.000 C 
BRANCH  23  25
ATOM     24  C   UNL     1       0.495   9.338  22.763  0.00  0.00    +0.000 C 
ATOM     25  C   UNL     1       1.037   9.148  21.356  0.00  0.00    +0.000 C 
ENDBRANCH  23  25
ENDBRANCH  22  23
ENDBRANCH  21  22
ENDBRANCH  20  21
ENDBRANCH  19  20
ENDBRANCH  18  19
ENDBRANCH  17  18
ENDBRANCH   1  17
TORSDOF 10
ENDMDL
MODEL 6
REMARK VINA RESULT:      -7.2      0.996      1.530
REMARK  Name = 
REMARK  11 active torsions:
REMARK  status: ('A' for Active; 'I' for Inactive)
REMARK    1  A    between atoms: C_1  and  C_2
REMARK    2  A    between atoms: C_2  and  C_3
REMARK    3  A    between atoms: C_3  and  C_4
REMARK    4  A    between atoms: C_4  and  C_5
REMARK    5  A    between atoms: C_5  and  C_6
REMARK    6  A    between atoms: C_6  and  C_7
REMARK    7  A    between atoms: C_7  and  C_8
REMARK    8  A    between atoms: C_8  and  C_9
REMARK    9  A    between atoms: C_9  and  C_10
REMARK   10  A    between atoms: N_12  and  C_13
REMARK   11  A    between atoms: C_16  and  O_17
REMARK                            x       y       z     vdW  Elec       q    Type
REMARK                         _______ _______ _______ _____ _____    ______ ____
ROOT
ATOM      1  C   UNL     1       6.630   4.509  18.550  0.00  0.00    +0.000 C 
ATOM      2  O   UNL     1       6.937   5.122  19.568  0.00  0.00    +0.000 OA
ATOM      3  N   UNL     1       5.510   3.702  18.405  0.00  0.00    +0.000 N 
ATOM      4  H   UNL     1       5.499   3.080  17.610  0.00  0.00    +0.000 HD
ENDROOT
BRANCH   3   5
ATOM      5  C   UNL     1       4.513   3.513  19.408  0.00  0.00    +0.000 A 
ATOM      6  C   UNL     1       4.464   2.304  20.122  0.00  0.00    +0.000 A 
ATOM      7  C   UNL     1       3.459   2.039  21.041  0.00  0.00    +0.000 A 
ATOM      8  C   UNL     1       2.491   3.000  21.280  0.00  0.00    +0.000 A 
ATOM      9  C   UNL     1       2.525   4.252  20.637  0.00  0.00    +0.000 A 
ATOM     10  C   UNL     1       1.541   5.222  20.912  0.00  0.00    +0.000 A 
ATOM     11  C   UNL     1       1.550   6.468  20.291  0.00  0.00    +0.000 A 
ATOM     12  C   UNL     1       2.550   6.767  19.380  0.00  0.00    +0.000 A 
ATOM     13  C   UNL     1       3.535   5.818  19.084  0.00  0.00    +0.000 A 
ATOM     14  C   UNL     1       3.555   4.536  19.694  0.00  0.00    +0.000 A 
BRANCH   8  15
ATOM     15  O   UNL     1       1.485   2.716  22.167  0.00  0.00    +0.000 OA
ATOM     16  H   UNL     1       1.848   2.166  22.881  0.00  0.00    +0.000 HD
ENDBRANCH   8  15
ENDBRANCH   3   5
BRANCH   1  17
ATOM     17  C   UNL     1       7.516   4.560  17.315  0.00  0.00    +0.000 C 
BRANCH  17  18
ATOM     18  C   UNL     1       7.124   5.781  16.479  0.00  0.00    +0.000 C 
BRANCH  18  19
ATOM     19  C   UNL     1       6.012   5.515  15.475  0.00  0.00    +0.000 C 
BRANCH  19  20
ATOM     20  C   UNL     1       6.027   4.036  15.075  0.00  0.00    +0.000 C 
BRANCH  20  21
ATOM     21  C   UNL     1       6.267   3.862  13.579  0.00  0.00    +0.000 C 
BRANCH  21  22
ATOM     22  C   UNL     1       4.946   3.712  12.822  0.00  0.00    +0.000 C 
BRANCH  22  23
ATOM     23  C   UNL     1       5.159   2.951  11.513  0.00  0.00    +0.000 C 
BRANCH  23  25
ATOM     24  C   UNL     1       6.123   0.648  11.227  0.00  0.00    +0.000 C 
ATOM     25  C   UNL     1       6.426   2.101  11.557  0.00  0.00    +0.000 C 
ENDBRANCH  23  25
ENDBRANCH  22  23
ENDBRANCH  21  22
ENDBRANCH  20  21
ENDBRANCH  19  20
ENDBRANCH  18  19
ENDBRANCH  17  18
ENDBRANCH   1  17
TORSDOF 10
ENDMDL
MODEL 7
REMARK VINA RESULT:      -7.2      3.508      6.080
REMARK  Name = 
REMARK  11 active torsions:
REMARK  status: ('A' for Active; 'I' for Inactive)
REMARK    1  A    between atoms: C_1  and  C_2
REMARK    2  A    between atoms: C_2  and  C_3
REMARK    3  A    between atoms: C_3  and  C_4
REMARK    4  A    between atoms: C_4  and  C_5
REMARK    5  A    between atoms: C_5  and  C_6
REMARK    6  A    between atoms: C_6  and  C_7
REMARK    7  A    between atoms: C_7  and  C_8
REMARK    8  A    between atoms: C_8  and  C_9
REMARK    9  A    between atoms: C_9  and  C_10
REMARK   10  A    between atoms: N_12  and  C_13
REMARK   11  A    between atoms: C_16  and  O_17
REMARK                            x       y       z     vdW  Elec       q    Type
REMARK                         _______ _______ _______ _____ _____    ______ ____
ROOT
ATOM      1  C   UNL     1       1.781   4.727  20.625  0.00  0.00    +0.000 C 
ATOM      2  O   UNL     1       0.627   4.675  20.210  0.00  0.00    +0.000 OA
ATOM      3  N   UNL     1       2.682   5.751  20.368  0.00  0.00    +0.000 N 
ATOM      4  H   UNL     1       3.654   5.562  20.569  0.00  0.00    +0.000 HD
ENDROOT
BRANCH   3   5
ATOM      5  C   UNL     1       2.377   6.932  19.628  0.00  0.00    +0.000 A 
ATOM      6  C   UNL     1       2.820   7.055  18.301  0.00  0.00    +0.000 A 
ATOM      7  C   UNL     1       2.626   8.219  17.571  0.00  0.00    +0.000 A 
ATOM      8  C   UNL     1       1.958   9.280  18.157  0.00  0.00    +0.000 A 
ATOM      9  C   UNL     1       1.440   9.190  19.463  0.00  0.00    +0.000 A 
ATOM     10  C   UNL     1       0.744  10.276  20.031  0.00  0.00    +0.000 A 
ATOM     11  C   UNL     1       0.221  10.215  21.319  0.00  0.00    +0.000 A 
ATOM     12  C   UNL     1       0.386   9.060  22.066  0.00  0.00    +0.000 A 
ATOM     13  C   UNL     1       1.079   7.970  21.528  0.00  0.00    +0.000 A 
ATOM     14  C   UNL     1       1.630   7.998  20.220  0.00  0.00    +0.000 A 
BRANCH   8  15
ATOM     15  O   UNL     1       1.798  10.437  17.438  0.00  0.00    +0.000 OA
ATOM     16  H   UNL     1       0.848  10.609  17.336  0.00  0.00    +0.000 HD
ENDBRANCH   8  15
ENDBRANCH   3   5
BRANCH   1  17
ATOM     17  C   UNL     1       2.356   3.598  21.467  0.00  0.00    +0.000 C 
BRANCH  17  18
ATOM     18  C   UNL     1       3.091   2.622  20.544  0.00  0.00    +0.000 C 
BRANCH  18  19
ATOM     19  C   UNL     1       2.173   1.817  19.634  0.00  0.00    +0.000 C 
BRANCH  19  20
ATOM     20  C   UNL     1       2.469   2.168  18.172  0.00  0.00    +0.000 C 
BRANCH  20  21
ATOM     21  C   UNL     1       3.850   2.794  18.014  0.00  0.00    +0.000 C 
BRANCH  21  22
ATOM     22  C   UNL     1       3.814   3.975  17.042  0.00  0.00    +0.000 C 
BRANCH  22  23
ATOM     23  C   UNL     1       5.231   4.421  16.682  0.00  0.00    +0.000 C 
BRANCH  23  25
ATOM     24  C   UNL     1       7.551   4.629  17.623  0.00  0.00    +0.000 C 
ATOM     25  C   UNL     1       6.064   4.704  17.929  0.00  0.00    +0.000 C 
ENDBRANCH  23  25
ENDBRANCH  22  23
ENDBRANCH  21  22
ENDBRANCH  20  21
ENDBRANCH  19  20
ENDBRANCH  18  19
ENDBRANCH  17  18
ENDBRANCH   1  17
TORSDOF 10
ENDMDL
MODEL 8
REMARK VINA RESULT:      -7.2      1.613      2.813
REMARK  Name = 
REMARK  11 active torsions:
REMARK  status: ('A' for Active; 'I' for Inactive)
REMARK    1  A    between atoms: C_1  and  C_2
REMARK    2  A    between atoms: C_2  and  C_3
REMARK    3  A    between atoms: C_3  and  C_4
REMARK    4  A    between atoms: C_4  and  C_5
REMARK    5  A    between atoms: C_5  and  C_6
REMARK    6  A    between atoms: C_6  and  C_7
REMARK    7  A    between atoms: C_7  and  C_8
REMARK    8  A    between atoms: C_8  and  C_9
REMARK    9  A    between atoms: C_9  and  C_10
REMARK   10  A    between atoms: N_12  and  C_13
REMARK   11  A    between atoms: C_16  and  O_17
REMARK                            x       y       z     vdW  Elec       q    Type
REMARK                         _______ _______ _______ _____ _____    ______ ____
ROOT
ATOM      1  C   UNL     1       6.147   5.028  16.869  0.00  0.00    +0.000 C 
ATOM      2  O   UNL     1       6.562   4.562  17.927  0.00  0.00    +0.000 OA
ATOM      3  N   UNL     1       4.872   5.531  16.658  0.00  0.00    +0.000 N 
ATOM      4  H   UNL     1       4.590   5.664  15.697  0.00  0.00    +0.000 HD
ENDROOT
BRANCH   3   5
ATOM      5  C   UNL     1       3.865   5.635  17.663  0.00  0.00    +0.000 A 
ATOM      6  C   UNL     1       3.646   6.866  18.303  0.00  0.00    +0.000 A 
ATOM      7  C   UNL     1       2.743   6.995  19.348  0.00  0.00    +0.000 A 
ATOM      8  C   UNL     1       2.020   5.887  19.758  0.00  0.00    +0.000 A 
ATOM      9  C   UNL     1       2.156   4.643  19.113  0.00  0.00    +0.000 A 
ATOM     10  C   UNL     1       1.394   3.535  19.533  0.00  0.00    +0.000 A 
ATOM     11  C   UNL     1       1.508   2.294  18.914  0.00  0.00    +0.000 A 
ATOM     12  C   UNL     1       2.391   2.138  17.857  0.00  0.00    +0.000 A 
ATOM     13  C   UNL     1       3.165   3.221  17.426  0.00  0.00    +0.000 A 
ATOM     14  C   UNL     1       3.078   4.501  18.036  0.00  0.00    +0.000 A 
BRANCH   8  15
ATOM     15  O   UNL     1       1.152   6.018  20.811  0.00  0.00    +0.000 OA
ATOM     16  H   UNL     1       0.291   5.653  20.550  0.00  0.00    +0.000 HD
ENDBRANCH   8  15
ENDBRANCH   3   5
BRANCH   1  17
ATOM     17  C   UNL     1       7.035   5.060  15.634  0.00  0.00    +0.000 C 
BRANCH  17  18
ATOM     18  C   UNL     1       6.589   3.948  14.680  0.00  0.00    +0.000 C 
BRANCH  18  19
ATOM     19  C   UNL     1       6.101   4.448  13.328  0.00  0.00    +0.000 C 
BRANCH  19  20
ATOM     20  C   UNL     1       5.462   3.289  12.555  0.00  0.00    +0.000 C 
BRANCH  20  21
ATOM     21  C   UNL     1       4.593   3.792  11.408  0.00  0.00    +0.000 C 
BRANCH  21  22
ATOM     22  C   UNL     1       3.552   2.747  11.003  0.00  0.00    +0.000 C 
BRANCH  22  23
ATOM     23  C   UNL     1       2.802   3.191   9.747  0.00  0.00    +0.000 C 
BRANCH  23  25
ATOM     24  C   UNL     1       1.876   5.277   8.698  0.00  0.00    +0.000 C 
ATOM     25  C   UNL     1       3.057   4.662   9.432  0.00  0.00    +0.000 C 
ENDBRANCH  23  25
ENDBRANCH  22  23
ENDBRANCH  21  22
ENDBRANCH  20  21
ENDBRANCH  19  20
ENDBRANCH  18  19
ENDBRANCH  17  18
ENDBRANCH   1  17
TORSDOF 10
ENDMDL
MODEL 9
REMARK VINA RESULT:      -7.1      2.710      6.913
REMARK  Name = 
REMARK  11 active torsions:
REMARK  status: ('A' for Active; 'I' for Inactive)
REMARK    1  A    between atoms: C_1  and  C_2
REMARK    2  A    between atoms: C_2  and  C_3
REMARK    3  A    between atoms: C_3  and  C_4
REMARK    4  A    between atoms: C_4  and  C_5
REMARK    5  A    between atoms: C_5  and  C_6
REMARK    6  A    between atoms: C_6  and  C_7
REMARK    7  A    between atoms: C_7  and  C_8
REMARK    8  A    between atoms: C_8  and  C_9
REMARK    9  A    between atoms: C_9  and  C_10
REMARK   10  A    between atoms: N_12  and  C_13
REMARK   11  A    between atoms: C_16  and  O_17
REMARK                            x       y       z     vdW  Elec       q    Type
REMARK                         _______ _______ _______ _____ _____    ______ ____
ROOT
ATOM      1  C   UNL     1       2.938   2.565  17.838  0.00  0.00    +0.000 C 
ATOM      2  O   UNL     1       3.776   1.669  17.884  0.00  0.00    +0.000 OA
ATOM      3  N   UNL     1       3.139   3.827  17.297  0.00  0.00    +0.000 N 
ATOM      4  H   UNL     1       2.457   4.535  17.530  0.00  0.00    +0.000 HD
ENDROOT
BRANCH   3   5
ATOM      5  C   UNL     1       4.342   4.252  16.657  0.00  0.00    +0.000 A 
ATOM      6  C   UNL     1       4.462   4.145  15.261  0.00  0.00    +0.000 A 
ATOM      7  C   UNL     1       5.643   4.460  14.604  0.00  0.00    +0.000 A 
ATOM      8  C   UNL     1       6.725   4.913  15.339  0.00  0.00    +0.000 A 
ATOM      9  C   UNL     1       6.641   5.096  16.733  0.00  0.00    +0.000 A 
ATOM     10  C   UNL     1       7.749   5.579  17.457  0.00  0.00    +0.000 A 
ATOM     11  C   UNL     1       7.694   5.769  18.835  0.00  0.00    +0.000 A 
ATOM     12  C   UNL     1       6.523   5.478  19.516  0.00  0.00    +0.000 A 
ATOM     13  C   UNL     1       5.411   4.989  18.821  0.00  0.00    +0.000 A 
ATOM     14  C   UNL     1       5.432   4.779  17.417  0.00  0.00    +0.000 A 
BRANCH   8  15
ATOM     15  O   UNL     1       7.896   5.193  14.685  0.00  0.00    +0.000 OA
ATOM     16  H   UNL     1       8.414   4.375  14.614  0.00  0.00    +0.000 HD
ENDBRANCH   8  15
ENDBRANCH   3   5
BRANCH   1  17
ATOM     17  C   UNL     1       1.552   2.363  18.432  0.00  0.00    +0.000 C 
BRANCH  17  18
ATOM     18  C   UNL     1       1.680   2.267  19.955  0.00  0.00    +0.000 C 
BRANCH  18  19
ATOM     19  C   UNL     1       1.125   3.471  20.702  0.00  0.00    +0.000 C 
BRANCH  19  20
ATOM     20  C   UNL     1       1.417   4.746  19.904  0.00  0.00    +0.000 C 
BRANCH  20  21
ATOM     21  C   UNL     1       1.709   5.928  20.822  0.00  0.00    +0.000 C 
BRANCH  21  22
ATOM     22  C   UNL     1       1.968   7.203  20.018  0.00  0.00    +0.000 C 
BRANCH  22  23
ATOM     23  C   UNL     1       2.579   6.868  18.658  0.00  0.00    +0.000 C 
BRANCH  23  25
ATOM     24  C   UNL     1       1.688   9.182  18.256  0.00  0.00    +0.000 C 
ATOM     25  C   UNL     1       2.606   8.086  17.739  0.00  0.00    +0.000 C 
ENDBRANCH  23  25
ENDBRANCH  22  23
ENDBRANCH  21  22
ENDBRANCH  20  21
ENDBRANCH  19  20
ENDBRANCH  18  19
ENDBRANCH  17  18
ENDBRANCH   1  17
TORSDOF 10
ENDMDL
