MODEL 1
REMARK VINA RESULT:      -7.6      0.000      0.000
REMARK  Name = 
REMARK  8 active torsions:
REMARK  status: ('A' for Active; 'I' for Inactive)
REMARK    1  A    between atoms: C_1  and  C_2
REMARK    2  A    between atoms: C_2  and  C_3
REMARK    3  A    between atoms: C_3  and  C_4
REMARK    4  A    between atoms: C_4  and  C_17
REMARK    5  A    between atoms: N_5  and  N_6
REMARK    6  A    between atoms: N_6  and  C_7
REMARK    7  A    between atoms: C_7  and  N_9
REMARK    8  A    between atoms: N_9  and  C_10
REMARK                            x       y       z     vdW  Elec       q    Type
REMARK                         _______ _______ _______ _____ _____    ______ ____
ROOT
ATOM      1  N   UNL     1       4.951   3.830  17.819  0.00  0.00    +0.000 N 
ATOM      2  H   UNL     1       5.450   4.288  18.571  0.00  0.00    +0.000 HD
ENDROOT
BRANCH   1   4
ATOM      3  C   UNL     1       5.922   4.848  15.968  0.00  0.00    +0.000 C 
ATOM      4  N   UNL     1       5.478   3.788  16.576  0.00  0.00    +0.000 NA
BRANCH   3   5
ATOM      5  C   UNL     1       6.410   4.676  14.557  0.00  0.00    +0.000 A 
ATOM      6  C   UNL     1       5.780   3.763  13.712  0.00  0.00    +0.000 A 
ATOM      7  C   UNL     1       6.263   3.607  12.418  0.00  0.00    +0.000 A 
ATOM      8  C   UNL     1       7.356   4.362  12.008  0.00  0.00    +0.000 A 
ATOM      9  C   UNL     1       7.917   5.248  12.910  0.00  0.00    +0.000 A 
ATOM     10  N   UNL     1       7.469   5.429  14.175  0.00  0.00    +0.000 NA
ENDBRANCH   3   5
BRANCH   3  11
ATOM     11  C   UNL     1       6.050   6.232  16.600  0.00  0.00    +0.000 C 
BRANCH  11  13
ATOM     12  C   UNL     1       7.502   6.093  18.689  0.00  0.00    +0.000 C 
ATOM     13  C   UNL     1       7.413   6.514  17.232  0.00  0.00    +0.000 C 
ENDBRANCH  11  13
ENDBRANCH   3  11
ENDBRANCH   1   4
BRANCH   1  14
ATOM     14  C   UNL     1       3.762   3.162  18.110  0.00  0.00    +0.000 C 
ATOM     15  S   UNL     1       3.645   1.509  18.388  0.00  0.00    +0.000 S 
BRANCH  14  16
ATOM     16  N   UNL     1       2.679   4.028  18.028  0.00  0.00    +0.000 N 
ATOM     17  H   UNL     1       1.819   3.560  17.758  0.00  0.00    +0.000 HD
BRANCH  16  18
ATOM     18  C   UNL     1       2.507   5.248  18.724  0.00  0.00    +0.000 A 
ATOM     19  C   UNL     1       2.746   6.468  18.084  0.00  0.00    +0.000 A 
ATOM     20  C   UNL     1       2.452   7.676  18.721  0.00  0.00    +0.000 A 
ATOM     21  C   UNL     1       1.918   7.677  20.008  0.00  0.00    +0.000 A 
ATOM     22  C   UNL     1       1.689   6.469  20.665  0.00  0.00    +0.000 A 
ATOM     23  C   UNL     1       1.977   5.259  20.024  0.00  0.00    +0.000 A 
ATOM     24 BR   UNL     1       1.674   3.648  20.985  0.00  0.00    +0.000 Br
ENDBRANCH  16  18
ENDBRANCH  14  16
ENDBRANCH   1  14
TORSDOF 7
ENDMDL
MODEL 2
REMARK VINA RESULT:      -7.4      2.082      2.769
REMARK  Name = 
REMARK  8 active torsions:
REMARK  status: ('A' for Active; 'I' for Inactive)
REMARK    1  A    between atoms: C_1  and  C_2
REMARK    2  A    between atoms: C_2  and  C_3
REMARK    3  A    between atoms: C_3  and  C_4
REMARK    4  A    between atoms: C_4  and  C_17
REMARK    5  A    between atoms: N_5  and  N_6
REMARK    6  A    between atoms: N_6  and  C_7
REMARK    7  A    between atoms: C_7  and  N_9
REMARK    8  A    between atoms: N_9  and  C_10
REMARK                            x       y       z     vdW  Elec       q    Type
REMARK                         _______ _______ _______ _____ _____    ______ ____
ROOT
ATOM      1  N   UNL     1       4.481   5.722  17.681  0.00  0.00    +0.000 N 
ATOM      2  H   UNL     1       5.056   5.585  18.502  0.00  0.00    +0.000 HD
ENDROOT
BRANCH   1   4
ATOM      3  C   UNL     1       6.122   5.423  16.062  0.00  0.00    +0.000 C 
ATOM      4  N   UNL     1       4.898   5.279  16.475  0.00  0.00    +0.000 NA
BRANCH   3   5
ATOM      5  C   UNL     1       6.435   4.957  14.668  0.00  0.00    +0.000 A 
ATOM      6  C   UNL     1       5.612   4.016  14.050  0.00  0.00    +0.000 A 
ATOM      7  C   UNL     1       5.934   3.585  12.769  0.00  0.00    +0.000 A 
ATOM      8  C   UNL     1       7.063   4.103  12.145  0.00  0.00    +0.000 A 
ATOM      9  C   UNL     1       7.821   5.037  12.828  0.00  0.00    +0.000 A 
ATOM     10  N   UNL     1       7.533   5.482  14.074  0.00  0.00    +0.000 NA
ENDBRANCH   3   5
BRANCH   3  11
ATOM     11  C   UNL     1       7.275   5.962  16.907  0.00  0.00    +0.000 C 
BRANCH  11  13
ATOM     12  C   UNL     1       8.018   5.709  19.330  0.00  0.00    +0.000 C 
ATOM     13  C   UNL     1       7.747   5.013  18.008  0.00  0.00    +0.000 C 
ENDBRANCH  11  13
ENDBRANCH   3  11
ENDBRANCH   1   4
BRANCH   1  14
ATOM     14  C   UNL     1       3.214   6.285  17.832  0.00  0.00    +0.000 C 
ATOM     15  S   UNL     1       2.899   7.936  17.797  0.00  0.00    +0.000 S 
BRANCH  14  16
ATOM     16  N   UNL     1       2.273   5.307  18.126  0.00  0.00    +0.000 N 
ATOM     17  H   UNL     1       1.785   4.969  17.302  0.00  0.00    +0.000 HD
BRANCH  16  18
ATOM     18  C   UNL     1       2.281   4.417  19.226  0.00  0.00    +0.000 A 
ATOM     19  C   UNL     1       2.023   4.886  20.518  0.00  0.00    +0.000 A 
ATOM     20  C   UNL     1       1.899   3.996  21.588  0.00  0.00    +0.000 A 
ATOM     21  C   UNL     1       2.036   2.626  21.377  0.00  0.00    +0.000 A 
ATOM     22  C   UNL     1       2.311   2.144  20.098  0.00  0.00    +0.000 A 
ATOM     23  C   UNL     1       2.427   3.035  19.026  0.00  0.00    +0.000 A 
ATOM     24 BR   UNL     1       2.835   2.319  17.313  0.00  0.00    +0.000 Br
ENDBRANCH  16  18
ENDBRANCH  14  16
ENDBRANCH   1  14
TORSDOF 7
ENDMDL
MODEL 3
REMARK VINA RESULT:      -7.3      1.922      2.593
REMARK  Name = 
REMARK  8 active torsions:
REMARK  status: ('A' for Active; 'I' for Inactive)
REMARK    1  A    between atoms: C_1  and  C_2
REMARK    2  A    between atoms: C_2  and  C_3
REMARK    3  A    between atoms: C_3  and  C_4
REMARK    4  A    between atoms: C_4  and  C_17
REMARK    5  A    between atoms: N_5  and  N_6
REMARK    6  A    between atoms: N_6  and  C_7
REMARK    7  A    between atoms: C_7  and  N_9
REMARK    8  A    between atoms: N_9  and  C_10
REMARK                            x       y       z     vdW  Elec       q    Type
REMARK                         _______ _______ _______ _____ _____    ______ ____
ROOT
ATOM      1  N   UNL     1       4.358   4.921  17.480  0.00  0.00    +0.000 N 
ATOM      2  H   UNL     1       4.620   4.372  18.288  0.00  0.00    +0.000 HD
ENDROOT
BRANCH   1   4
ATOM      3  C   UNL     1       6.060   5.093  15.905  0.00  0.00    +0.000 C 
ATOM      4  N   UNL     1       4.893   4.651  16.269  0.00  0.00    +0.000 NA
BRANCH   3   5
ATOM      5  C   UNL     1       6.503   4.786  14.502  0.00  0.00    +0.000 A 
ATOM      6  C   UNL     1       5.831   3.815  13.760  0.00  0.00    +0.000 A 
ATOM      7  C   UNL     1       6.273   3.534  12.472  0.00  0.00    +0.000 A 
ATOM      8  C   UNL     1       7.367   4.226  11.966  0.00  0.00    +0.000 A 
ATOM      9  C   UNL     1       7.971   5.177  12.769  0.00  0.00    +0.000 A 
ATOM     10  N   UNL     1       7.564   5.480  14.025  0.00  0.00    +0.000 NA
ENDBRANCH   3   5
BRANCH   3  11
ATOM     11  C   UNL     1       7.038   5.835  16.813  0.00  0.00    +0.000 C 
BRANCH  11  13
ATOM     12  C   UNL     1       7.881   5.743  19.215  0.00  0.00    +0.000 C 
ATOM     13  C   UNL     1       7.642   4.978  17.925  0.00  0.00    +0.000 C 
ENDBRANCH  11  13
ENDBRANCH   3  11
ENDBRANCH   1   4
BRANCH   1  14
ATOM     14  C   UNL     1       3.368   5.894  17.618  0.00  0.00    +0.000 C 
ATOM     15  S   UNL     1       3.655   7.550  17.603  0.00  0.00    +0.000 S 
BRANCH  14  16
ATOM     16  N   UNL     1       2.137   5.307  17.882  0.00  0.00    +0.000 N 
ATOM     17  H   UNL     1       1.527   5.288  17.070  0.00  0.00    +0.000 HD
BRANCH  16  18
ATOM     18  C   UNL     1       1.846   4.341  18.874  0.00  0.00    +0.000 A 
ATOM     19  C   UNL     1       1.796   2.982  18.545  0.00  0.00    +0.000 A 
ATOM     20  C   UNL     1       1.641   2.014  19.541  0.00  0.00    +0.000 A 
ATOM     21  C   UNL     1       1.530   2.396  20.876  0.00  0.00    +0.000 A 
ATOM     22  C   UNL     1       1.562   3.747  21.218  0.00  0.00    +0.000 A 
ATOM     23  C   UNL     1       1.724   4.716  20.221  0.00  0.00    +0.000 A 
ATOM     24 BR   UNL     1       1.726   6.542  20.747  0.00  0.00    +0.000 Br
ENDBRANCH  16  18
ENDBRANCH  14  16
ENDBRANCH   1  14
TORSDOF 7
ENDMDL
MODEL 4
REMARK VINA RESULT:      -7.2      2.953      6.498
REMARK  Name = 
REMARK  8 active torsions:
REMARK  status: ('A' for Active; 'I' for Inactive)
REMARK    1  A    between atoms: C_1  and  C_2
REMARK    2  A    between atoms: C_2  and  C_3
REMARK    3  A    between atoms: C_3  and  C_4
REMARK    4  A    between atoms: C_4  and  C_17
REMARK    5  A    between atoms: N_5  and  N_6
REMARK    6  A    between atoms: N_6  and  C_7
REMARK    7  A    between atoms: C_7  and  N_9
REMARK    8  A    between atoms: N_9  and  C_10
REMARK                            x       y       z     vdW  Elec       q    Type
REMARK                         _______ _______ _______ _____ _____    ______ ____
ROOT
ATOM      1  N   UNL     1       4.158   4.406  19.601  0.00  0.00    +0.000 N 
ATOM      2  H   UNL     1       4.308   4.088  20.550  0.00  0.00    +0.000 HD
ENDROOT
BRANCH   1   4
ATOM      3  C   UNL     1       2.557   6.074  19.849  0.00  0.00    +0.000 C 
ATOM      4  N   UNL     1       3.687   5.650  19.365  0.00  0.00    +0.000 NA
BRANCH   3   5
ATOM      5  C   UNL     1       2.111   7.451  19.445  0.00  0.00    +0.000 A 
ATOM      6  C   UNL     1       1.419   8.251  20.353  0.00  0.00    +0.000 A 
ATOM      7  C   UNL     1       1.000   9.512  19.949  0.00  0.00    +0.000 A 
ATOM      8  C   UNL     1       1.281   9.936  18.655  0.00  0.00    +0.000 A 
ATOM      9  C   UNL     1       1.977   9.080  17.821  0.00  0.00    +0.000 A 
ATOM     10  N   UNL     1       2.405   7.849  18.183  0.00  0.00    +0.000 NA
ENDBRANCH   3   5
BRANCH   3  11
ATOM     11  C   UNL     1       1.689   5.310  20.847  0.00  0.00    +0.000 C 
BRANCH  11  13
ATOM     12  C   UNL     1       1.252   2.810  21.065  0.00  0.00    +0.000 C 
ATOM     13  C   UNL     1       0.997   4.077  20.267  0.00  0.00    +0.000 C 
ENDBRANCH  11  13
ENDBRANCH   3  11
ENDBRANCH   1   4
BRANCH   1  14
ATOM     14  C   UNL     1       4.536   3.577  18.545  0.00  0.00    +0.000 C 
ATOM     15  S   UNL     1       3.571   2.362  17.899  0.00  0.00    +0.000 S 
BRANCH  14  16
ATOM     16  N   UNL     1       5.854   3.819  18.179  0.00  0.00    +0.000 N 
ATOM     17  H   UNL     1       6.204   3.150  17.500  0.00  0.00    +0.000 HD
BRANCH  16  18
ATOM     18  C   UNL     1       6.534   5.060  18.204  0.00  0.00    +0.000 A 
ATOM     19  C   UNL     1       7.396   5.374  19.260  0.00  0.00    +0.000 A 
ATOM     20  C   UNL     1       8.169   6.537  19.226  0.00  0.00    +0.000 A 
ATOM     21  C   UNL     1       8.085   7.401  18.137  0.00  0.00    +0.000 A 
ATOM     22  C   UNL     1       7.218   7.111  17.085  0.00  0.00    +0.000 A 
ATOM     23  C   UNL     1       6.449   5.943  17.116  0.00  0.00    +0.000 A 
ATOM     24 BR   UNL     1       5.262   5.619  15.667  0.00  0.00    +0.000 Br
ENDBRANCH  16  18
ENDBRANCH  14  16
ENDBRANCH   1  14
TORSDOF 7
ENDMDL
MODEL 5
REMARK VINA RESULT:      -7.1      2.354      6.806
REMARK  Name = 
REMARK  8 active torsions:
REMARK  status: ('A' for Active; 'I' for Inactive)
REMARK    1  A    between atoms: C_1  and  C_2
REMARK    2  A    between atoms: C_2  and  C_3
REMARK    3  A    between atoms: C_3  and  C_4
REMARK    4  A    between atoms: C_4  and  C_17
REMARK    5  A    between atoms: N_5  and  N_6
REMARK    6  A    between atoms: N_6  and  C_7
REMARK    7  A    between atoms: C_7  and  N_9
REMARK    8  A    between atoms: N_9  and  C_10
REMARK                            x       y       z     vdW  Elec       q    Type
REMARK                         _______ _______ _______ _____ _____    ______ ____
ROOT
ATOM      1  N   UNL     1       4.031   4.627  19.181  0.00  0.00    +0.000 N 
ATOM      2  H   UNL     1       4.477   4.353  20.047  0.00  0.00    +0.000 HD
ENDROOT
BRANCH   1   4
ATOM      3  C   UNL     1       2.509   6.300  19.717  0.00  0.00    +0.000 C 
ATOM      4  N   UNL     1       3.530   5.873  19.036  0.00  0.00    +0.000 NA
BRANCH   3   5
ATOM      5  C   UNL     1       2.003   7.680  19.402  0.00  0.00    +0.000 A 
ATOM      6  C   UNL     1       2.204   8.219  18.132  0.00  0.00    +0.000 A 
ATOM      7  C   UNL     1       1.745   9.505  17.871  0.00  0.00    +0.000 A 
ATOM      8  C   UNL     1       1.103  10.211  18.881  0.00  0.00    +0.000 A 
ATOM      9  C   UNL     1       0.941   9.598  20.111  0.00  0.00    +0.000 A 
ATOM     10  N   UNL     1       1.370   8.346  20.397  0.00  0.00    +0.000 NA
ENDBRANCH   3   5
BRANCH   3  11
ATOM     11  C   UNL     1       1.832   5.538  20.855  0.00  0.00    +0.000 C 
BRANCH  11  13
ATOM     12  C   UNL     1       1.289   3.055  21.021  0.00  0.00    +0.000 C 
ATOM     13  C   UNL     1       0.930   4.392  20.398  0.00  0.00    +0.000 C 
ENDBRANCH  11  13
ENDBRANCH   3  11
ENDBRANCH   1   4
BRANCH   1  14
ATOM     14  C   UNL     1       4.030   3.731  18.112  0.00  0.00    +0.000 C 
ATOM     15  S   UNL     1       2.654   2.984  17.502  0.00  0.00    +0.000 S 
BRANCH  14  16
ATOM     16  N   UNL     1       5.327   3.458  17.698  0.00  0.00    +0.000 N 
ATOM     17  H   UNL     1       5.680   2.577  18.059  0.00  0.00    +0.000 HD
BRANCH  16  18
ATOM     18  C   UNL     1       5.965   3.924  16.524  0.00  0.00    +0.000 A 
ATOM     19  C   UNL     1       5.606   3.411  15.273  0.00  0.00    +0.000 A 
ATOM     20  C   UNL     1       6.135   3.959  14.101  0.00  0.00    +0.000 A 
ATOM     21  C   UNL     1       7.031   5.023  14.168  0.00  0.00    +0.000 A 
ATOM     22  C   UNL     1       7.410   5.535  15.408  0.00  0.00    +0.000 A 
ATOM     23  C   UNL     1       6.875   4.991  16.581  0.00  0.00    +0.000 A 
ATOM     24 BR   UNL     1       7.457   5.710  18.242  0.00  0.00    +0.000 Br
ENDBRANCH  16  18
ENDBRANCH  14  16
ENDBRANCH   1  14
TORSDOF 7
ENDMDL
MODEL 6
REMARK VINA RESULT:      -7.0      2.498      3.928
REMARK  Name = 
REMARK  8 active torsions:
REMARK  status: ('A' for Active; 'I' for Inactive)
REMARK    1  A    between atoms: C_1  and  C_2
REMARK    2  A    between atoms: C_2  and  C_3
REMARK    3  A    between atoms: C_3  and  C_4
REMARK    4  A    between atoms: C_4  and  C_17
REMARK    5  A    between atoms: N_5  and  N_6
REMARK    6  A    between atoms: N_6  and  C_7
REMARK    7  A    between atoms: C_7  and  N_9
REMARK    8  A    between atoms: N_9  and  C_10
REMARK                            x       y       z     vdW  Elec       q    Type
REMARK                         _______ _______ _______ _____ _____    ______ ____
ROOT
ATOM      1  N   UNL     1       3.435   5.102  20.557  0.00  0.00    +0.000 N 
ATOM      2  H   UNL     1       3.882   4.749  21.394  0.00  0.00    +0.000 HD
ENDROOT
BRANCH   1   4
ATOM      3  C   UNL     1       4.598   4.115  18.803  0.00  0.00    +0.000 C 
ATOM      4  N   UNL     1       4.118   5.168  19.394  0.00  0.00    +0.000 NA
BRANCH   3   5
ATOM      5  C   UNL     1       5.407   4.336  17.556  0.00  0.00    +0.000 A 
ATOM      6  C   UNL     1       4.764   4.469  16.327  0.00  0.00    +0.000 A 
ATOM      7  C   UNL     1       5.535   4.653  15.185  0.00  0.00    +0.000 A 
ATOM      8  C   UNL     1       6.919   4.697  15.304  0.00  0.00    +0.000 A 
ATOM      9  C   UNL     1       7.475   4.561  16.564  0.00  0.00    +0.000 A 
ATOM     10  N   UNL     1       6.754   4.387  17.696  0.00  0.00    +0.000 NA
ENDBRANCH   3   5
BRANCH   3  11
ATOM     11  C   UNL     1       4.343   2.673  19.238  0.00  0.00    +0.000 C 
BRANCH  11  13
ATOM     12  C   UNL     1       2.256   2.230  17.847  0.00  0.00    +0.000 C 
ATOM     13  C   UNL     1       3.676   1.802  18.175  0.00  0.00    +0.000 C 
ENDBRANCH  11  13
ENDBRANCH   3  11
ENDBRANCH   1   4
BRANCH   1  14
ATOM     14  C   UNL     1       2.079   5.425  20.604  0.00  0.00    +0.000 C 
ATOM     15  S   UNL     1       0.837   4.371  20.190  0.00  0.00    +0.000 S 
BRANCH  14  16
ATOM     16  N   UNL     1       1.904   6.764  20.931  0.00  0.00    +0.000 N 
ATOM     17  H   UNL     1       2.294   7.003  21.837  0.00  0.00    +0.000 HD
BRANCH  16  18
ATOM     18  C   UNL     1       1.757   7.849  20.035  0.00  0.00    +0.000 A 
ATOM     19  C   UNL     1       2.222   7.749  18.720  0.00  0.00    +0.000 A 
ATOM     20  C   UNL     1       1.963   8.763  17.794  0.00  0.00    +0.000 A 
ATOM     21  C   UNL     1       1.239   9.890  18.175  0.00  0.00    +0.000 A 
ATOM     22  C   UNL     1       0.783  10.012  19.487  0.00  0.00    +0.000 A 
ATOM     23  C   UNL     1       1.036   8.993  20.412  0.00  0.00    +0.000 A 
ATOM     24 BR   UNL     1       0.416   9.233  22.192  0.00  0.00    +0.000 Br
ENDBRANCH  16  18
ENDBRANCH  14  16
ENDBRANCH   1  14
TORSDOF 7
ENDMDL
MODEL 7
REMARK VINA RESULT:      -7.0      2.990      6.486
REMARK  Name = 
REMARK  8 active torsions:
REMARK  status: ('A' for Active; 'I' for Inactive)
REMARK    1  A    between atoms: C_1  and  C_2
REMARK    2  A    between atoms: C_2  and  C_3
REMARK    3  A    between atoms: C_3  and  C_4
REMARK    4  A    between atoms: C_4  and  C_17
REMARK    5  A    between atoms: N_5  and  N_6
REMARK    6  A    between atoms: N_6  and  C_7
REMARK    7  A    between atoms: C_7  and  N_9
REMARK    8  A    between atoms: N_9  and  C_10
REMARK                            x       y       z     vdW  Elec       q    Type
REMARK                         _______ _______ _______ _____ _____    ______ ____
ROOT
ATOM      1  N   UNL     1       4.516   4.440  19.698  0.00  0.00    +0.000 N 
ATOM      2  H   UNL     1       4.752   4.072  20.610  0.00  0.00    +0.000 HD
ENDROOT
BRANCH   1   4
ATOM      3  C   UNL     1       2.657   5.831  19.572  0.00  0.00    +0.000 C 
ATOM      4  N   UNL     1       3.946   5.659  19.580  0.00  0.00    +0.000 NA
BRANCH   3   5
ATOM      5  C   UNL     1       2.153   7.230  19.354  0.00  0.00    +0.000 A 
ATOM      6  C   UNL     1       2.327   7.845  18.115  0.00  0.00    +0.000 A 
ATOM      7  C   UNL     1       1.870   9.147  17.945  0.00  0.00    +0.000 A 
ATOM      8  C   UNL     1       1.258   9.793  19.012  0.00  0.00    +0.000 A 
ATOM      9  C   UNL     1       1.121   9.106  20.205  0.00  0.00    +0.000 A 
ATOM     10  N   UNL     1       1.549   7.837  20.404  0.00  0.00    +0.000 NA
ENDBRANCH   3   5
BRANCH   3  11
ATOM     11  C   UNL     1       1.625   4.736  19.836  0.00  0.00    +0.000 C 
BRANCH  11  13
ATOM     12  C   UNL     1       1.667   2.624  21.258  0.00  0.00    +0.000 C 
ATOM     13  C   UNL     1       1.681   4.142  21.242  0.00  0.00    +0.000 C 
ENDBRANCH  11  13
ENDBRANCH   3  11
ENDBRANCH   1   4
BRANCH   1  14
ATOM     14  C   UNL     1       4.876   3.711  18.564  0.00  0.00    +0.000 C 
ATOM     15  S   UNL     1       3.938   2.498  17.878  0.00  0.00    +0.000 S 
BRANCH  14  16
ATOM     16  N   UNL     1       6.159   4.048  18.152  0.00  0.00    +0.000 N 
ATOM     17  H   UNL     1       6.536   3.401  17.465  0.00  0.00    +0.000 HD
BRANCH  16  18
ATOM     18  C   UNL     1       6.744   5.337  18.146  0.00  0.00    +0.000 A 
ATOM     19  C   UNL     1       7.662   5.702  19.136  0.00  0.00    +0.000 A 
ATOM     20  C   UNL     1       8.341   6.921  19.063  0.00  0.00    +0.000 A 
ATOM     21  C   UNL     1       8.106   7.790  18.000  0.00  0.00    +0.000 A 
ATOM     22  C   UNL     1       7.181   7.447  17.014  0.00  0.00    +0.000 A 
ATOM     23  C   UNL     1       6.507   6.223  17.084  0.00  0.00    +0.000 A 
ATOM     24 BR   UNL     1       5.235   5.829  15.728  0.00  0.00    +0.000 Br
ENDBRANCH  16  18
ENDBRANCH  14  16
ENDBRANCH   1  14
TORSDOF 7
ENDMDL
MODEL 8
REMARK VINA RESULT:      -6.8      2.074      3.080
REMARK  Name = 
REMARK  8 active torsions:
REMARK  status: ('A' for Active; 'I' for Inactive)
REMARK    1  A    between atoms: C_1  and  C_2
REMARK    2  A    between atoms: C_2  and  C_3
REMARK    3  A    between atoms: C_3  and  C_4
REMARK    4  A    between atoms: C_4  and  C_17
REMARK    5  A    between atoms: N_5  and  N_6
REMARK    6  A    between atoms: N_6  and  C_7
REMARK    7  A    between atoms: C_7  and  N_9
REMARK    8  A    between atoms: N_9  and  C_10
REMARK                            x       y       z     vdW  Elec       q    Type
REMARK                         _______ _______ _______ _____ _____    ______ ____
ROOT
ATOM      1  N   UNL     1       4.781   7.060  17.125  0.00  0.00    +0.000 N 
ATOM      2  H   UNL     1       5.426   7.802  17.364  0.00  0.00    +0.000 HD
ENDROOT
BRANCH   1   4
ATOM      3  C   UNL     1       6.177   5.776  15.781  0.00  0.00    +0.000 C 
ATOM      4  N   UNL     1       5.008   6.279  16.047  0.00  0.00    +0.000 NA
BRANCH   3   5
ATOM      5  C   UNL     1       6.312   4.990  14.507  0.00  0.00    +0.000 A 
ATOM      6  C   UNL     1       7.435   5.164  13.700  0.00  0.00    +0.000 A 
ATOM      7  C   UNL     1       7.527   4.441  12.516  0.00  0.00    +0.000 A 
ATOM      8  C   UNL     1       6.499   3.570  12.175  0.00  0.00    +0.000 A 
ATOM      9  C   UNL     1       5.423   3.454  13.036  0.00  0.00    +0.000 A 
ATOM     10  N   UNL     1       5.304   4.139  14.198  0.00  0.00    +0.000 NA
ENDBRANCH   3   5
BRANCH   3  11
ATOM     11  C   UNL     1       7.398   5.864  16.694  0.00  0.00    +0.000 C 
BRANCH  11  13
ATOM     12  C   UNL     1       7.654   5.622  19.217  0.00  0.00    +0.000 C 
ATOM     13  C   UNL     1       7.352   4.927  17.901  0.00  0.00    +0.000 C 
ENDBRANCH  11  13
ENDBRANCH   3  11
ENDBRANCH   1   4
BRANCH   1  14
ATOM     14  C   UNL     1       3.711   6.798  17.980  0.00  0.00    +0.000 C 
ATOM     15  S   UNL     1       2.344   7.766  18.114  0.00  0.00    +0.000 S 
BRANCH  14  16
ATOM     16  N   UNL     1       3.980   5.695  18.780  0.00  0.00    +0.000 N 
ATOM     17  H   UNL     1       4.309   5.950  19.706  0.00  0.00    +0.000 HD
BRANCH  16  18
ATOM     18  C   UNL     1       3.401   4.407  18.682  0.00  0.00    +0.000 A 
ATOM     19  C   UNL     1       3.896   3.477  17.762  0.00  0.00    +0.000 A 
ATOM     20  C   UNL     1       3.419   2.164  17.750  0.00  0.00    +0.000 A 
ATOM     21  C   UNL     1       2.439   1.767  18.657  0.00  0.00    +0.000 A 
ATOM     22  C   UNL     1       1.924   2.687  19.570  0.00  0.00    +0.000 A 
ATOM     23  C   UNL     1       2.407   4.000  19.586  0.00  0.00    +0.000 A 
ATOM     24 BR   UNL     1       1.642   5.215  20.831  0.00  0.00    +0.000 Br
ENDBRANCH  16  18
ENDBRANCH  14  16
ENDBRANCH   1  14
TORSDOF 7
ENDMDL
MODEL 9
REMARK VINA RESULT:      -6.8      2.752      6.262
REMARK  Name = 
REMARK  8 active torsions:
REMARK  status: ('A' for Active; 'I' for Inactive)
REMARK    1  A    between atoms: C_1  and  C_2
REMARK    2  A    between atoms: C_2  and  C_3
REMARK    3  A    between atoms: C_3  and  C_4
REMARK    4  A    between atoms: C_4  and  C_17
REMARK    5  A    between atoms: N_5  and  N_6
REMARK    6  A    between atoms: N_6  and  C_7
REMARK    7  A    between atoms: C_7  and  N_9
REMARK    8  A    between atoms: N_9  and  C_10
REMARK                            x       y       z     vdW  Elec       q    Type
REMARK                         _______ _______ _______ _____ _____    ______ ____
ROOT
ATOM      1  N   UNL     1       2.488   3.461  17.782  0.00  0.00    +0.000 N 
ATOM      2  H   UNL     1       1.662   2.888  17.666  0.00  0.00    +0.000 HD
ENDROOT
BRANCH   1   4
ATOM      3  C   UNL     1       2.261   5.411  19.027  0.00  0.00    +0.000 C 
ATOM      4  N   UNL     1       2.378   4.803  17.884  0.00  0.00    +0.000 NA
BRANCH   3   5
ATOM      5  C   UNL     1       2.067   6.901  18.995  0.00  0.00    +0.000 A 
ATOM      6  C   UNL     1       2.374   7.615  17.837  0.00  0.00    +0.000 A 
ATOM      7  C   UNL     1       2.207   8.995  17.839  0.00  0.00    +0.000 A 
ATOM      8  C   UNL     1       1.741   9.618  18.991  0.00  0.00    +0.000 A 
ATOM      9  C   UNL     1       1.455   8.832  20.093  0.00  0.00    +0.000 A 
ATOM     10  N   UNL     1       1.602   7.487  20.124  0.00  0.00    +0.000 NA
ENDBRANCH   3   5
BRANCH   3  11
ATOM     11  C   UNL     1       2.375   4.738  20.393  0.00  0.00    +0.000 C 
BRANCH  11  13
ATOM     12  C   UNL     1       1.535   2.651  21.587  0.00  0.00    +0.000 C 
ATOM     13  C   UNL     1       1.169   3.882  20.777  0.00  0.00    +0.000 C 
ENDBRANCH  11  13
ENDBRANCH   3  11
ENDBRANCH   1   4
BRANCH   1  14
ATOM     14  C   UNL     1       3.725   2.835  17.931  0.00  0.00    +0.000 C 
ATOM     15  S   UNL     1       4.033   1.586  19.013  0.00  0.00    +0.000 S 
BRANCH  14  16
ATOM     16  N   UNL     1       4.688   3.458  17.147  0.00  0.00    +0.000 N 
ATOM     17  H   UNL     1       4.456   3.451  16.158  0.00  0.00    +0.000 HD
BRANCH  16  18
ATOM     18  C   UNL     1       5.588   4.474  17.547  0.00  0.00    +0.000 A 
ATOM     19  C   UNL     1       5.852   4.693  18.903  0.00  0.00    +0.000 A 
ATOM     20  C   UNL     1       6.835   5.602  19.299  0.00  0.00    +0.000 A 
ATOM     21  C   UNL     1       7.563   6.306  18.343  0.00  0.00    +0.000 A 
ATOM     22  C   UNL     1       7.300   6.111  16.987  0.00  0.00    +0.000 A 
ATOM     23  C   UNL     1       6.320   5.195  16.591  0.00  0.00    +0.000 A 
ATOM     24 BR   UNL     1       5.986   4.999  14.730  0.00  0.00    +0.000 Br
ENDBRANCH  16  18
ENDBRANCH  14  16
ENDBRANCH   1  14
TORSDOF 7
ENDMDL
