MODEL 1
REMARK VINA RESULT:      -5.9      0.000      0.000
REMARK  Name = 
REMARK  1 active torsions:
REMARK  status: ('A' for Active; 'I' for Inactive)
REMARK    1  A    between atoms: N_10  and  N_11
REMARK                            x       y       z     vdW  Elec       q    Type
REMARK                         _______ _______ _______ _____ _____    ______ ____
ROOT
ATOM      1  N   UNL     1       6.347   3.966  18.521  0.00  0.00    +0.000 N 
ATOM      2  C   UNL     1       5.080   3.960  18.980  0.00  0.00    +0.000 A 
ATOM      3  N   UNL     1       4.198   4.921  18.849  0.00  0.00    +0.000 NA
ATOM      4  C   UNL     1       3.079   4.473  19.516  0.00  0.00    +0.000 A 
ATOM      5  C   UNL     1       1.842   5.109  19.694  0.00  0.00    +0.000 A 
ATOM      6  C   UNL     1       0.857   4.468  20.457  0.00  0.00    +0.000 A 
ATOM      7  C   UNL     1       1.095   3.216  21.026  0.00  0.00    +0.000 A 
ATOM      8  C   UNL     1       2.313   2.553  20.840  0.00  0.00    +0.000 A 
ATOM      9  C   UNL     1       3.285   3.210  20.072  0.00  0.00    +0.000 A 
ATOM     10  N   UNL     1       4.557   2.885  19.676  0.00  0.00    +0.000 N 
ATOM     11  H   UNL     1       6.546   4.690  17.836  0.00  0.00    +0.000 HD
ATOM     12  H   UNL     1       6.770   3.074  18.278  0.00  0.00    +0.000 HD
ENDROOT
BRANCH  10  13
ATOM     13  N   UNL     1       5.240   1.653  19.960  0.00  0.00    +0.000 N 
ATOM     14  H   UNL     1       6.063   1.562  19.372  0.00  0.00    +0.000 HD
ATOM     15  H   UNL     1       4.642   0.870  19.703  0.00  0.00    +0.000 HD
ENDBRANCH  10  13
TORSDOF 1
ENDMDL
MODEL 2
REMARK VINA RESULT:      -5.7      0.546      2.307
REMARK  Name = 
REMARK  1 active torsions:
REMARK  status: ('A' for Active; 'I' for Inactive)
REMARK    1  A    between atoms: N_10  and  N_11
REMARK                            x       y       z     vdW  Elec       q    Type
REMARK                         _______ _______ _______ _____ _____    ______ ____
ROOT
ATOM      1  N   UNL     1       6.360   4.096  18.208  0.00  0.00    +0.000 N 
ATOM      2  C   UNL     1       5.190   3.963  18.862  0.00  0.00    +0.000 A 
ATOM      3  N   UNL     1       4.884   3.034  19.736  0.00  0.00    +0.000 NA
ATOM      4  C   UNL     1       3.578   3.288  20.086  0.00  0.00    +0.000 A 
ATOM      5  C   UNL     1       2.752   2.595  20.984  0.00  0.00    +0.000 A 
ATOM      6  C   UNL     1       1.427   3.017  21.147  0.00  0.00    +0.000 A 
ATOM      7  C   UNL     1       0.933   4.113  20.436  0.00  0.00    +0.000 A 
ATOM      8  C   UNL     1       1.746   4.834  19.555  0.00  0.00    +0.000 A 
ATOM      9  C   UNL     1       3.069   4.396  19.407  0.00  0.00    +0.000 A 
ATOM     10  N   UNL     1       4.135   4.837  18.664  0.00  0.00    +0.000 N 
ATOM     11  H   UNL     1       7.127   3.553  18.596  0.00  0.00    +0.000 HD
ATOM     12  H   UNL     1       6.646   5.032  17.931  0.00  0.00    +0.000 HD
ENDROOT
BRANCH  10  13
ATOM     13  N   UNL     1       4.145   5.989  17.807  0.00  0.00    +0.000 N 
ATOM     14  H   UNL     1       3.212   6.171  17.448  0.00  0.00    +0.000 HD
ATOM     15  H   UNL     1       4.711   5.790  16.983  0.00  0.00    +0.000 HD
ENDBRANCH  10  13
TORSDOF 1
ENDMDL
MODEL 3
REMARK VINA RESULT:      -5.6      1.152      2.536
REMARK  Name = 
REMARK  1 active torsions:
REMARK  status: ('A' for Active; 'I' for Inactive)
REMARK    1  A    between atoms: N_10  and  N_11
REMARK                            x       y       z     vdW  Elec       q    Type
REMARK                         _______ _______ _______ _____ _____    ______ ____
ROOT
ATOM      1  N   UNL     1       5.068   1.343  19.859  0.00  0.00    +0.000 N 
ATOM      2  C   UNL     1       4.361   2.485  19.958  0.00  0.00    +0.000 A 
ATOM      3  N   UNL     1       3.252   2.660  20.636  0.00  0.00    +0.000 NA
ATOM      4  C   UNL     1       2.889   3.966  20.396  0.00  0.00    +0.000 A 
ATOM      5  C   UNL     1       1.777   4.676  20.871  0.00  0.00    +0.000 A 
ATOM      6  C   UNL     1       1.590   5.999  20.450  0.00  0.00    +0.000 A 
ATOM      7  C   UNL     1       2.495   6.607  19.579  0.00  0.00    +0.000 A 
ATOM      8  C   UNL     1       3.625   5.925  19.112  0.00  0.00    +0.000 A 
ATOM      9  C   UNL     1       3.794   4.603  19.546  0.00  0.00    +0.000 A 
ATOM     10  N   UNL     1       4.751   3.647  19.317  0.00  0.00    +0.000 N 
ATOM     11  H   UNL     1       4.826   0.632  20.544  0.00  0.00    +0.000 HD
ATOM     12  H   UNL     1       6.073   1.415  19.713  0.00  0.00    +0.000 HD
ENDROOT
BRANCH  10  13
ATOM     13  N   UNL     1       5.937   3.815  18.525  0.00  0.00    +0.000 N 
ATOM     14  H   UNL     1       5.717   4.291  17.655  0.00  0.00    +0.000 HD
ATOM     15  H   UNL     1       6.287   2.900  18.246  0.00  0.00    +0.000 HD
ENDBRANCH  10  13
TORSDOF 1
ENDMDL
MODEL 4
REMARK VINA RESULT:      -5.5      2.711      4.030
REMARK  Name = 
REMARK  1 active torsions:
REMARK  status: ('A' for Active; 'I' for Inactive)
REMARK    1  A    between atoms: N_10  and  N_11
REMARK                            x       y       z     vdW  Elec       q    Type
REMARK                         _______ _______ _______ _____ _____    ______ ____
ROOT
ATOM      1  N   UNL     1       8.380   6.493  19.227  0.00  0.00    +0.000 N 
ATOM      2  C   UNL     1       7.262   5.817  18.898  0.00  0.00    +0.000 A 
ATOM      3  N   UNL     1       6.483   5.151  19.716  0.00  0.00    +0.000 NA
ATOM      4  C   UNL     1       5.509   4.601  18.914  0.00  0.00    +0.000 A 
ATOM      5  C   UNL     1       4.424   3.787  19.272  0.00  0.00    +0.000 A 
ATOM      6  C   UNL     1       3.580   3.304  18.264  0.00  0.00    +0.000 A 
ATOM      7  C   UNL     1       3.807   3.628  16.925  0.00  0.00    +0.000 A 
ATOM      8  C   UNL     1       4.869   4.459  16.548  0.00  0.00    +0.000 A 
ATOM      9  C   UNL     1       5.700   4.933  17.573  0.00  0.00    +0.000 A 
ATOM     10  N   UNL     1       6.802   5.749  17.595  0.00  0.00    +0.000 N 
ATOM     11  H   UNL     1       8.492   6.669  20.222  0.00  0.00    +0.000 HD
ATOM     12  H   UNL     1       8.636   7.296  18.658  0.00  0.00    +0.000 HD
ENDROOT
BRANCH  10  13
ATOM     13  N   UNL     1       7.395   6.397  16.458  0.00  0.00    +0.000 N 
ATOM     14  H   UNL     1       7.259   5.838  15.621  0.00  0.00    +0.000 HD
ATOM     15  H   UNL     1       8.404   6.443  16.585  0.00  0.00    +0.000 HD
ENDBRANCH  10  13
TORSDOF 1
ENDMDL
MODEL 5
REMARK VINA RESULT:      -5.5      1.054      1.295
REMARK  Name = 
REMARK  1 active torsions:
REMARK  status: ('A' for Active; 'I' for Inactive)
REMARK    1  A    between atoms: N_10  and  N_11
REMARK                            x       y       z     vdW  Elec       q    Type
REMARK                         _______ _______ _______ _____ _____    ______ ____
ROOT
ATOM      1  N   UNL     1       6.735   4.077  18.089  0.00  0.00    +0.000 N 
ATOM      2  C   UNL     1       5.545   4.449  18.600  0.00  0.00    +0.000 A 
ATOM      3  N   UNL     1       4.991   5.634  18.507  0.00  0.00    +0.000 NA
ATOM      4  C   UNL     1       3.816   5.537  19.218  0.00  0.00    +0.000 A 
ATOM      5  C   UNL     1       2.838   6.515  19.448  0.00  0.00    +0.000 A 
ATOM      6  C   UNL     1       1.735   6.193  20.249  0.00  0.00    +0.000 A 
ATOM      7  C   UNL     1       1.604   4.920  20.806  0.00  0.00    +0.000 A 
ATOM      8  C   UNL     1       2.555   3.921  20.569  0.00  0.00    +0.000 A 
ATOM      9  C   UNL     1       3.649   4.263  19.763  0.00  0.00    +0.000 A 
ATOM     10  N   UNL     1       4.747   3.573  19.315  0.00  0.00    +0.000 N 
ATOM     11  H   UNL     1       7.118   4.716  17.398  0.00  0.00    +0.000 HD
ATOM     12  H   UNL     1       6.857   3.102  17.828  0.00  0.00    +0.000 HD
ENDROOT
BRANCH  10  13
ATOM     13  N   UNL     1       5.034   2.189  19.569  0.00  0.00    +0.000 N 
ATOM     14  H   UNL     1       5.787   1.868  18.967  0.00  0.00    +0.000 HD
ATOM     15  H   UNL     1       4.227   1.625  19.307  0.00  0.00    +0.000 HD
ENDBRANCH  10  13
TORSDOF 1
ENDMDL
MODEL 6
REMARK VINA RESULT:      -5.5      1.841      3.259
REMARK  Name = 
REMARK  1 active torsions:
REMARK  status: ('A' for Active; 'I' for Inactive)
REMARK    1  A    between atoms: N_10  and  N_11
REMARK                            x       y       z     vdW  Elec       q    Type
REMARK                         _______ _______ _______ _____ _____    ______ ____
ROOT
ATOM      1  N   UNL     1       5.049   2.172  19.805  0.00  0.00    +0.000 N 
ATOM      2  C   UNL     1       4.567   3.377  19.444  0.00  0.00    +0.000 A 
ATOM      3  N   UNL     1       3.414   3.893  19.794  0.00  0.00    +0.000 NA
ATOM      4  C   UNL     1       3.353   5.106  19.146  0.00  0.00    +0.000 A 
ATOM      5  C   UNL     1       2.333   6.068  19.164  0.00  0.00    +0.000 A 
ATOM      6  C   UNL     1       2.476   7.220  18.380  0.00  0.00    +0.000 A 
ATOM      7  C   UNL     1       3.616   7.414  17.596  0.00  0.00    +0.000 A 
ATOM      8  C   UNL     1       4.657   6.479  17.583  0.00  0.00    +0.000 A 
ATOM      9  C   UNL     1       4.494   5.334  18.376  0.00  0.00    +0.000 A 
ATOM     10  N   UNL     1       5.275   4.234  18.620  0.00  0.00    +0.000 N 
ATOM     11  H   UNL     1       4.563   1.736  20.584  0.00  0.00    +0.000 HD
ATOM     12  H   UNL     1       6.059   2.062  19.867  0.00  0.00    +0.000 HD
ENDROOT
BRANCH  10  13
ATOM     13  N   UNL     1       6.588   3.997  18.089  0.00  0.00    +0.000 N 
ATOM     14  H   UNL     1       7.274   4.571  18.571  0.00  0.00    +0.000 HD
ATOM     15  H   UNL     1       6.620   4.307  17.119  0.00  0.00    +0.000 HD
ENDBRANCH  10  13
TORSDOF 1
ENDMDL
MODEL 7
REMARK VINA RESULT:      -5.5      2.157      2.581
REMARK  Name = 
REMARK  1 active torsions:
REMARK  status: ('A' for Active; 'I' for Inactive)
REMARK    1  A    between atoms: N_10  and  N_11
REMARK                            x       y       z     vdW  Elec       q    Type
REMARK                         _______ _______ _______ _____ _____    ______ ____
ROOT
ATOM      1  N   UNL     1       7.694   4.471  18.088  0.00  0.00    +0.000 N 
ATOM      2  C   UNL     1       6.362   4.588  18.249  0.00  0.00    +0.000 A 
ATOM      3  N   UNL     1       5.744   5.159  19.255  0.00  0.00    +0.000 NA
ATOM      4  C   UNL     1       4.403   4.988  18.994  0.00  0.00    +0.000 A 
ATOM      5  C   UNL     1       3.296   5.401  19.749  0.00  0.00    +0.000 A 
ATOM      6  C   UNL     1       2.011   5.071  19.300  0.00  0.00    +0.000 A 
ATOM      7  C   UNL     1       1.829   4.349  18.119  0.00  0.00    +0.000 A 
ATOM      8  C   UNL     1       2.919   3.949  17.337  0.00  0.00    +0.000 A 
ATOM      9  C   UNL     1       4.196   4.291  17.803  0.00  0.00    +0.000 A 
ATOM     10  N   UNL     1       5.464   4.086  17.323  0.00  0.00    +0.000 N 
ATOM     11  H   UNL     1       8.249   5.068  18.696  0.00  0.00    +0.000 HD
ATOM     12  H   UNL     1       8.059   4.436  17.139  0.00  0.00    +0.000 HD
ENDROOT
BRANCH  10  13
ATOM     13  N   UNL     1       5.804   3.437  16.088  0.00  0.00    +0.000 N 
ATOM     14  H   UNL     1       5.105   2.739  15.851  0.00  0.00    +0.000 HD
ATOM     15  H   UNL     1       6.670   2.915  16.209  0.00  0.00    +0.000 HD
ENDBRANCH  10  13
TORSDOF 1
ENDMDL
MODEL 8
REMARK VINA RESULT:      -5.5      1.383      1.383
REMARK  Name = 
REMARK  1 active torsions:
REMARK  status: ('A' for Active; 'I' for Inactive)
REMARK    1  A    between atoms: N_10  and  N_11
REMARK                            x       y       z     vdW  Elec       q    Type
REMARK                         _______ _______ _______ _____ _____    ______ ____
ROOT
ATOM      1  N   UNL     1       5.243   3.231  16.615  0.00  0.00    +0.000 N 
ATOM      2  C   UNL     1       4.274   3.428  17.529  0.00  0.00    +0.000 A 
ATOM      3  N   UNL     1       3.760   4.581  17.886  0.00  0.00    +0.000 NA
ATOM      4  C   UNL     1       2.848   4.276  18.871  0.00  0.00    +0.000 A 
ATOM      5  C   UNL     1       2.019   5.137  19.606  0.00  0.00    +0.000 A 
ATOM      6  C   UNL     1       1.195   4.596  20.600  0.00  0.00    +0.000 A 
ATOM      7  C   UNL     1       1.191   3.224  20.857  0.00  0.00    +0.000 A 
ATOM      8  C   UNL     1       1.991   2.344  20.120  0.00  0.00    +0.000 A 
ATOM      9  C   UNL     1       2.807   2.906  19.128  0.00  0.00    +0.000 A 
ATOM     10  N   UNL     1       3.695   2.381  18.224  0.00  0.00    +0.000 N 
ATOM     11  H   UNL     1       5.425   4.027  16.010  0.00  0.00    +0.000 HD
ATOM     12  H   UNL     1       5.247   2.348  16.108  0.00  0.00    +0.000 HD
ENDROOT
BRANCH  10  13
ATOM     13  N   UNL     1       3.996   0.987  18.049  0.00  0.00    +0.000 N 
ATOM     14  H   UNL     1       3.139   0.444  17.997  0.00  0.00    +0.000 HD
ATOM     15  H   UNL     1       4.478   0.640  18.877  0.00  0.00    +0.000 HD
ENDBRANCH  10  13
TORSDOF 1
ENDMDL
MODEL 9
REMARK VINA RESULT:      -5.5      2.302      3.808
REMARK  Name = 
REMARK  1 active torsions:
REMARK  status: ('A' for Active; 'I' for Inactive)
REMARK    1  A    between atoms: N_10  and  N_11
REMARK                            x       y       z     vdW  Elec       q    Type
REMARK                         _______ _______ _______ _____ _____    ______ ____
ROOT
ATOM      1  N   UNL     1       7.978   4.272  17.835  0.00  0.00    +0.000 N 
ATOM      2  C   UNL     1       6.776   4.815  18.110  0.00  0.00    +0.000 A 
ATOM      3  N   UNL     1       5.954   4.449  19.064  0.00  0.00    +0.000 NA
ATOM      4  C   UNL     1       4.851   5.260  18.916  0.00  0.00    +0.000 A 
ATOM      5  C   UNL     1       3.669   5.290  19.670  0.00  0.00    +0.000 A 
ATOM      6  C   UNL     1       2.655   6.182  19.300  0.00  0.00    +0.000 A 
ATOM      7  C   UNL     1       2.815   7.033  18.205  0.00  0.00    +0.000 A 
ATOM      8  C   UNL     1       3.996   7.037  17.455  0.00  0.00    +0.000 A 
ATOM      9  C   UNL     1       4.999   6.138  17.843  0.00  0.00    +0.000 A 
ATOM     10  N   UNL     1       6.258   5.864  17.371  0.00  0.00    +0.000 N 
ATOM     11  H   UNL     1       8.354   3.679  18.569  0.00  0.00    +0.000 HD
ATOM     12  H   UNL     1       8.686   4.871  17.417  0.00  0.00    +0.000 HD
ENDROOT
BRANCH  10  13
ATOM     13  N   UNL     1       6.914   6.531  16.281  0.00  0.00    +0.000 N 
ATOM     14  H   UNL     1       7.891   6.698  16.505  0.00  0.00    +0.000 HD
ATOM     15  H   UNL     1       6.508   7.457  16.160  0.00  0.00    +0.000 HD
ENDBRANCH  10  13
TORSDOF 1
ENDMDL
