MODEL 1
REMARK VINA RESULT:      -7.6      0.000      0.000
REMARK  Name = 
REMARK  9 active torsions:
REMARK  status: ('A' for Active; 'I' for Inactive)
REMARK    1  A    between atoms: C_1  and  O_2
REMARK    2  A    between atoms: O_2  and  C_3
REMARK    3  A    between atoms: C_6  and  C_7
REMARK    4  A    between atoms: N_9  and  N_10
REMARK    5  A    between atoms: C_11  and  C_13
REMARK    6  A    between atoms: C_13  and  S_14
REMARK    7  A    between atoms: S_14  and  C_15
REMARK    8  A    between atoms: C_18  and  C_19
REMARK    9  A    between atoms: N_20  and  C_21
REMARK                            x       y       z     vdW  Elec       q    Type
REMARK                         _______ _______ _______ _____ _____    ______ ____
ROOT
ATOM      1  N   UNL     1       2.685   5.801  20.446  0.00  0.00    +0.000 N 
ATOM      2  C   UNL     1       2.074   4.587  20.195  0.00  0.00    +0.000 C 
ATOM      3  O   UNL     1       0.920   4.348  20.560  0.00  0.00    +0.000 OA
ATOM      4  H   UNL     1       3.557   6.100  20.016  0.00  0.00    +0.000 HD
ENDROOT
BRANCH   1   7
ATOM      5  C   UNL     1       1.633   7.957  20.322  0.00  0.00    +0.000 C 
ATOM      6  O   UNL     1       2.047   8.122  19.181  0.00  0.00    +0.000 OA
ATOM      7  N   UNL     1       1.909   6.807  21.044  0.00  0.00    +0.000 N 
ATOM      8  H   UNL     1       1.582   6.604  21.982  0.00  0.00    +0.000 HD
BRANCH   5  12
ATOM      9  C   UNL     1      -0.755  10.914  22.394  0.00  0.00    +0.000 A 
ATOM     10  C   UNL     1      -0.232   9.806  23.058  0.00  0.00    +0.000 A 
ATOM     11  C   UNL     1       0.555   8.870  22.373  0.00  0.00    +0.000 A 
ATOM     12  C   UNL     1       0.812   9.018  21.002  0.00  0.00    +0.000 A 
ATOM     13  C   UNL     1       0.273  10.129  20.339  0.00  0.00    +0.000 A 
ATOM     14  C   UNL     1      -0.507  11.069  21.032  0.00  0.00    +0.000 A 
BRANCH   9  16
ATOM     15  C   UNL     1      -1.261  13.142  23.012  0.00  0.00    +0.000 C 
ATOM     16  O   UNL     1      -1.520  11.748  23.158  0.00  0.00    +0.000 OA
ENDBRANCH   9  16
ENDBRANCH   5  12
ENDBRANCH   1   7
BRANCH   2  17
ATOM     17  C   UNL     1       2.958   3.558  19.505  0.00  0.00    +0.000 C 
BRANCH  17  18
ATOM     18  S   UNL     1       3.534   4.135  17.887  0.00  0.00    +0.000 S 
BRANCH  18  19
ATOM     19  C   UNL     1       5.088   4.785  18.262  0.00  0.00    +0.000 A 
ATOM     20  N   UNL     1       5.928   4.357  19.173  0.00  0.00    +0.000 NA
ATOM     21  N   UNL     1       7.038   5.176  19.130  0.00  0.00    +0.000 NA
ATOM     22  C   UNL     1       6.843   6.089  18.199  0.00  0.00    +0.000 A 
ATOM     23  C   UNL     1       7.750   7.208  17.846  0.00  0.00    +0.000 C 
ATOM     24  N   UNL     1       5.627   5.857  17.604  0.00  0.00    +0.000 N 
ATOM     25  C   UNL     1       5.027   6.603  16.528  0.00  0.00    +0.000 C 
ENDBRANCH  18  19
ENDBRANCH  17  18
ENDBRANCH   2  17
TORSDOF 6
ENDMDL
MODEL 2
REMARK VINA RESULT:      -7.4      0.218      1.021
REMARK  Name = 
REMARK  9 active torsions:
REMARK  status: ('A' for Active; 'I' for Inactive)
REMARK    1  A    between atoms: C_1  and  O_2
REMARK    2  A    between atoms: O_2  and  C_3
REMARK    3  A    between atoms: C_6  and  C_7
REMARK    4  A    between atoms: N_9  and  N_10
REMARK    5  A    between atoms: C_11  and  C_13
REMARK    6  A    between atoms: C_13  and  S_14
REMARK    7  A    between atoms: S_14  and  C_15
REMARK    8  A    between atoms: C_18  and  C_19
REMARK    9  A    between atoms: N_20  and  C_21
REMARK                            x       y       z     vdW  Elec       q    Type
REMARK                         _______ _______ _______ _____ _____    ______ ____
ROOT
ATOM      1  N   UNL     1       2.665   5.717  20.536  0.00  0.00    +0.000 N 
ATOM      2  C   UNL     1       2.065   4.522  20.185  0.00  0.00    +0.000 C 
ATOM      3  O   UNL     1       0.882   4.284  20.442  0.00  0.00    +0.000 OA
ATOM      4  H   UNL     1       3.573   6.020  20.192  0.00  0.00    +0.000 HD
ENDROOT
BRANCH   1   7
ATOM      5  C   UNL     1       1.627   7.879  20.398  0.00  0.00    +0.000 C 
ATOM      6  O   UNL     1       2.117   8.073  19.292  0.00  0.00    +0.000 OA
ATOM      7  N   UNL     1       1.851   6.709  21.106  0.00  0.00    +0.000 N 
ATOM      8  H   UNL     1       1.461   6.483  22.014  0.00  0.00    +0.000 HD
BRANCH   5  12
ATOM      9  C   UNL     1      -0.844  10.975  22.144  0.00  0.00    +0.000 A 
ATOM     10  C   UNL     1      -0.588  10.934  20.775  0.00  0.00    +0.000 A 
ATOM     11  C   UNL     1       0.199   9.912  20.227  0.00  0.00    +0.000 A 
ATOM     12  C   UNL     1       0.763   8.924  21.048  0.00  0.00    +0.000 A 
ATOM     13  C   UNL     1       0.510   8.978  22.425  0.00  0.00    +0.000 A 
ATOM     14  C   UNL     1      -0.287   9.999  22.969  0.00  0.00    +0.000 A 
BRANCH   9  16
ATOM     15  C   UNL     1      -0.933  13.271  22.708  0.00  0.00    +0.000 C 
ATOM     16  O   UNL     1      -1.608  12.025  22.567  0.00  0.00    +0.000 OA
ENDBRANCH   9  16
ENDBRANCH   5  12
ENDBRANCH   1   7
BRANCH   2  17
ATOM     17  C   UNL     1       2.994   3.509  19.531  0.00  0.00    +0.000 C 
BRANCH  17  18
ATOM     18  S   UNL     1       3.549   4.056  17.896  0.00  0.00    +0.000 S 
BRANCH  18  19
ATOM     19  C   UNL     1       5.100   4.728  18.241  0.00  0.00    +0.000 A 
ATOM     20  N   UNL     1       5.976   4.293  19.114  0.00  0.00    +0.000 NA
ATOM     21  N   UNL     1       7.067   5.137  19.060  0.00  0.00    +0.000 NA
ATOM     22  C   UNL     1       6.825   6.070  18.161  0.00  0.00    +0.000 A 
ATOM     23  C   UNL     1       7.697   7.217  17.812  0.00  0.00    +0.000 C 
ATOM     24  N   UNL     1       5.597   5.829  17.597  0.00  0.00    +0.000 N 
ATOM     25  C   UNL     1       4.949   6.590  16.561  0.00  0.00    +0.000 C 
ENDBRANCH  18  19
ENDBRANCH  17  18
ENDBRANCH   2  17
TORSDOF 6
ENDMDL
MODEL 3
REMARK VINA RESULT:      -7.4      4.863      8.045
REMARK  Name = 
REMARK  9 active torsions:
REMARK  status: ('A' for Active; 'I' for Inactive)
REMARK    1  A    between atoms: C_1  and  O_2
REMARK    2  A    between atoms: O_2  and  C_3
REMARK    3  A    between atoms: C_6  and  C_7
REMARK    4  A    between atoms: N_9  and  N_10
REMARK    5  A    between atoms: C_11  and  C_13
REMARK    6  A    between atoms: C_13  and  S_14
REMARK    7  A    between atoms: S_14  and  C_15
REMARK    8  A    between atoms: C_18  and  C_19
REMARK    9  A    between atoms: N_20  and  C_21
REMARK                            x       y       z     vdW  Elec       q    Type
REMARK                         _______ _______ _______ _____ _____    ______ ____
ROOT
ATOM      1  N   UNL     1       7.704   6.842  18.109  0.00  0.00    +0.000 N 
ATOM      2  C   UNL     1       7.510   5.707  18.875  0.00  0.00    +0.000 C 
ATOM      3  O   UNL     1       8.063   5.553  19.967  0.00  0.00    +0.000 OA
ATOM      4  H   UNL     1       7.140   7.085  17.299  0.00  0.00    +0.000 HD
ENDROOT
BRANCH   1   7
ATOM      5  C   UNL     1       8.345   9.156  18.150  0.00  0.00    +0.000 C 
ATOM      6  O   UNL     1       7.584   9.411  17.224  0.00  0.00    +0.000 OA
ATOM      7  N   UNL     1       8.473   7.877  18.666  0.00  0.00    +0.000 N 
ATOM      8  H   UNL     1       9.070   7.607  19.440  0.00  0.00    +0.000 HD
BRANCH   5  12
ATOM      9  C   UNL     1      10.878  12.266  19.781  0.00  0.00    +0.000 A 
ATOM     10  C   UNL     1      10.828  12.012  18.412  0.00  0.00    +0.000 A 
ATOM     11  C   UNL     1       9.987  11.013  17.902  0.00  0.00    +0.000 A 
ATOM     12  C   UNL     1       9.197  10.235  18.762  0.00  0.00    +0.000 A 
ATOM     13  C   UNL     1       9.261  10.489  20.138  0.00  0.00    +0.000 A 
ATOM     14  C   UNL     1      10.099  11.497  20.643  0.00  0.00    +0.000 A 
BRANCH   9  16
ATOM     15  C   UNL     1      11.692  14.457  19.411  0.00  0.00    +0.000 C 
ATOM     16  O   UNL     1      11.745  13.249  20.164  0.00  0.00    +0.000 OA
ENDBRANCH   9  16
ENDBRANCH   5  12
ENDBRANCH   1   7
BRANCH   2  17
ATOM     17  C   UNL     1       6.631   4.646  18.231  0.00  0.00    +0.000 C 
BRANCH  17  18
ATOM     18  S   UNL     1       4.879   5.105  18.265  0.00  0.00    +0.000 S 
BRANCH  18  19
ATOM     19  C   UNL     1       4.219   3.953  19.366  0.00  0.00    +0.000 A 
ATOM     20  N   UNL     1       4.755   2.816  19.741  0.00  0.00    +0.000 NA
ATOM     21  N   UNL     1       3.880   2.216  20.623  0.00  0.00    +0.000 NA
ATOM     22  C   UNL     1       2.826   2.998  20.757  0.00  0.00    +0.000 A 
ATOM     23  C   UNL     1       1.612   2.725  21.563  0.00  0.00    +0.000 C 
ATOM     24  N   UNL     1       3.017   4.126  19.996  0.00  0.00    +0.000 N 
ATOM     25  C   UNL     1       2.125   5.249  19.865  0.00  0.00    +0.000 C 
ENDBRANCH  18  19
ENDBRANCH  17  18
ENDBRANCH   2  17
TORSDOF 6
ENDMDL
MODEL 4
REMARK VINA RESULT:      -7.3      5.191      7.950
REMARK  Name = 
REMARK  9 active torsions:
REMARK  status: ('A' for Active; 'I' for Inactive)
REMARK    1  A    between atoms: C_1  and  O_2
REMARK    2  A    between atoms: O_2  and  C_3
REMARK    3  A    between atoms: C_6  and  C_7
REMARK    4  A    between atoms: N_9  and  N_10
REMARK    5  A    between atoms: C_11  and  C_13
REMARK    6  A    between atoms: C_13  and  S_14
REMARK    7  A    between atoms: S_14  and  C_15
REMARK    8  A    between atoms: C_18  and  C_19
REMARK    9  A    between atoms: N_20  and  C_21
REMARK                            x       y       z     vdW  Elec       q    Type
REMARK                         _______ _______ _______ _____ _____    ______ ____
ROOT
ATOM      1  N   UNL     1       7.633   6.716  18.142  0.00  0.00    +0.000 N 
ATOM      2  C   UNL     1       7.253   5.702  19.001  0.00  0.00    +0.000 C 
ATOM      3  O   UNL     1       7.657   5.646  20.165  0.00  0.00    +0.000 OA
ATOM      4  H   UNL     1       7.192   6.897  17.244  0.00  0.00    +0.000 HD
ENDROOT
BRANCH   1   7
ATOM      5  C   UNL     1       8.273   9.032  18.156  0.00  0.00    +0.000 C 
ATOM      6  O   UNL     1       7.481   9.283  17.255  0.00  0.00    +0.000 OA
ATOM      7  N   UNL     1       8.419   7.754  18.671  0.00  0.00    +0.000 N 
ATOM      8  H   UNL     1       9.041   7.487  19.425  0.00  0.00    +0.000 HD
BRANCH   5  12
ATOM      9  C   UNL     1      10.856  12.145  19.698  0.00  0.00    +0.000 A 
ATOM     10  C   UNL     1      10.794  11.860  18.335  0.00  0.00    +0.000 A 
ATOM     11  C   UNL     1       9.937  10.860  17.854  0.00  0.00    +0.000 A 
ATOM     12  C   UNL     1       9.142  10.113  18.737  0.00  0.00    +0.000 A 
ATOM     13  C   UNL     1       9.219  10.399  20.107  0.00  0.00    +0.000 A 
ATOM     14  C   UNL     1      10.073  11.407  20.582  0.00  0.00    +0.000 A 
BRANCH   9  16
ATOM     15  C   UNL     1      11.358  14.457  19.721  0.00  0.00    +0.000 C 
ATOM     16  O   UNL     1      11.739  13.125  20.052  0.00  0.00    +0.000 OA
ENDBRANCH   9  16
ENDBRANCH   5  12
ENDBRANCH   1   7
BRANCH   2  17
ATOM     17  C   UNL     1       6.366   4.636  18.375  0.00  0.00    +0.000 C 
BRANCH  17  18
ATOM     18  S   UNL     1       4.965   5.357  17.482  0.00  0.00    +0.000 S 
BRANCH  18  19
ATOM     19  C   UNL     1       3.668   5.141  18.599  0.00  0.00    +0.000 A 
ATOM     20  N   UNL     1       3.298   5.960  19.554  0.00  0.00    +0.000 NA
ATOM     21  N   UNL     1       2.225   5.383  20.202  0.00  0.00    +0.000 NA
ATOM     22  C   UNL     1       1.973   4.222  19.631  0.00  0.00    +0.000 A 
ATOM     23  C   UNL     1       0.942   3.236  20.037  0.00  0.00    +0.000 C 
ATOM     24  N   UNL     1       2.850   4.044  18.590  0.00  0.00    +0.000 N 
ATOM     25  C   UNL     1       2.915   2.924  17.687  0.00  0.00    +0.000 C 
ENDBRANCH  18  19
ENDBRANCH  17  18
ENDBRANCH   2  17
TORSDOF 6
ENDMDL
MODEL 5
REMARK VINA RESULT:      -7.2      2.148      3.692
REMARK  Name = 
REMARK  9 active torsions:
REMARK  status: ('A' for Active; 'I' for Inactive)
REMARK    1  A    between atoms: C_1  and  O_2
REMARK    2  A    between atoms: O_2  and  C_3
REMARK    3  A    between atoms: C_6  and  C_7
REMARK    4  A    between atoms: N_9  and  N_10
REMARK    5  A    between atoms: C_11  and  C_13
REMARK    6  A    between atoms: C_13  and  S_14
REMARK    7  A    between atoms: S_14  and  C_15
REMARK    8  A    between atoms: C_18  and  C_19
REMARK    9  A    between atoms: N_20  and  C_21
REMARK                            x       y       z     vdW  Elec       q    Type
REMARK                         _______ _______ _______ _____ _____    ______ ____
ROOT
ATOM      1  N   UNL     1       3.185   6.806  17.844  0.00  0.00    +0.000 N 
ATOM      2  C   UNL     1       4.326   6.053  18.049  0.00  0.00    +0.000 C 
ATOM      3  O   UNL     1       4.854   5.955  19.159  0.00  0.00    +0.000 OA
ATOM      4  H   UNL     1       2.624   6.772  16.995  0.00  0.00    +0.000 HD
ENDROOT
BRANCH   1   7
ATOM      5  C   UNL     1       1.774   8.497  18.803  0.00  0.00    +0.000 C 
ATOM      6  O   UNL     1       1.586   9.002  17.702  0.00  0.00    +0.000 OA
ATOM      7  N   UNL     1       2.573   7.378  18.971  0.00  0.00    +0.000 N 
ATOM      8  H   UNL     1       2.752   6.905  19.850  0.00  0.00    +0.000 HD
BRANCH   5  12
ATOM      9  C   UNL     1      -0.023  10.341  22.283  0.00  0.00    +0.000 A 
ATOM     10  C   UNL     1      -0.014  10.980  21.044  0.00  0.00    +0.000 A 
ATOM     11  C   UNL     1       0.557  10.357  19.926  0.00  0.00    +0.000 A 
ATOM     12  C   UNL     1       1.148   9.090  20.036  0.00  0.00    +0.000 A 
ATOM     13  C   UNL     1       1.144   8.459  21.287  0.00  0.00    +0.000 A 
ATOM     14  C   UNL     1       0.563   9.084  22.403  0.00  0.00    +0.000 A 
BRANCH   9  16
ATOM     15  C   UNL     1      -1.402  12.156  22.921  0.00  0.00    +0.000 C 
ATOM     16  O   UNL     1      -0.590  11.050  23.304  0.00  0.00    +0.000 OA
ENDBRANCH   9  16
ENDBRANCH   5  12
ENDBRANCH   1   7
BRANCH   2  17
ATOM     17  C   UNL     1       4.910   5.426  16.792  0.00  0.00    +0.000 C 
BRANCH  17  18
ATOM     18  S   UNL     1       4.700   3.627  16.771  0.00  0.00    +0.000 S 
BRANCH  18  19
ATOM     19  C   UNL     1       3.203   3.423  17.604  0.00  0.00    +0.000 A 
ATOM     20  N   UNL     1       1.998   3.653  17.138  0.00  0.00    +0.000 NA
ATOM     21  N   UNL     1       1.102   3.363  18.147  0.00  0.00    +0.000 NA
ATOM     22  C   UNL     1       1.784   2.972  19.206  0.00  0.00    +0.000 A 
ATOM     23  C   UNL     1       1.234   2.615  20.536  0.00  0.00    +0.000 C 
ATOM     24  N   UNL     1       3.121   2.970  18.892  0.00  0.00    +0.000 N 
ATOM     25  C   UNL     1       4.216   2.593  19.748  0.00  0.00    +0.000 C 
ENDBRANCH  18  19
ENDBRANCH  17  18
ENDBRANCH   2  17
TORSDOF 6
ENDMDL
MODEL 6
REMARK VINA RESULT:      -7.1      5.217      7.860
REMARK  Name = 
REMARK  9 active torsions:
REMARK  status: ('A' for Active; 'I' for Inactive)
REMARK    1  A    between atoms: C_1  and  O_2
REMARK    2  A    between atoms: O_2  and  C_3
REMARK    3  A    between atoms: C_6  and  C_7
REMARK    4  A    between atoms: N_9  and  N_10
REMARK    5  A    between atoms: C_11  and  C_13
REMARK    6  A    between atoms: C_13  and  S_14
REMARK    7  A    between atoms: S_14  and  C_15
REMARK    8  A    between atoms: C_18  and  C_19
REMARK    9  A    between atoms: N_20  and  C_21
REMARK                            x       y       z     vdW  Elec       q    Type
REMARK                         _______ _______ _______ _____ _____    ______ ____
ROOT
ATOM      1  N   UNL     1       7.643   6.667  18.254  0.00  0.00    +0.000 N 
ATOM      2  C   UNL     1       7.354   5.640  19.133  0.00  0.00    +0.000 C 
ATOM      3  O   UNL     1       7.817   5.607  20.275  0.00  0.00    +0.000 OA
ATOM      4  H   UNL     1       7.150   6.822  17.378  0.00  0.00    +0.000 HD
ENDROOT
BRANCH   1   7
ATOM      5  C   UNL     1       8.299   8.973  18.113  0.00  0.00    +0.000 C 
ATOM      6  O   UNL     1       7.564   9.151  17.148  0.00  0.00    +0.000 OA
ATOM      7  N   UNL     1       8.404   7.742  18.740  0.00  0.00    +0.000 N 
ATOM      8  H   UNL     1       8.978   7.538  19.550  0.00  0.00    +0.000 HD
BRANCH   5  12
ATOM      9  C   UNL     1      10.641  12.201  19.798  0.00  0.00    +0.000 A 
ATOM     10  C   UNL     1       9.876  11.359  20.604  0.00  0.00    +0.000 A 
ATOM     11  C   UNL     1       9.140  10.308  20.040  0.00  0.00    +0.000 A 
ATOM     12  C   UNL     1       9.140  10.097  18.653  0.00  0.00    +0.000 A 
ATOM     13  C   UNL     1       9.904  10.954  17.849  0.00  0.00    +0.000 A 
ATOM     14  C   UNL     1      10.647  12.000  18.419  0.00  0.00    +0.000 A 
BRANCH   9  16
ATOM     15  C   UNL     1      11.840  14.235  19.636  0.00  0.00    +0.000 C 
ATOM     16  O   UNL     1      11.302  13.199  20.454  0.00  0.00    +0.000 OA
ENDBRANCH   9  16
ENDBRANCH   5  12
ENDBRANCH   1   7
BRANCH   2  17
ATOM     17  C   UNL     1       6.488   4.530  18.554  0.00  0.00    +0.000 C 
BRANCH  17  18
ATOM     18  S   UNL     1       5.092   5.184  17.604  0.00  0.00    +0.000 S 
BRANCH  18  19
ATOM     19  C   UNL     1       3.790   5.054  18.728  0.00  0.00    +0.000 A 
ATOM     20  N   UNL     1       3.348   5.983  19.541  0.00  0.00    +0.000 NA
ATOM     21  N   UNL     1       2.303   5.440  20.261  0.00  0.00    +0.000 NA
ATOM     22  C   UNL     1       2.140   4.190  19.875  0.00  0.00    +0.000 A 
ATOM     23  C   UNL     1       1.170   3.210  20.420  0.00  0.00    +0.000 C 
ATOM     24  N   UNL     1       3.047   3.915  18.882  0.00  0.00    +0.000 N 
ATOM     25  C   UNL     1       3.206   2.676  18.166  0.00  0.00    +0.000 C 
ENDBRANCH  18  19
ENDBRANCH  17  18
ENDBRANCH   2  17
TORSDOF 6
ENDMDL
MODEL 7
REMARK VINA RESULT:      -7.1      5.399      8.572
REMARK  Name = 
REMARK  9 active torsions:
REMARK  status: ('A' for Active; 'I' for Inactive)
REMARK    1  A    between atoms: C_1  and  O_2
REMARK    2  A    between atoms: O_2  and  C_3
REMARK    3  A    between atoms: C_6  and  C_7
REMARK    4  A    between atoms: N_9  and  N_10
REMARK    5  A    between atoms: C_11  and  C_13
REMARK    6  A    between atoms: C_13  and  S_14
REMARK    7  A    between atoms: S_14  and  C_15
REMARK    8  A    between atoms: C_18  and  C_19
REMARK    9  A    between atoms: N_20  and  C_21
REMARK                            x       y       z     vdW  Elec       q    Type
REMARK                         _______ _______ _______ _____ _____    ______ ____
ROOT
ATOM      1  N   UNL     1       8.619   8.322  18.947  0.00  0.00    +0.000 N 
ATOM      2  C   UNL     1       7.970   7.417  18.128  0.00  0.00    +0.000 C 
ATOM      3  O   UNL     1       7.724   7.665  16.945  0.00  0.00    +0.000 OA
ATOM      4  H   UNL     1       8.994   8.094  19.865  0.00  0.00    +0.000 HD
ENDROOT
BRANCH   1   7
ATOM      5  C   UNL     1       9.437  10.569  19.179  0.00  0.00    +0.000 C 
ATOM      6  O   UNL     1       9.342  10.506  20.398  0.00  0.00    +0.000 OA
ATOM      7  N   UNL     1       9.091   9.507  18.359  0.00  0.00    +0.000 N 
ATOM      8  H   UNL     1       9.164   9.492  17.348  0.00  0.00    +0.000 HD
BRANCH   5  12
ATOM      9  C   UNL     1      10.698  14.244  17.268  0.00  0.00    +0.000 A 
ATOM     10  C   UNL     1       9.513  14.172  17.998  0.00  0.00    +0.000 A 
ATOM     11  C   UNL     1       9.132  12.978  18.624  0.00  0.00    +0.000 A 
ATOM     12  C   UNL     1       9.925  11.826  18.511  0.00  0.00    +0.000 A 
ATOM     13  C   UNL     1      11.110  11.903  17.767  0.00  0.00    +0.000 A 
ATOM     14  C   UNL     1      11.491  13.105  17.148  0.00  0.00    +0.000 A 
BRANCH   9  16
ATOM     15  C   UNL     1      11.439  16.473  17.558  0.00  0.00    +0.000 C 
ATOM     16  O   UNL     1      10.958  15.452  16.688  0.00  0.00    +0.000 OA
ENDBRANCH   9  16
ENDBRANCH   5  12
ENDBRANCH   1   7
BRANCH   2  17
ATOM     17  C   UNL     1       7.525   6.136  18.820  0.00  0.00    +0.000 C 
BRANCH  17  18
ATOM     18  S   UNL     1       6.774   4.965  17.660  0.00  0.00    +0.000 S 
BRANCH  18  19
ATOM     19  C   UNL     1       5.360   4.463  18.511  0.00  0.00    +0.000 A 
ATOM     20  N   UNL     1       5.234   3.419  19.294  0.00  0.00    +0.000 NA
ATOM     21  N   UNL     1       3.933   3.400  19.753  0.00  0.00    +0.000 NA
ATOM     22  C   UNL     1       3.294   4.428  19.230  0.00  0.00    +0.000 A 
ATOM     23  C   UNL     1       1.862   4.768  19.404  0.00  0.00    +0.000 C 
ATOM     24  N   UNL     1       4.175   5.145  18.457  0.00  0.00    +0.000 N 
ATOM     25  C   UNL     1       3.904   6.351  17.719  0.00  0.00    +0.000 C 
ENDBRANCH  18  19
ENDBRANCH  17  18
ENDBRANCH   2  17
TORSDOF 6
ENDMDL
MODEL 8
REMARK VINA RESULT:      -7.0      2.265      3.646
REMARK  Name = 
REMARK  9 active torsions:
REMARK  status: ('A' for Active; 'I' for Inactive)
REMARK    1  A    between atoms: C_1  and  O_2
REMARK    2  A    between atoms: O_2  and  C_3
REMARK    3  A    between atoms: C_6  and  C_7
REMARK    4  A    between atoms: N_9  and  N_10
REMARK    5  A    between atoms: C_11  and  C_13
REMARK    6  A    between atoms: C_13  and  S_14
REMARK    7  A    between atoms: S_14  and  C_15
REMARK    8  A    between atoms: C_18  and  C_19
REMARK    9  A    between atoms: N_20  and  C_21
REMARK                            x       y       z     vdW  Elec       q    Type
REMARK                         _______ _______ _______ _____ _____    ______ ____
ROOT
ATOM      1  N   UNL     1       2.996   6.440  17.549  0.00  0.00    +0.000 N 
ATOM      2  C   UNL     1       4.289   5.987  17.734  0.00  0.00    +0.000 C 
ATOM      3  O   UNL     1       4.921   6.216  18.768  0.00  0.00    +0.000 OA
ATOM      4  H   UNL     1       2.385   6.128  16.798  0.00  0.00    +0.000 HD
ENDROOT
BRANCH   1   7
ATOM      5  C   UNL     1       1.972   8.404  18.480  0.00  0.00    +0.000 C 
ATOM      6  O   UNL     1       2.144   9.020  17.435  0.00  0.00    +0.000 OA
ATOM      7  N   UNL     1       2.375   7.087  18.630  0.00  0.00    +0.000 N 
ATOM      8  H   UNL     1       2.245   6.519  19.461  0.00  0.00    +0.000 HD
BRANCH   5  12
ATOM      9  C   UNL     1       0.141  10.189  21.973  0.00  0.00    +0.000 A 
ATOM     10  C   UNL     1       1.018   9.111  22.082  0.00  0.00    +0.000 A 
ATOM     11  C   UNL     1       1.615   8.560  20.940  0.00  0.00    +0.000 A 
ATOM     12  C   UNL     1       1.324   9.067  19.664  0.00  0.00    +0.000 A 
ATOM     13  C   UNL     1       0.433  10.143  19.563  0.00  0.00    +0.000 A 
ATOM     14  C   UNL     1      -0.156  10.698  20.711  0.00  0.00    +0.000 A 
BRANCH   9  16
ATOM     15  C   UNL     1      -1.361  11.671  23.044  0.00  0.00    +0.000 C 
ATOM     16  O   UNL     1      -0.393  10.631  23.150  0.00  0.00    +0.000 OA
ENDBRANCH   9  16
ENDBRANCH   5  12
ENDBRANCH   1   7
BRANCH   2  17
ATOM     17  C   UNL     1       4.885   5.256  16.539  0.00  0.00    +0.000 C 
BRANCH  17  18
ATOM     18  S   UNL     1       4.792   3.457  16.729  0.00  0.00    +0.000 S 
BRANCH  18  19
ATOM     19  C   UNL     1       3.302   3.255  17.576  0.00  0.00    +0.000 A 
ATOM     20  N   UNL     1       2.091   3.392  17.093  0.00  0.00    +0.000 NA
ATOM     21  N   UNL     1       1.204   3.144  18.122  0.00  0.00    +0.000 NA
ATOM     22  C   UNL     1       1.898   2.871  19.209  0.00  0.00    +0.000 A 
ATOM     23  C   UNL     1       1.360   2.599  20.563  0.00  0.00    +0.000 C 
ATOM     24  N   UNL     1       3.235   2.903  18.896  0.00  0.00    +0.000 N 
ATOM     25  C   UNL     1       4.343   2.646  19.780  0.00  0.00    +0.000 C 
ENDBRANCH  18  19
ENDBRANCH  17  18
ENDBRANCH   2  17
TORSDOF 6
ENDMDL
MODEL 9
REMARK VINA RESULT:      -7.0      5.361      7.808
REMARK  Name = 
REMARK  9 active torsions:
REMARK  status: ('A' for Active; 'I' for Inactive)
REMARK    1  A    between atoms: C_1  and  O_2
REMARK    2  A    between atoms: O_2  and  C_3
REMARK    3  A    between atoms: C_6  and  C_7
REMARK    4  A    between atoms: N_9  and  N_10
REMARK    5  A    between atoms: C_11  and  C_13
REMARK    6  A    between atoms: C_13  and  S_14
REMARK    7  A    between atoms: S_14  and  C_15
REMARK    8  A    between atoms: C_18  and  C_19
REMARK    9  A    between atoms: N_20  and  C_21
REMARK                            x       y       z     vdW  Elec       q    Type
REMARK                         _______ _______ _______ _____ _____    ______ ____
ROOT
ATOM      1  N   UNL     1       7.751   6.721  18.250  0.00  0.00    +0.000 N 
ATOM      2  C   UNL     1       7.467   5.691  19.127  0.00  0.00    +0.000 C 
ATOM      3  O   UNL     1       7.932   5.657  20.269  0.00  0.00    +0.000 OA
ATOM      4  H   UNL     1       7.256   6.877  17.375  0.00  0.00    +0.000 HD
ENDROOT
BRANCH   1   7
ATOM      5  C   UNL     1       8.344   9.047  18.161  0.00  0.00    +0.000 C 
ATOM      6  O   UNL     1       7.561   9.238  17.238  0.00  0.00    +0.000 OA
ATOM      7  N   UNL     1       8.508   7.799  18.738  0.00  0.00    +0.000 N 
ATOM      8  H   UNL     1       9.125   7.581  19.514  0.00  0.00    +0.000 HD
BRANCH   5  12
ATOM      9  C   UNL     1      10.677  12.283  19.844  0.00  0.00    +0.000 A 
ATOM     10  C   UNL     1       9.891  11.458  20.647  0.00  0.00    +0.000 A 
ATOM     11  C   UNL     1       9.158  10.404  20.084  0.00  0.00    +0.000 A 
ATOM     12  C   UNL     1       9.183  10.173  18.701  0.00  0.00    +0.000 A 
ATOM     13  C   UNL     1       9.967  11.014  17.899  0.00  0.00    +0.000 A 
ATOM     14  C   UNL     1      10.707  12.063  18.469  0.00  0.00    +0.000 A 
BRANCH   9  16
ATOM     15  C   UNL     1      10.559  14.445  20.798  0.00  0.00    +0.000 C 
ATOM     16  O   UNL     1      11.332  13.286  20.498  0.00  0.00    +0.000 OA
ENDBRANCH   9  16
ENDBRANCH   5  12
ENDBRANCH   1   7
BRANCH   2  17
ATOM     17  C   UNL     1       6.606   4.579  18.546  0.00  0.00    +0.000 C 
BRANCH  17  18
ATOM     18  S   UNL     1       4.965   5.175  18.061  0.00  0.00    +0.000 S 
BRANCH  18  19
ATOM     19  C   UNL     1       3.944   3.873  18.547  0.00  0.00    +0.000 A 
ATOM     20  N   UNL     1       4.310   2.736  19.088  0.00  0.00    +0.000 NA
ATOM     21  N   UNL     1       3.168   1.993  19.304  0.00  0.00    +0.000 NA
ATOM     22  C   UNL     1       2.133   2.691  18.881  0.00  0.00    +0.000 A 
ATOM     23  C   UNL     1       0.714   2.260  18.865  0.00  0.00    +0.000 C 
ATOM     24  N   UNL     1       2.581   3.904  18.418  0.00  0.00    +0.000 N 
ATOM     25  C   UNL     1       1.788   4.980  17.882  0.00  0.00    +0.000 C 
ENDBRANCH  18  19
ENDBRANCH  17  18
ENDBRANCH   2  17
TORSDOF 6
ENDMDL
