MODEL 1
REMARK VINA RESULT:      -7.8      0.000      0.000
REMARK  Name = 
REMARK  11 active torsions:
REMARK  status: ('A' for Active; 'I' for Inactive)
REMARK    1  A    between atoms: C_1  and  C_2
REMARK    2  A    between atoms: C_2  and  C_3
REMARK    3  A    between atoms: C_3  and  C_4
REMARK    4  A    between atoms: C_4  and  C_5
REMARK    5  A    between atoms: C_5  and  C_6
REMARK    6  A    between atoms: C_9  and  C_10
REMARK    7  A    between atoms: C_11  and  C_12
REMARK    8  A    between atoms: C_15  and  C_16
REMARK    9  A    between atoms: C_16  and  N_17
REMARK   10  A    between atoms: C_21  and  C_22
REMARK   11  A    between atoms: C_22  and  O_23
REMARK                            x       y       z     vdW  Elec       q    Type
REMARK                         _______ _______ _______ _____ _____    ______ ____
ROOT
ATOM      1  C   UNL     1       9.420  10.308  18.756  0.00  0.00    +0.000 A 
ATOM      2  C   UNL     1       9.597  10.716  20.106  0.00  0.00    +0.000 A 
ATOM      3  C   UNL     1      10.210  11.968  20.394  0.00  0.00    +0.000 A 
ATOM      4  C   UNL     1      10.681  12.724  19.389  0.00  0.00    +0.000 A 
ATOM      5  C   UNL     1      10.586  12.086  18.209  0.00  0.00    +0.000 A 
ATOM      6  C   UNL     1       9.982  11.004  17.763  0.00  0.00    +0.000 A 
ENDROOT
BRANCH   1   8
ATOM      7  C   UNL     1       7.965   8.385  18.056  0.00  0.00    +0.000 C 
ATOM      8  C   UNL     1       8.657   9.272  18.339  0.00  0.00    +0.000 C 
BRANCH   7  12
ATOM      9  C   UNL     1       5.816   5.013  16.947  0.00  0.00    +0.000 A 
ATOM     10  C   UNL     1       6.993   4.966  17.718  0.00  0.00    +0.000 A 
ATOM     11  C   UNL     1       7.643   6.098  18.069  0.00  0.00    +0.000 A 
ATOM     12  C   UNL     1       7.156   7.307  17.661  0.00  0.00    +0.000 A 
ATOM     13  C   UNL     1       5.994   7.415  16.877  0.00  0.00    +0.000 A 
ATOM     14  C   UNL     1       5.333   6.246  16.512  0.00  0.00    +0.000 A 
BRANCH   9  15
ATOM     15  C   UNL     1       5.062   3.772  16.600  0.00  0.00    +0.000 C 
BRANCH  15  16
ATOM     16  C   UNL     1       4.047   3.486  17.659  0.00  0.00    +0.000 C 
BRANCH  16  17
ATOM     17  C   UNL     1       2.709   3.454  17.070  0.00  0.00    +0.000 C 
BRANCH  17  19
ATOM     18  C   UNL     1       2.330   5.412  18.425  0.00  0.00    +0.000 C 
ATOM     19  C   UNL     1       1.731   3.941  18.099  0.00  0.00    +0.000 C 
ENDBRANCH  17  19
ENDBRANCH  16  17
ENDBRANCH  15  16
ENDBRANCH   9  15
ENDBRANCH   7  12
ENDBRANCH   1   8
BRANCH   4  20
ATOM     20  C   UNL     1      11.337  14.153  19.499  0.00  0.00    +0.000 C 
BRANCH  20  21
ATOM     21  N   UNL     1      10.340  15.340  19.502  0.00  0.00    +0.000 NA
ATOM     22  C   UNL     1       9.006  15.039  19.998  0.00  0.00    +0.000 C 
ATOM     23  C   UNL     1       8.207  14.777  18.752  0.00  0.00    +0.000 C 
ATOM     24  C   UNL     1       8.779  15.831  17.663  0.00  0.00    +0.000 C 
ATOM     25  C   UNL     1      10.177  16.108  18.192  0.00  0.00    +0.000 C 
BRANCH  25  26
ATOM     26  C   UNL     1      11.525  15.880  17.401  0.00  0.00    +0.000 C 
BRANCH  26  27
ATOM     27  O   UNL     1      10.957  15.427  16.202  0.00  0.00    +0.000 OA
ATOM     28  H   UNL     1      10.015  15.034  16.290  0.00  0.00    +0.000 HD
ENDBRANCH  26  27
ENDBRANCH  25  26
ENDBRANCH  20  21
ENDBRANCH   4  20
TORSDOF 10
ENDMDL
MODEL 2
REMARK VINA RESULT:      -7.8      4.169     10.524
REMARK  Name = 
REMARK  11 active torsions:
REMARK  status: ('A' for Active; 'I' for Inactive)
REMARK    1  A    between atoms: C_1  and  C_2
REMARK    2  A    between atoms: C_2  and  C_3
REMARK    3  A    between atoms: C_3  and  C_4
REMARK    4  A    between atoms: C_4  and  C_5
REMARK    5  A    between atoms: C_5  and  C_6
REMARK    6  A    between atoms: C_9  and  C_10
REMARK    7  A    between atoms: C_11  and  C_12
REMARK    8  A    between atoms: C_15  and  C_16
REMARK    9  A    between atoms: C_16  and  N_17
REMARK   10  A    between atoms: C_21  and  C_22
REMARK   11  A    between atoms: C_22  and  O_23
REMARK                            x       y       z     vdW  Elec       q    Type
REMARK                         _______ _______ _______ _____ _____    ______ ____
ROOT
ATOM      1  C   UNL     1       7.452   7.303  17.785  0.00  0.00    +0.000 A 
ATOM      2  C   UNL     1       6.604   7.275  16.645  0.00  0.00    +0.000 A 
ATOM      3  C   UNL     1       5.708   6.185  16.454  0.00  0.00    +0.000 A 
ATOM      4  C   UNL     1       5.720   5.156  17.316  0.00  0.00    +0.000 A 
ATOM      5  C   UNL     1       6.712   5.281  18.215  0.00  0.00    +0.000 A 
ATOM      6  C   UNL     1       7.543   6.235  18.582  0.00  0.00    +0.000 A 
ENDROOT
BRANCH   1   8
ATOM      7  C   UNL     1       8.746   9.329  18.511  0.00  0.00    +0.000 C 
ATOM      8  C   UNL     1       8.169   8.370  18.207  0.00  0.00    +0.000 C 
BRANCH   7  12
ATOM      9  C   UNL     1      11.056  12.646  19.446  0.00  0.00    +0.000 A 
ATOM     10  C   UNL     1      10.911  12.144  18.139  0.00  0.00    +0.000 A 
ATOM     11  C   UNL     1      10.128  11.070  17.888  0.00  0.00    +0.000 A 
ATOM     12  C   UNL     1       9.474  10.458  18.919  0.00  0.00    +0.000 A 
ATOM     13  C   UNL     1       9.594  10.906  20.245  0.00  0.00    +0.000 A 
ATOM     14  C   UNL     1      10.406  12.007  20.500  0.00  0.00    +0.000 A 
BRANCH   9  15
ATOM     15  C   UNL     1      11.875  13.863  19.726  0.00  0.00    +0.000 C 
BRANCH  15  16
ATOM     16  C   UNL     1      11.577  14.916  18.709  0.00  0.00    +0.000 C 
BRANCH  16  17
ATOM     17  C   UNL     1      10.450  15.735  19.156  0.00  0.00    +0.000 C 
BRANCH  17  19
ATOM     18  C   UNL     1       8.412  14.905  18.170  0.00  0.00    +0.000 C 
ATOM     19  C   UNL     1       9.575  16.017  17.969  0.00  0.00    +0.000 C 
ENDBRANCH  17  19
ENDBRANCH  16  17
ENDBRANCH  15  16
ENDBRANCH   9  15
ENDBRANCH   7  12
ENDBRANCH   1   8
BRANCH   4  20
ATOM     20  C   UNL     1       4.776   3.894  17.307  0.00  0.00    +0.000 C 
BRANCH  20  21
ATOM     21  N   UNL     1       3.338   4.140  17.832  0.00  0.00    +0.000 NA
ATOM     22  C   UNL     1       2.970   5.533  18.027  0.00  0.00    +0.000 C 
ATOM     23  C   UNL     1       3.210   5.770  19.492  0.00  0.00    +0.000 C 
ATOM     24  C   UNL     1       2.767   4.389  20.213  0.00  0.00    +0.000 C 
ATOM     25  C   UNL     1       2.923   3.378  19.089  0.00  0.00    +0.000 C 
BRANCH  25  26
ATOM     26  C   UNL     1       3.841   2.094  19.124  0.00  0.00    +0.000 C 
BRANCH  26  27
ATOM     27  O   UNL     1       2.941   1.210  18.514  0.00  0.00    +0.000 OA
ATOM     28  H   UNL     1       1.965   1.317  18.804  0.00  0.00    +0.000 HD
ENDBRANCH  26  27
ENDBRANCH  25  26
ENDBRANCH  20  21
ENDBRANCH   4  20
TORSDOF 10
ENDMDL
MODEL 3
REMARK VINA RESULT:      -7.6      4.241     10.763
REMARK  Name = 
REMARK  11 active torsions:
REMARK  status: ('A' for Active; 'I' for Inactive)
REMARK    1  A    between atoms: C_1  and  C_2
REMARK    2  A    between atoms: C_2  and  C_3
REMARK    3  A    between atoms: C_3  and  C_4
REMARK    4  A    between atoms: C_4  and  C_5
REMARK    5  A    between atoms: C_5  and  C_6
REMARK    6  A    between atoms: C_9  and  C_10
REMARK    7  A    between atoms: C_11  and  C_12
REMARK    8  A    between atoms: C_15  and  C_16
REMARK    9  A    between atoms: C_16  and  N_17
REMARK   10  A    between atoms: C_21  and  C_22
REMARK   11  A    between atoms: C_22  and  O_23
REMARK                            x       y       z     vdW  Elec       q    Type
REMARK                         _______ _______ _______ _____ _____    ______ ____
ROOT
ATOM      1  C   UNL     1       7.395   7.146  17.856  0.00  0.00    +0.000 A 
ATOM      2  C   UNL     1       6.645   6.955  16.664  0.00  0.00    +0.000 A 
ATOM      3  C   UNL     1       5.704   5.889  16.582  0.00  0.00    +0.000 A 
ATOM      4  C   UNL     1       5.581   5.031  17.606  0.00  0.00    +0.000 A 
ATOM      5  C   UNL     1       6.500   5.269  18.559  0.00  0.00    +0.000 A 
ATOM      6  C   UNL     1       7.354   6.234  18.831  0.00  0.00    +0.000 A 
ENDROOT
BRANCH   1   8
ATOM      7  C   UNL     1       8.709   9.203  18.447  0.00  0.00    +0.000 C 
ATOM      8  C   UNL     1       8.138   8.237  18.153  0.00  0.00    +0.000 C 
BRANCH   7  12
ATOM      9  C   UNL     1      10.727  12.615  19.673  0.00  0.00    +0.000 A 
ATOM     10  C   UNL     1      10.007  11.781  20.549  0.00  0.00    +0.000 A 
ATOM     11  C   UNL     1       9.384  10.668  20.099  0.00  0.00    +0.000 A 
ATOM     12  C   UNL     1       9.446  10.353  18.772  0.00  0.00    +0.000 A 
ATOM     13  C   UNL     1      10.137  11.157  17.848  0.00  0.00    +0.000 A 
ATOM     14  C   UNL     1      10.770  12.304  18.315  0.00  0.00    +0.000 A 
BRANCH   9  15
ATOM     15  C   UNL     1      11.463  13.815  20.169  0.00  0.00    +0.000 C 
BRANCH  15  16
ATOM     16  C   UNL     1      11.082  15.011  19.357  0.00  0.00    +0.000 C 
BRANCH  16  17
ATOM     17  C   UNL     1      12.267  15.570  18.709  0.00  0.00    +0.000 C 
BRANCH  17  19
ATOM     18  C   UNL     1      10.248  15.900  17.433  0.00  0.00    +0.000 C 
ATOM     19  C   UNL     1      11.845  16.180  17.403  0.00  0.00    +0.000 C 
ENDBRANCH  17  19
ENDBRANCH  16  17
ENDBRANCH  15  16
ENDBRANCH   9  15
ENDBRANCH   7  12
ENDBRANCH   1   8
BRANCH   4  20
ATOM     20  C   UNL     1       4.566   3.831  17.728  0.00  0.00    +0.000 C 
BRANCH  20  21
ATOM     21  N   UNL     1       3.093   4.236  17.987  0.00  0.00    +0.000 NA
ATOM     22  C   UNL     1       2.853   5.659  18.165  0.00  0.00    +0.000 C 
ATOM     23  C   UNL     1       2.839   5.841  19.657  0.00  0.00    +0.000 C 
ATOM     24  C   UNL     1       2.116   4.509  20.230  0.00  0.00    +0.000 C 
ATOM     25  C   UNL     1       2.365   3.506  19.116  0.00  0.00    +0.000 C 
BRANCH  25  26
ATOM     26  C   UNL     1       3.111   2.122  19.270  0.00  0.00    +0.000 C 
BRANCH  26  27
ATOM     27  O   UNL     1       2.204   1.345  18.535  0.00  0.00    +0.000 OA
ATOM     28  H   UNL     1       1.479   1.875  18.044  0.00  0.00    +0.000 HD
ENDBRANCH  26  27
ENDBRANCH  25  26
ENDBRANCH  20  21
ENDBRANCH   4  20
TORSDOF 10
ENDMDL
MODEL 4
REMARK VINA RESULT:      -7.6      0.605      1.213
REMARK  Name = 
REMARK  11 active torsions:
REMARK  status: ('A' for Active; 'I' for Inactive)
REMARK    1  A    between atoms: C_1  and  C_2
REMARK    2  A    between atoms: C_2  and  C_3
REMARK    3  A    between atoms: C_3  and  C_4
REMARK    4  A    between atoms: C_4  and  C_5
REMARK    5  A    between atoms: C_5  and  C_6
REMARK    6  A    between atoms: C_9  and  C_10
REMARK    7  A    between atoms: C_11  and  C_12
REMARK    8  A    between atoms: C_15  and  C_16
REMARK    9  A    between atoms: C_16  and  N_17
REMARK   10  A    between atoms: C_21  and  C_22
REMARK   11  A    between atoms: C_22  and  O_23
REMARK                            x       y       z     vdW  Elec       q    Type
REMARK                         _______ _______ _______ _____ _____    ______ ____
ROOT
ATOM      1  C   UNL     1       9.276  10.201  18.681  0.00  0.00    +0.000 A 
ATOM      2  C   UNL     1       9.680  10.567  19.994  0.00  0.00    +0.000 A 
ATOM      3  C   UNL     1      10.231  11.859  20.231  0.00  0.00    +0.000 A 
ATOM      4  C   UNL     1      10.429  12.696  19.200  0.00  0.00    +0.000 A 
ATOM      5  C   UNL     1      10.157  12.102  18.026  0.00  0.00    +0.000 A 
ATOM      6  C   UNL     1       9.570  10.987  17.642  0.00  0.00    +0.000 A 
ENDROOT
BRANCH   1   8
ATOM      7  C   UNL     1       7.962   8.161  18.033  0.00  0.00    +0.000 C 
ATOM      8  C   UNL     1       8.535   9.115  18.359  0.00  0.00    +0.000 C 
BRANCH   7  12
ATOM      9  C   UNL     1       5.532   4.989  16.917  0.00  0.00    +0.000 A 
ATOM     10  C   UNL     1       5.238   6.334  16.622  0.00  0.00    +0.000 A 
ATOM     11  C   UNL     1       6.077   7.328  16.992  0.00  0.00    +0.000 A 
ATOM     12  C   UNL     1       7.222   7.024  17.670  0.00  0.00    +0.000 A 
ATOM     13  C   UNL     1       7.559   5.702  18.005  0.00  0.00    +0.000 A 
ATOM     14  C   UNL     1       6.690   4.683  17.629  0.00  0.00    +0.000 A 
BRANCH   9  15
ATOM     15  C   UNL     1       4.639   3.881  16.466  0.00  0.00    +0.000 C 
BRANCH  15  16
ATOM     16  C   UNL     1       4.057   3.187  17.655  0.00  0.00    +0.000 C 
BRANCH  16  17
ATOM     17  C   UNL     1       3.149   4.089  18.362  0.00  0.00    +0.000 C 
BRANCH  17  19
ATOM     18  C   UNL     1       1.150   2.751  18.530  0.00  0.00    +0.000 C 
ATOM     19  C   UNL     1       1.797   3.995  17.717  0.00  0.00    +0.000 C 
ENDBRANCH  17  19
ENDBRANCH  16  17
ENDBRANCH  15  16
ENDBRANCH   9  15
ENDBRANCH   7  12
ENDBRANCH   1   8
BRANCH   4  20
ATOM     20  C   UNL     1      10.970  14.176  19.265  0.00  0.00    +0.000 C 
BRANCH  20  21
ATOM     21  N   UNL     1       9.900  15.259  19.553  0.00  0.00    +0.000 NA
ATOM     22  C   UNL     1       8.544  14.770  19.742  0.00  0.00    +0.000 C 
ATOM     23  C   UNL     1       7.905  14.942  18.392  0.00  0.00    +0.000 C 
ATOM     24  C   UNL     1       8.520  16.325  17.816  0.00  0.00    +0.000 C 
ATOM     25  C   UNL     1       9.830  16.435  18.579  0.00  0.00    +0.000 C 
BRANCH  25  26
ATOM     26  C   UNL     1      11.268  16.533  17.934  0.00  0.00    +0.000 C 
BRANCH  26  27
ATOM     27  O   UNL     1      10.860  16.659  16.599  0.00  0.00    +0.000 OA
ATOM     28  H   UNL     1      10.867  15.789  16.060  0.00  0.00    +0.000 HD
ENDBRANCH  26  27
ENDBRANCH  25  26
ENDBRANCH  20  21
ENDBRANCH   4  20
TORSDOF 10
ENDMDL
MODEL 5
REMARK VINA RESULT:      -7.5      0.762      1.269
REMARK  Name = 
REMARK  11 active torsions:
REMARK  status: ('A' for Active; 'I' for Inactive)
REMARK    1  A    between atoms: C_1  and  C_2
REMARK    2  A    between atoms: C_2  and  C_3
REMARK    3  A    between atoms: C_3  and  C_4
REMARK    4  A    between atoms: C_4  and  C_5
REMARK    5  A    between atoms: C_5  and  C_6
REMARK    6  A    between atoms: C_9  and  C_10
REMARK    7  A    between atoms: C_11  and  C_12
REMARK    8  A    between atoms: C_15  and  C_16
REMARK    9  A    between atoms: C_16  and  N_17
REMARK   10  A    between atoms: C_21  and  C_22
REMARK   11  A    between atoms: C_22  and  O_23
REMARK                            x       y       z     vdW  Elec       q    Type
REMARK                         _______ _______ _______ _____ _____    ______ ____
ROOT
ATOM      1  C   UNL     1       9.789  10.794  19.160  0.00  0.00    +0.000 A 
ATOM      2  C   UNL     1       9.951  11.359  20.454  0.00  0.00    +0.000 A 
ATOM      3  C   UNL     1      10.461  12.682  20.591  0.00  0.00    +0.000 A 
ATOM      4  C   UNL     1      10.851  13.360  19.499  0.00  0.00    +0.000 A 
ATOM      5  C   UNL     1      10.791  12.592  18.397  0.00  0.00    +0.000 A 
ATOM      6  C   UNL     1      10.274  11.421  18.085  0.00  0.00    +0.000 A 
ENDROOT
BRANCH   1   8
ATOM      7  C   UNL     1       8.562   8.687  18.558  0.00  0.00    +0.000 C 
ATOM      8  C   UNL     1       9.109   9.659  18.876  0.00  0.00    +0.000 C 
BRANCH   7  12
ATOM      9  C   UNL     1       6.308   5.391  17.431  0.00  0.00    +0.000 A 
ATOM     10  C   UNL     1       6.181   6.660  16.835  0.00  0.00    +0.000 A 
ATOM     11  C   UNL     1       6.956   7.695  17.228  0.00  0.00    +0.000 A 
ATOM     12  C   UNL     1       7.872   7.511  18.224  0.00  0.00    +0.000 A 
ATOM     13  C   UNL     1       8.032   6.271  18.865  0.00  0.00    +0.000 A 
ATOM     14  C   UNL     1       7.227   5.210  18.463  0.00  0.00    +0.000 A 
BRANCH   9  15
ATOM     15  C   UNL     1       5.494   4.228  16.968  0.00  0.00    +0.000 C 
BRANCH  15  16
ATOM     16  C   UNL     1       4.079   4.393  17.417  0.00  0.00    +0.000 C 
BRANCH  16  17
ATOM     17  C   UNL     1       3.960   4.039  18.831  0.00  0.00    +0.000 C 
BRANCH  17  19
ATOM     18  C   UNL     1       1.830   4.556  17.827  0.00  0.00    +0.000 C 
ATOM     19  C   UNL     1       2.540   4.274  19.257  0.00  0.00    +0.000 C 
ENDBRANCH  17  19
ENDBRANCH  16  17
ENDBRANCH  15  16
ENDBRANCH   9  15
ENDBRANCH   7  12
ENDBRANCH   1   8
BRANCH   4  20
ATOM     20  C   UNL     1      11.385  14.841  19.439  0.00  0.00    +0.000 C 
BRANCH  20  21
ATOM     21  N   UNL     1      10.295  15.932  19.284  0.00  0.00    +0.000 NA
ATOM     22  C   UNL     1       9.003  15.618  19.874  0.00  0.00    +0.000 C 
ATOM     23  C   UNL     1       8.197  15.090  18.722  0.00  0.00    +0.000 C 
ATOM     24  C   UNL     1       8.653  15.985  17.451  0.00  0.00    +0.000 C 
ATOM     25  C   UNL     1      10.036  16.453  17.871  0.00  0.00    +0.000 C 
BRANCH  25  26
ATOM     26  C   UNL     1      11.378  16.198  17.077  0.00  0.00    +0.000 C 
BRANCH  26  27
ATOM     27  O   UNL     1      10.828  15.443  16.032  0.00  0.00    +0.000 OA
ATOM     28  H   UNL     1      10.690  15.953  15.155  0.00  0.00    +0.000 HD
ENDBRANCH  26  27
ENDBRANCH  25  26
ENDBRANCH  20  21
ENDBRANCH   4  20
TORSDOF 10
ENDMDL
MODEL 6
REMARK VINA RESULT:      -7.5      4.069     10.420
REMARK  Name = 
REMARK  11 active torsions:
REMARK  status: ('A' for Active; 'I' for Inactive)
REMARK    1  A    between atoms: C_1  and  C_2
REMARK    2  A    between atoms: C_2  and  C_3
REMARK    3  A    between atoms: C_3  and  C_4
REMARK    4  A    between atoms: C_4  and  C_5
REMARK    5  A    between atoms: C_5  and  C_6
REMARK    6  A    between atoms: C_9  and  C_10
REMARK    7  A    between atoms: C_11  and  C_12
REMARK    8  A    between atoms: C_15  and  C_16
REMARK    9  A    between atoms: C_16  and  N_17
REMARK   10  A    between atoms: C_21  and  C_22
REMARK   11  A    between atoms: C_22  and  O_23
REMARK                            x       y       z     vdW  Elec       q    Type
REMARK                         _______ _______ _______ _____ _____    ______ ____
ROOT
ATOM      1  C   UNL     1       7.154   7.221  17.499  0.00  0.00    +0.000 A 
ATOM      2  C   UNL     1       6.116   7.260  16.528  0.00  0.00    +0.000 A 
ATOM      3  C   UNL     1       5.227   6.155  16.397  0.00  0.00    +0.000 A 
ATOM      4  C   UNL     1       5.418   5.056  17.144  0.00  0.00    +0.000 A 
ATOM      5  C   UNL     1       6.552   5.141  17.862  0.00  0.00    +0.000 A 
ATOM      6  C   UNL     1       7.412   6.092  18.164  0.00  0.00    +0.000 A 
ENDROOT
BRANCH   1   8
ATOM      7  C   UNL     1       8.488   9.213  18.246  0.00  0.00    +0.000 C 
ATOM      8  C   UNL     1       7.910   8.274  17.886  0.00  0.00    +0.000 C 
BRANCH   7  12
ATOM      9  C   UNL     1      10.563  12.480  19.743  0.00  0.00    +0.000 A 
ATOM     10  C   UNL     1       9.916  11.531  20.557  0.00  0.00    +0.000 A 
ATOM     11  C   UNL     1       9.271  10.473  20.016  0.00  0.00    +0.000 A 
ATOM     12  C   UNL     1       9.238  10.326  18.659  0.00  0.00    +0.000 A 
ATOM     13  C   UNL     1       9.852  11.250  17.796  0.00  0.00    +0.000 A 
ATOM     14  C   UNL     1      10.509  12.342  18.357  0.00  0.00    +0.000 A 
BRANCH   9  15
ATOM     15  C   UNL     1      11.323  13.622  20.332  0.00  0.00    +0.000 C 
BRANCH  15  16
ATOM     16  C   UNL     1      10.644  14.909  19.989  0.00  0.00    +0.000 C 
BRANCH  16  17
ATOM     17  C   UNL     1       9.452  15.079  20.820  0.00  0.00    +0.000 C 
BRANCH  17  19
ATOM     18  C   UNL     1       7.783  14.778  19.105  0.00  0.00    +0.000 C 
ATOM     19  C   UNL     1       8.460  15.905  20.053  0.00  0.00    +0.000 C 
ENDBRANCH  17  19
ENDBRANCH  16  17
ENDBRANCH  15  16
ENDBRANCH   9  15
ENDBRANCH   7  12
ENDBRANCH   1   8
BRANCH   4  20
ATOM     20  C   UNL     1       4.518   3.763  17.183  0.00  0.00    +0.000 C 
BRANCH  20  21
ATOM     21  N   UNL     1       3.182   3.910  17.956  0.00  0.00    +0.000 NA
ATOM     22  C   UNL     1       2.837   5.263  18.362  0.00  0.00    +0.000 C 
ATOM     23  C   UNL     1       3.309   5.346  19.787  0.00  0.00    +0.000 C 
ATOM     24  C   UNL     1       3.003   3.882  20.410  0.00  0.00    +0.000 C 
ATOM     25  C   UNL     1       2.984   3.004  19.170  0.00  0.00    +0.000 C 
BRANCH  25  26
ATOM     26  C   UNL     1       3.909   1.750  18.913  0.00  0.00    +0.000 C 
BRANCH  26  27
ATOM     27  O   UNL     1       4.796   1.958  19.979  0.00  0.00    +0.000 OA
ATOM     28  H   UNL     1       5.315   2.840  19.944  0.00  0.00    +0.000 HD
ENDBRANCH  26  27
ENDBRANCH  25  26
ENDBRANCH  20  21
ENDBRANCH   4  20
TORSDOF 10
ENDMDL
MODEL 7
REMARK VINA RESULT:      -7.5      4.241     10.966
REMARK  Name = 
REMARK  11 active torsions:
REMARK  status: ('A' for Active; 'I' for Inactive)
REMARK    1  A    between atoms: C_1  and  C_2
REMARK    2  A    between atoms: C_2  and  C_3
REMARK    3  A    between atoms: C_3  and  C_4
REMARK    4  A    between atoms: C_4  and  C_5
REMARK    5  A    between atoms: C_5  and  C_6
REMARK    6  A    between atoms: C_9  and  C_10
REMARK    7  A    between atoms: C_11  and  C_12
REMARK    8  A    between atoms: C_15  and  C_16
REMARK    9  A    between atoms: C_16  and  N_17
REMARK   10  A    between atoms: C_21  and  C_22
REMARK   11  A    between atoms: C_22  and  O_23
REMARK                            x       y       z     vdW  Elec       q    Type
REMARK                         _______ _______ _______ _____ _____    ______ ____
ROOT
ATOM      1  C   UNL     1       7.266   7.517  17.757  0.00  0.00    +0.000 A 
ATOM      2  C   UNL     1       6.271   7.555  16.743  0.00  0.00    +0.000 A 
ATOM      3  C   UNL     1       5.304   6.512  16.660  0.00  0.00    +0.000 A 
ATOM      4  C   UNL     1       5.382   5.466  17.497  0.00  0.00    +0.000 A 
ATOM      5  C   UNL     1       6.491   5.523  18.253  0.00  0.00    +0.000 A 
ATOM      6  C   UNL     1       7.411   6.428  18.518  0.00  0.00    +0.000 A 
ENDROOT
BRANCH   1   8
ATOM      7  C   UNL     1       8.738   9.432  18.444  0.00  0.00    +0.000 C 
ATOM      8  C   UNL     1       8.087   8.538  18.094  0.00  0.00    +0.000 C 
BRANCH   7  12
ATOM      9  C   UNL     1      11.320  12.568  19.288  0.00  0.00    +0.000 A 
ATOM     10  C   UNL     1      11.094  12.076  17.989  0.00  0.00    +0.000 A 
ATOM     11  C   UNL     1      10.225  11.064  17.768  0.00  0.00    +0.000 A 
ATOM     12  C   UNL     1       9.563  10.504  18.823  0.00  0.00    +0.000 A 
ATOM     13  C   UNL     1       9.761  10.943  20.143  0.00  0.00    +0.000 A 
ATOM     14  C   UNL     1      10.662  11.979  20.366  0.00  0.00    +0.000 A 
BRANCH   9  15
ATOM     15  C   UNL     1      12.237  13.720  19.536  0.00  0.00    +0.000 C 
BRANCH  15  16
ATOM     16  C   UNL     1      11.848  14.870  18.664  0.00  0.00    +0.000 C 
BRANCH  16  17
ATOM     17  C   UNL     1      11.845  16.107  19.445  0.00  0.00    +0.000 C 
BRANCH  17  19
ATOM     18  C   UNL     1      11.368  17.217  17.357  0.00  0.00    +0.000 C 
ATOM     19  C   UNL     1      10.806  17.024  18.866  0.00  0.00    +0.000 C 
ENDBRANCH  17  19
ENDBRANCH  16  17
ENDBRANCH  15  16
ENDBRANCH   9  15
ENDBRANCH   7  12
ENDBRANCH   1   8
BRANCH   4  20
ATOM     20  C   UNL     1       4.382   4.251  17.597  0.00  0.00    +0.000 C 
BRANCH  20  21
ATOM     21  N   UNL     1       2.899   4.632  17.832  0.00  0.00    +0.000 NA
ATOM     22  C   UNL     1       2.665   5.660  18.834  0.00  0.00    +0.000 C 
ATOM     23  C   UNL     1       2.338   4.884  20.080  0.00  0.00    +0.000 C 
ATOM     24  C   UNL     1       1.474   3.615  19.563  0.00  0.00    +0.000 C 
ATOM     25  C   UNL     1       1.929   3.487  18.118  0.00  0.00    +0.000 C 
BRANCH  25  26
ATOM     26  C   UNL     1       2.587   2.207  17.468  0.00  0.00    +0.000 C 
BRANCH  26  27
ATOM     27  O   UNL     1       2.576   1.397  18.612  0.00  0.00    +0.000 OA
ATOM     28  H   UNL     1       1.917   1.686  19.341  0.00  0.00    +0.000 HD
ENDBRANCH  26  27
ENDBRANCH  25  26
ENDBRANCH  20  21
ENDBRANCH   4  20
TORSDOF 10
ENDMDL
MODEL 8
REMARK VINA RESULT:      -7.4      1.089      2.014
REMARK  Name = 
REMARK  11 active torsions:
REMARK  status: ('A' for Active; 'I' for Inactive)
REMARK    1  A    between atoms: C_1  and  C_2
REMARK    2  A    between atoms: C_2  and  C_3
REMARK    3  A    between atoms: C_3  and  C_4
REMARK    4  A    between atoms: C_4  and  C_5
REMARK    5  A    between atoms: C_5  and  C_6
REMARK    6  A    between atoms: C_9  and  C_10
REMARK    7  A    between atoms: C_11  and  C_12
REMARK    8  A    between atoms: C_15  and  C_16
REMARK    9  A    between atoms: C_16  and  N_17
REMARK   10  A    between atoms: C_21  and  C_22
REMARK   11  A    between atoms: C_22  and  O_23
REMARK                            x       y       z     vdW  Elec       q    Type
REMARK                         _______ _______ _______ _____ _____    ______ ____
ROOT
ATOM      1  C   UNL     1       9.320  10.360  18.768  0.00  0.00    +0.000 A 
ATOM      2  C   UNL     1       9.408  10.888  20.085  0.00  0.00    +0.000 A 
ATOM      3  C   UNL     1       9.864  12.223  20.284  0.00  0.00    +0.000 A 
ATOM      4  C   UNL     1      10.274  12.949  19.232  0.00  0.00    +0.000 A 
ATOM      5  C   UNL     1      10.288  12.216  18.105  0.00  0.00    +0.000 A 
ATOM      6  C   UNL     1       9.827  11.039  17.735  0.00  0.00    +0.000 A 
ENDROOT
BRANCH   1   8
ATOM      7  C   UNL     1       8.090   8.257  18.160  0.00  0.00    +0.000 C 
ATOM      8  C   UNL     1       8.695   9.212  18.420  0.00  0.00    +0.000 C 
BRANCH   7  12
ATOM      9  C   UNL     1       5.848   4.952  17.034  0.00  0.00    +0.000 A 
ATOM     10  C   UNL     1       5.664   6.238  16.490  0.00  0.00    +0.000 A 
ATOM     11  C   UNL     1       6.437   7.276  16.879  0.00  0.00    +0.000 A 
ATOM     12  C   UNL     1       7.407   7.078  17.820  0.00  0.00    +0.000 A 
ATOM     13  C   UNL     1       7.626   5.821  18.408  0.00  0.00    +0.000 A 
ATOM     14  C   UNL     1       6.823   4.756  18.011  0.00  0.00    +0.000 A 
BRANCH   9  15
ATOM     15  C   UNL     1       5.036   3.788  16.572  0.00  0.00    +0.000 C 
BRANCH  15  16
ATOM     16  C   UNL     1       4.090   3.373  17.653  0.00  0.00    +0.000 C 
BRANCH  16  17
ATOM     17  C   UNL     1       2.817   4.078  17.498  0.00  0.00    +0.000 C 
BRANCH  17  19
ATOM     18  C   UNL     1       1.086   2.803  18.590  0.00  0.00    +0.000 C 
ATOM     19  C   UNL     1       2.101   4.047  18.817  0.00  0.00    +0.000 C 
ENDBRANCH  17  19
ENDBRANCH  16  17
ENDBRANCH  15  16
ENDBRANCH   9  15
ENDBRANCH   7  12
ENDBRANCH   1   8
BRANCH   4  20
ATOM     20  C   UNL     1      10.756  14.450  19.240  0.00  0.00    +0.000 C 
BRANCH  20  21
ATOM     21  N   UNL     1      10.691  15.173  17.871  0.00  0.00    +0.000 NA
ATOM     22  C   UNL     1      11.970  15.393  17.215  0.00  0.00    +0.000 C 
ATOM     23  C   UNL     1      12.333  16.802  17.591  0.00  0.00    +0.000 C 
ATOM     24  C   UNL     1      10.927  17.607  17.588  0.00  0.00    +0.000 C 
ATOM     25  C   UNL     1       9.921  16.492  17.823  0.00  0.00    +0.000 C 
BRANCH  25  26
ATOM     26  C   UNL     1       8.887  16.417  19.014  0.00  0.00    +0.000 C 
BRANCH  26  27
ATOM     27  O   UNL     1       7.734  16.222  18.241  0.00  0.00    +0.000 OA
ATOM     28  H   UNL     1       7.486  15.242  18.073  0.00  0.00    +0.000 HD
ENDBRANCH  26  27
ENDBRANCH  25  26
ENDBRANCH  20  21
ENDBRANCH   4  20
TORSDOF 10
ENDMDL
MODEL 9
REMARK VINA RESULT:      -7.4      4.240     10.914
REMARK  Name = 
REMARK  11 active torsions:
REMARK  status: ('A' for Active; 'I' for Inactive)
REMARK    1  A    between atoms: C_1  and  C_2
REMARK    2  A    between atoms: C_2  and  C_3
REMARK    3  A    between atoms: C_3  and  C_4
REMARK    4  A    between atoms: C_4  and  C_5
REMARK    5  A    between atoms: C_5  and  C_6
REMARK    6  A    between atoms: C_9  and  C_10
REMARK    7  A    between atoms: C_11  and  C_12
REMARK    8  A    between atoms: C_15  and  C_16
REMARK    9  A    between atoms: C_16  and  N_17
REMARK   10  A    between atoms: C_21  and  C_22
REMARK   11  A    between atoms: C_22  and  O_23
REMARK                            x       y       z     vdW  Elec       q    Type
REMARK                         _______ _______ _______ _____ _____    ______ ____
ROOT
ATOM      1  C   UNL     1       7.482   7.545  17.989  0.00  0.00    +0.000 A 
ATOM      2  C   UNL     1       6.373   7.478  17.103  0.00  0.00    +0.000 A 
ATOM      3  C   UNL     1       5.463   6.386  17.185  0.00  0.00    +0.000 A 
ATOM      4  C   UNL     1       5.699   5.390  18.054  0.00  0.00    +0.000 A 
ATOM      5  C   UNL     1       6.885   5.543  18.668  0.00  0.00    +0.000 A 
ATOM      6  C   UNL     1       7.777   6.507  18.777  0.00  0.00    +0.000 A 
ENDROOT
BRANCH   1   8
ATOM      7  C   UNL     1       8.929   9.553  18.414  0.00  0.00    +0.000 C 
ATOM      8  C   UNL     1       8.278   8.622  18.177  0.00  0.00    +0.000 C 
BRANCH   7  12
ATOM      9  C   UNL     1      11.178  12.904  19.375  0.00  0.00    +0.000 A 
ATOM     10  C   UNL     1      10.493  12.128  20.329  0.00  0.00    +0.000 A 
ATOM     11  C   UNL     1       9.791  11.032  19.963  0.00  0.00    +0.000 A 
ATOM     12  C   UNL     1       9.737  10.677  18.645  0.00  0.00    +0.000 A 
ATOM     13  C   UNL     1      10.387  11.423  17.647  0.00  0.00    +0.000 A 
ATOM     14  C   UNL     1      11.103  12.554  18.028  0.00  0.00    +0.000 A 
BRANCH   9  15
ATOM     15  C   UNL     1      11.999  14.085  19.776  0.00  0.00    +0.000 C 
BRANCH  15  16
ATOM     16  C   UNL     1      11.115  15.141  20.354  0.00  0.00    +0.000 C 
BRANCH  16  17
ATOM     17  C   UNL     1      10.643  16.031  19.294  0.00  0.00    +0.000 C 
BRANCH  17  19
ATOM     18  C   UNL     1       9.322  17.948  18.664  0.00  0.00    +0.000 C 
ATOM     19  C   UNL     1      10.050  17.253  19.934  0.00  0.00    +0.000 C 
ENDBRANCH  17  19
ENDBRANCH  16  17
ENDBRANCH  15  16
ENDBRANCH   9  15
ENDBRANCH   7  12
ENDBRANCH   1   8
BRANCH   4  20
ATOM     20  C   UNL     1       4.789   4.133  18.331  0.00  0.00    +0.000 C 
BRANCH  20  21
ATOM     21  N   UNL     1       3.280   4.436  18.515  0.00  0.00    +0.000 NA
ATOM     22  C   UNL     1       2.938   5.247  19.673  0.00  0.00    +0.000 C 
ATOM     23  C   UNL     1       2.544   4.241  20.717  0.00  0.00    +0.000 C 
ATOM     24  C   UNL     1       1.763   3.080  19.900  0.00  0.00    +0.000 C 
ATOM     25  C   UNL     1       2.329   3.241  18.498  0.00  0.00    +0.000 C 
BRANCH  25  26
ATOM     26  C   UNL     1       3.075   2.122  17.671  0.00  0.00    +0.000 C 
BRANCH  26  27
ATOM     27  O   UNL     1       2.950   1.088  18.610  0.00  0.00    +0.000 OA
ATOM     28  H   UNL     1       3.627   0.326  18.508  0.00  0.00    +0.000 HD
ENDBRANCH  26  27
ENDBRANCH  25  26
ENDBRANCH  20  21
ENDBRANCH   4  20
TORSDOF 10
ENDMDL
