MODEL 1
REMARK VINA RESULT:      -8.1      0.000      0.000
REMARK  Name = 
REMARK  5 active torsions:
REMARK  status: ('A' for Active; 'I' for Inactive)
REMARK    1  A    between atoms: C_1  and  C_2
REMARK    2  A    between atoms: N_5  and  C_6
REMARK    3  A    between atoms: C_6  and  C_7
REMARK    4  A    between atoms: C_10  and  C_11
REMARK    5  A    between atoms: C_14  and  C_15
REMARK                            x       y       z     vdW  Elec       q    Type
REMARK                         _______ _______ _______ _____ _____    ______ ____
ROOT
ATOM      1  C   UNL     1       7.623   7.707  17.547  0.00  0.00    +0.000 C 
ATOM      2  C   UNL     1       6.460   6.790  17.322  0.00  0.00    +0.000 A 
ATOM      3  N   UNL     1       6.474   5.977  16.241  0.00  0.00    +0.000 NA
ATOM      4  C   UNL     1       5.402   5.191  16.043  0.00  0.00    +0.000 A 
ATOM      5  N   UNL     1       5.389   4.192  15.067  0.00  0.00    +0.000 N 
ATOM      6  C   UNL     1       4.323   5.235  16.898  0.00  0.00    +0.000 A 
ATOM      7  C   UNL     1       4.407   6.075  17.983  0.00  0.00    +0.000 A 
ATOM      8  N   UNL     1       5.472   6.858  18.223  0.00  0.00    +0.000 NA
ATOM      9  H   UNL     1       4.468   4.073  14.657  0.00  0.00    +0.000 HD
ENDROOT
BRANCH   7  10
ATOM     10  C   UNL     1       3.326   5.987  19.024  0.00  0.00    +0.000 C 
ATOM     11  O   UNL     1       2.678   7.015  19.246  0.00  0.00    +0.000 OA
ATOM     12  N   UNL     1       3.019   4.797  19.681  0.00  0.00    +0.000 N 
ATOM     13  C   UNL     1       3.830   3.582  19.760  0.00  0.00    +0.000 C 
ATOM     14  C   UNL     1       2.983   2.374  19.354  0.00  0.00    +0.000 C 
ATOM     15  O   UNL     1       1.817   2.270  20.192  0.00  0.00    +0.000 OA
ATOM     16  C   UNL     1       1.002   3.452  20.083  0.00  0.00    +0.000 C 
ATOM     17  C   UNL     1       1.783   4.716  20.464  0.00  0.00    +0.000 C 
ENDBRANCH   7  10
BRANCH   5  18
ATOM     18  C   UNL     1       6.425   4.159  14.043  0.00  0.00    +0.000 C 
BRANCH  18  19
ATOM     19  C   UNL     1       5.938   3.456  12.807  0.00  0.00    +0.000 A 
ATOM     20  C   UNL     1       6.498   2.466  12.024  0.00  0.00    +0.000 A 
ATOM     21  C   UNL     1       5.544   2.141  11.035  0.00  0.00    +0.000 A 
ATOM     22  C   UNL     1       4.470   2.978  11.242  0.00  0.00    +0.000 A 
ATOM     23  C   UNL     1       3.197   3.166  10.514  0.00  0.00    +0.000 C 
ATOM     24  O   UNL     1       4.694   3.773  12.331  0.00  0.00    +0.000 OA
ENDBRANCH  18  19
ENDBRANCH   5  18
TORSDOF 3
ENDMDL
MODEL 2
REMARK VINA RESULT:      -7.8      3.765      8.497
REMARK  Name = 
REMARK  5 active torsions:
REMARK  status: ('A' for Active; 'I' for Inactive)
REMARK    1  A    between atoms: C_1  and  C_2
REMARK    2  A    between atoms: N_5  and  C_6
REMARK    3  A    between atoms: C_6  and  C_7
REMARK    4  A    between atoms: C_10  and  C_11
REMARK    5  A    between atoms: C_14  and  C_15
REMARK                            x       y       z     vdW  Elec       q    Type
REMARK                         _______ _______ _______ _____ _____    ______ ____
ROOT
ATOM      1  C   UNL     1       1.620   2.876  21.648  0.00  0.00    +0.000 C 
ATOM      2  C   UNL     1       2.063   3.914  20.663  0.00  0.00    +0.000 A 
ATOM      3  N   UNL     1       1.786   5.214  20.920  0.00  0.00    +0.000 NA
ATOM      4  C   UNL     1       2.163   6.121  20.003  0.00  0.00    +0.000 A 
ATOM      5  N   UNL     1       2.087   7.493  20.249  0.00  0.00    +0.000 N 
ATOM      6  C   UNL     1       2.784   5.734  18.837  0.00  0.00    +0.000 A 
ATOM      7  C   UNL     1       3.046   4.395  18.671  0.00  0.00    +0.000 A 
ATOM      8  N   UNL     1       2.703   3.463  19.577  0.00  0.00    +0.000 NA
ATOM      9  H   UNL     1       1.863   8.018  19.409  0.00  0.00    +0.000 HD
ENDROOT
BRANCH   7  10
ATOM     10  C   UNL     1       3.894   3.985  17.500  0.00  0.00    +0.000 C 
ATOM     11  O   UNL     1       3.323   3.404  16.571  0.00  0.00    +0.000 OA
ATOM     12  N   UNL     1       5.253   4.284  17.423  0.00  0.00    +0.000 N 
ATOM     13  C   UNL     1       6.142   4.701  18.507  0.00  0.00    +0.000 C 
ATOM     14  C   UNL     1       6.893   5.969  18.096  0.00  0.00    +0.000 C 
ATOM     15  O   UNL     1       7.632   5.746  16.880  0.00  0.00    +0.000 OA
ATOM     16  C   UNL     1       6.750   5.373  15.806  0.00  0.00    +0.000 C 
ATOM     17  C   UNL     1       5.947   4.109  16.144  0.00  0.00    +0.000 C 
ENDBRANCH   7  10
BRANCH   5  18
ATOM     18  C   UNL     1       1.332   7.990  21.392  0.00  0.00    +0.000 C 
BRANCH  18  19
ATOM     19  C   UNL     1       0.627   9.274  21.054  0.00  0.00    +0.000 A 
ATOM     20  C   UNL     1       0.275   9.847  19.848  0.00  0.00    +0.000 A 
ATOM     21  C   UNL     1      -0.443  11.024  20.151  0.00  0.00    +0.000 A 
ATOM     22  C   UNL     1      -0.457  11.128  21.524  0.00  0.00    +0.000 A 
ATOM     23  C   UNL     1      -0.994  12.156  22.442  0.00  0.00    +0.000 C 
ATOM     24  O   UNL     1       0.179  10.056  22.085  0.00  0.00    +0.000 OA
ENDBRANCH  18  19
ENDBRANCH   5  18
TORSDOF 3
ENDMDL
MODEL 3
REMARK VINA RESULT:      -7.8      3.523      8.131
REMARK  Name = 
REMARK  5 active torsions:
REMARK  status: ('A' for Active; 'I' for Inactive)
REMARK    1  A    between atoms: C_1  and  C_2
REMARK    2  A    between atoms: N_5  and  C_6
REMARK    3  A    between atoms: C_6  and  C_7
REMARK    4  A    between atoms: C_10  and  C_11
REMARK    5  A    between atoms: C_14  and  C_15
REMARK                            x       y       z     vdW  Elec       q    Type
REMARK                         _______ _______ _______ _____ _____    ______ ____
ROOT
ATOM      1  C   UNL     1       1.956   2.974  21.787  0.00  0.00    +0.000 C 
ATOM      2  C   UNL     1       2.261   3.978  20.718  0.00  0.00    +0.000 A 
ATOM      3  N   UNL     1       1.969   5.279  20.946  0.00  0.00    +0.000 NA
ATOM      4  C   UNL     1       2.219   6.153  19.956  0.00  0.00    +0.000 A 
ATOM      5  N   UNL     1       2.124   7.533  20.149  0.00  0.00    +0.000 N 
ATOM      6  C   UNL     1       2.730   5.731  18.750  0.00  0.00    +0.000 A 
ATOM      7  C   UNL     1       3.018   4.393  18.615  0.00  0.00    +0.000 A 
ATOM      8  N   UNL     1       2.801   3.495  19.591  0.00  0.00    +0.000 NA
ATOM      9  H   UNL     1       1.797   8.012  19.315  0.00  0.00    +0.000 HD
ENDROOT
BRANCH   7  10
ATOM     10  C   UNL     1       3.754   3.954  17.380  0.00  0.00    +0.000 C 
ATOM     11  O   UNL     1       3.120   3.283  16.560  0.00  0.00    +0.000 OA
ATOM     12  N   UNL     1       5.075   4.321  17.131  0.00  0.00    +0.000 N 
ATOM     13  C   UNL     1       6.051   4.856  18.080  0.00  0.00    +0.000 C 
ATOM     14  C   UNL     1       6.673   6.133  17.511  0.00  0.00    +0.000 C 
ATOM     15  O   UNL     1       7.285   5.871  16.234  0.00  0.00    +0.000 OA
ATOM     16  C   UNL     1       6.314   5.381  15.292  0.00  0.00    +0.000 C 
ATOM     17  C   UNL     1       5.633   4.100  15.794  0.00  0.00    +0.000 C 
ENDBRANCH   7  10
BRANCH   5  18
ATOM     18  C   UNL     1       1.474   8.060  21.342  0.00  0.00    +0.000 C 
BRANCH  18  19
ATOM     19  C   UNL     1       0.570   9.211  20.999  0.00  0.00    +0.000 A 
ATOM     20  C   UNL     1      -0.040  10.173  21.779  0.00  0.00    +0.000 A 
ATOM     21  C   UNL     1      -0.710  11.049  20.896  0.00  0.00    +0.000 A 
ATOM     22  C   UNL     1      -0.506  10.551  19.628  0.00  0.00    +0.000 A 
ATOM     23  C   UNL     1      -0.992  10.979  18.298  0.00  0.00    +0.000 C 
ATOM     24  O   UNL     1       0.287   9.439  19.679  0.00  0.00    +0.000 OA
ENDBRANCH  18  19
ENDBRANCH   5  18
TORSDOF 3
ENDMDL
MODEL 4
REMARK VINA RESULT:      -7.6      2.727      4.105
REMARK  Name = 
REMARK  5 active torsions:
REMARK  status: ('A' for Active; 'I' for Inactive)
REMARK    1  A    between atoms: C_1  and  C_2
REMARK    2  A    between atoms: N_5  and  C_6
REMARK    3  A    between atoms: C_6  and  C_7
REMARK    4  A    between atoms: C_10  and  C_11
REMARK    5  A    between atoms: C_14  and  C_15
REMARK                            x       y       z     vdW  Elec       q    Type
REMARK                         _______ _______ _______ _____ _____    ______ ____
ROOT
ATOM      1  C   UNL     1       1.711   3.712  18.075  0.00  0.00    +0.000 C 
ATOM      2  C   UNL     1       2.541   4.935  17.830  0.00  0.00    +0.000 A 
ATOM      3  N   UNL     1       3.778   4.785  17.301  0.00  0.00    +0.000 NA
ATOM      4  C   UNL     1       4.515   5.896  17.125  0.00  0.00    +0.000 A 
ATOM      5  N   UNL     1       5.723   5.876  16.427  0.00  0.00    +0.000 N 
ATOM      6  C   UNL     1       4.034   7.132  17.495  0.00  0.00    +0.000 A 
ATOM      7  C   UNL     1       2.758   7.190  18.003  0.00  0.00    +0.000 A 
ATOM      8  N   UNL     1       1.986   6.104  18.173  0.00  0.00    +0.000 NA
ATOM      9  H   UNL     1       6.393   6.538  16.806  0.00  0.00    +0.000 HD
ENDROOT
BRANCH   7  10
ATOM     10  C   UNL     1       2.153   8.549  18.227  0.00  0.00    +0.000 C 
ATOM     11  O   UNL     1       2.141   9.321  17.263  0.00  0.00    +0.000 OA
ATOM     12  N   UNL     1       1.582   8.918  19.442  0.00  0.00    +0.000 N 
ATOM     13  C   UNL     1       1.745   8.271  20.744  0.00  0.00    +0.000 C 
ATOM     14  C   UNL     1       0.370   7.999  21.357  0.00  0.00    +0.000 C 
ATOM     15  O   UNL     1      -0.379   9.223  21.481  0.00  0.00    +0.000 OA
ATOM     16  C   UNL     1      -0.570   9.838  20.194  0.00  0.00    +0.000 C 
ATOM     17  C   UNL     1       0.768  10.136  19.503  0.00  0.00    +0.000 C 
ENDBRANCH   7  10
BRANCH   5  18
ATOM     18  C   UNL     1       6.365   4.605  16.114  0.00  0.00    +0.000 C 
BRANCH  18  19
ATOM     19  C   UNL     1       6.533   4.438  14.630  0.00  0.00    +0.000 A 
ATOM     20  C   UNL     1       7.465   4.939  13.742  0.00  0.00    +0.000 A 
ATOM     21  C   UNL     1       7.167   4.378  12.480  0.00  0.00    +0.000 A 
ATOM     22  C   UNL     1       6.047   3.596  12.658  0.00  0.00    +0.000 A 
ATOM     23  C   UNL     1       5.224   2.804  11.718  0.00  0.00    +0.000 C 
ATOM     24  O   UNL     1       5.663   3.613  13.969  0.00  0.00    +0.000 OA
ENDBRANCH  18  19
ENDBRANCH   5  18
TORSDOF 3
ENDMDL
MODEL 5
REMARK VINA RESULT:      -7.6      2.967      6.695
REMARK  Name = 
REMARK  5 active torsions:
REMARK  status: ('A' for Active; 'I' for Inactive)
REMARK    1  A    between atoms: C_1  and  C_2
REMARK    2  A    between atoms: N_5  and  C_6
REMARK    3  A    between atoms: C_6  and  C_7
REMARK    4  A    between atoms: C_10  and  C_11
REMARK    5  A    between atoms: C_14  and  C_15
REMARK                            x       y       z     vdW  Elec       q    Type
REMARK                         _______ _______ _______ _____ _____    ______ ____
ROOT
ATOM      1  C   UNL     1       6.969   4.748  14.572  0.00  0.00    +0.000 C 
ATOM      2  C   UNL     1       6.738   5.157  15.995  0.00  0.00    +0.000 A 
ATOM      3  N   UNL     1       7.285   6.313  16.435  0.00  0.00    +0.000 NA
ATOM      4  C   UNL     1       7.093   6.638  17.725  0.00  0.00    +0.000 A 
ATOM      5  N   UNL     1       7.458   7.886  18.235  0.00  0.00    +0.000 N 
ATOM      6  C   UNL     1       6.386   5.809  18.567  0.00  0.00    +0.000 A 
ATOM      7  C   UNL     1       5.846   4.666  18.027  0.00  0.00    +0.000 A 
ATOM      8  N   UNL     1       6.001   4.321  16.737  0.00  0.00    +0.000 NA
ATOM      9  H   UNL     1       7.774   7.826  19.198  0.00  0.00    +0.000 HD
ENDROOT
BRANCH   7  10
ATOM     10  C   UNL     1       4.913   3.857  18.884  0.00  0.00    +0.000 C 
ATOM     11  O   UNL     1       5.359   2.808  19.361  0.00  0.00    +0.000 OA
ATOM     12  N   UNL     1       3.619   4.279  19.180  0.00  0.00    +0.000 N 
ATOM     13  C   UNL     1       2.838   5.315  18.504  0.00  0.00    +0.000 C 
ATOM     14  C   UNL     1       2.290   6.301  19.538  0.00  0.00    +0.000 C 
ATOM     15  O   UNL     1       1.493   5.612  20.520  0.00  0.00    +0.000 OA
ATOM     16  C   UNL     1       2.275   4.620  21.209  0.00  0.00    +0.000 C 
ATOM     17  C   UNL     1       2.872   3.593  20.238  0.00  0.00    +0.000 C 
ENDBRANCH   7  10
BRANCH   5  18
ATOM     18  C   UNL     1       8.318   8.768  17.456  0.00  0.00    +0.000 C 
BRANCH  18  19
ATOM     19  C   UNL     1       8.769   9.943  18.279  0.00  0.00    +0.000 A 
ATOM     20  C   UNL     1       9.340  10.029  19.534  0.00  0.00    +0.000 A 
ATOM     21  C   UNL     1       9.624  11.394  19.759  0.00  0.00    +0.000 A 
ATOM     22  C   UNL     1       9.174  12.072  18.647  0.00  0.00    +0.000 A 
ATOM     23  C   UNL     1       9.130  13.510  18.306  0.00  0.00    +0.000 C 
ATOM     24  O   UNL     1       8.666  11.194  17.732  0.00  0.00    +0.000 OA
ENDBRANCH  18  19
ENDBRANCH   5  18
TORSDOF 3
ENDMDL
MODEL 6
REMARK VINA RESULT:      -7.5      3.625      8.672
REMARK  Name = 
REMARK  5 active torsions:
REMARK  status: ('A' for Active; 'I' for Inactive)
REMARK    1  A    between atoms: C_1  and  C_2
REMARK    2  A    between atoms: N_5  and  C_6
REMARK    3  A    between atoms: C_6  and  C_7
REMARK    4  A    between atoms: C_10  and  C_11
REMARK    5  A    between atoms: C_14  and  C_15
REMARK                            x       y       z     vdW  Elec       q    Type
REMARK                         _______ _______ _______ _____ _____    ______ ____
ROOT
ATOM      1  C   UNL     1       0.757   2.846  19.233  0.00  0.00    +0.000 C 
ATOM      2  C   UNL     1       1.731   3.972  19.403  0.00  0.00    +0.000 A 
ATOM      3  N   UNL     1       1.314   5.104  20.016  0.00  0.00    +0.000 NA
ATOM      4  C   UNL     1       2.198   6.111  20.123  0.00  0.00    +0.000 A 
ATOM      5  N   UNL     1       1.931   7.247  20.889  0.00  0.00    +0.000 N 
ATOM      6  C   UNL     1       3.468   5.999  19.605  0.00  0.00    +0.000 A 
ATOM      7  C   UNL     1       3.811   4.803  19.019  0.00  0.00    +0.000 A 
ATOM      8  N   UNL     1       2.961   3.768  18.914  0.00  0.00    +0.000 NA
ATOM      9  H   UNL     1       2.342   8.084  20.486  0.00  0.00    +0.000 HD
ENDROOT
BRANCH   7  10
ATOM     10  C   UNL     1       5.248   4.600  18.627  0.00  0.00    +0.000 C 
ATOM     11  O   UNL     1       5.918   3.838  19.332  0.00  0.00    +0.000 OA
ATOM     12  N   UNL     1       5.802   5.193  17.495  0.00  0.00    +0.000 N 
ATOM     13  C   UNL     1       5.270   6.313  16.718  0.00  0.00    +0.000 C 
ATOM     14  C   UNL     1       5.229   5.935  15.236  0.00  0.00    +0.000 C 
ATOM     15  O   UNL     1       6.541   5.564  14.773  0.00  0.00    +0.000 OA
ATOM     16  C   UNL     1       7.047   4.439  15.514  0.00  0.00    +0.000 C 
ATOM     17  C   UNL     1       7.110   4.733  17.019  0.00  0.00    +0.000 C 
ENDBRANCH   7  10
BRANCH   5  18
ATOM     18  C   UNL     1       0.578   7.507  21.363  0.00  0.00    +0.000 C 
BRANCH  18  19
ATOM     19  C   UNL     1       0.257   8.974  21.298  0.00  0.00    +0.000 A 
ATOM     20  C   UNL     1       0.520   9.937  20.343  0.00  0.00    +0.000 A 
ATOM     21  C   UNL     1      -0.093  11.129  20.788  0.00  0.00    +0.000 A 
ATOM     22  C   UNL     1      -0.662  10.841  22.009  0.00  0.00    +0.000 A 
ATOM     23  C   UNL     1      -1.387  11.673  22.993  0.00  0.00    +0.000 C 
ATOM     24  O   UNL     1      -0.468   9.524  22.321  0.00  0.00    +0.000 OA
ENDBRANCH  18  19
ENDBRANCH   5  18
TORSDOF 3
ENDMDL
MODEL 7
REMARK VINA RESULT:      -7.5      3.084      4.636
REMARK  Name = 
REMARK  5 active torsions:
REMARK  status: ('A' for Active; 'I' for Inactive)
REMARK    1  A    between atoms: C_1  and  C_2
REMARK    2  A    between atoms: N_5  and  C_6
REMARK    3  A    between atoms: C_6  and  C_7
REMARK    4  A    between atoms: C_10  and  C_11
REMARK    5  A    between atoms: C_14  and  C_15
REMARK                            x       y       z     vdW  Elec       q    Type
REMARK                         _______ _______ _______ _____ _____    ______ ____
ROOT
ATOM      1  C   UNL     1       1.558   4.024  17.886  0.00  0.00    +0.000 C 
ATOM      2  C   UNL     1       2.432   5.241  17.887  0.00  0.00    +0.000 A 
ATOM      3  N   UNL     1       3.753   5.092  17.639  0.00  0.00    +0.000 NA
ATOM      4  C   UNL     1       4.520   6.194  17.682  0.00  0.00    +0.000 A 
ATOM      5  N   UNL     1       5.854   6.182  17.269  0.00  0.00    +0.000 N 
ATOM      6  C   UNL     1       3.980   7.422  17.993  0.00  0.00    +0.000 A 
ATOM      7  C   UNL     1       2.624   7.482  18.208  0.00  0.00    +0.000 A 
ATOM      8  N   UNL     1       1.824   6.404  18.152  0.00  0.00    +0.000 NA
ATOM      9  H   UNL     1       6.428   6.815  17.817  0.00  0.00    +0.000 HD
ENDROOT
BRANCH   7  10
ATOM     10  C   UNL     1       1.996   8.841  18.355  0.00  0.00    +0.000 C 
ATOM     11  O   UNL     1       1.995   9.567  17.355  0.00  0.00    +0.000 OA
ATOM     12  N   UNL     1       1.392   9.258  19.539  0.00  0.00    +0.000 N 
ATOM     13  C   UNL     1       1.535   8.674  20.872  0.00  0.00    +0.000 C 
ATOM     14  C   UNL     1       0.150   8.412  21.468  0.00  0.00    +0.000 C 
ATOM     15  O   UNL     1      -0.618   9.629  21.517  0.00  0.00    +0.000 OA
ATOM     16  C   UNL     1      -0.788  10.181  20.199  0.00  0.00    +0.000 C 
ATOM     17  C   UNL     1       0.561  10.465  19.525  0.00  0.00    +0.000 C 
ENDBRANCH   7  10
BRANCH   5  18
ATOM     18  C   UNL     1       6.538   4.914  17.048  0.00  0.00    +0.000 C 
BRANCH  18  19
ATOM     19  C   UNL     1       6.628   4.600  15.580  0.00  0.00    +0.000 A 
ATOM     20  C   UNL     1       5.988   3.662  14.794  0.00  0.00    +0.000 A 
ATOM     21  C   UNL     1       6.413   3.887  13.466  0.00  0.00    +0.000 A 
ATOM     22  C   UNL     1       7.319   4.923  13.519  0.00  0.00    +0.000 A 
ATOM     23  C   UNL     1       8.150   5.576  12.483  0.00  0.00    +0.000 C 
ATOM     24  O   UNL     1       7.445   5.375  14.802  0.00  0.00    +0.000 OA
ENDBRANCH  18  19
ENDBRANCH   5  18
TORSDOF 3
ENDMDL
MODEL 8
REMARK VINA RESULT:      -7.5      3.613      8.022
REMARK  Name = 
REMARK  5 active torsions:
REMARK  status: ('A' for Active; 'I' for Inactive)
REMARK    1  A    between atoms: C_1  and  C_2
REMARK    2  A    between atoms: N_5  and  C_6
REMARK    3  A    between atoms: C_6  and  C_7
REMARK    4  A    between atoms: C_10  and  C_11
REMARK    5  A    between atoms: C_14  and  C_15
REMARK                            x       y       z     vdW  Elec       q    Type
REMARK                         _______ _______ _______ _____ _____    ______ ____
ROOT
ATOM      1  C   UNL     1       2.157   3.557  21.763  0.00  0.00    +0.000 C 
ATOM      2  C   UNL     1       2.425   4.397  20.552  0.00  0.00    +0.000 A 
ATOM      3  N   UNL     1       2.058   5.699  20.571  0.00  0.00    +0.000 NA
ATOM      4  C   UNL     1       2.278   6.422  19.459  0.00  0.00    +0.000 A 
ATOM      5  N   UNL     1       2.103   7.806  19.432  0.00  0.00    +0.000 N 
ATOM      6  C   UNL     1       2.833   5.846  18.338  0.00  0.00    +0.000 A 
ATOM      7  C   UNL     1       3.196   4.522  18.418  0.00  0.00    +0.000 A 
ATOM      8  N   UNL     1       3.010   3.777  19.520  0.00  0.00    +0.000 NA
ATOM      9  H   UNL     1       1.767   8.130  18.530  0.00  0.00    +0.000 HD
ENDROOT
BRANCH   7  10
ATOM     10  C   UNL     1       3.977   3.938  17.274  0.00  0.00    +0.000 C 
ATOM     11  O   UNL     1       3.379   3.154  16.530  0.00  0.00    +0.000 OA
ATOM     12  N   UNL     1       5.300   4.294  17.017  0.00  0.00    +0.000 N 
ATOM     13  C   UNL     1       6.237   4.967  17.915  0.00  0.00    +0.000 C 
ATOM     14  C   UNL     1       6.858   6.170  17.201  0.00  0.00    +0.000 C 
ATOM     15  O   UNL     1       7.514   5.754  15.988  0.00  0.00    +0.000 OA
ATOM     16  C   UNL     1       6.580   5.126  15.091  0.00  0.00    +0.000 C 
ATOM     17  C   UNL     1       5.903   3.910  15.737  0.00  0.00    +0.000 C 
ENDBRANCH   7  10
BRANCH   5  18
ATOM     18  C   UNL     1       1.404   8.475  20.522  0.00  0.00    +0.000 C 
BRANCH  18  19
ATOM     19  C   UNL     1       0.678   9.695  20.027  0.00  0.00    +0.000 A 
ATOM     20  C   UNL     1      -0.662  10.030  20.006  0.00  0.00    +0.000 A 
ATOM     21  C   UNL     1      -0.745  11.343  19.493  0.00  0.00    +0.000 A 
ATOM     22  C   UNL     1       0.543  11.724  19.190  0.00  0.00    +0.000 A 
ATOM     23  C   UNL     1       1.104  12.947  18.576  0.00  0.00    +0.000 C 
ATOM     24  O   UNL     1       1.420  10.732  19.528  0.00  0.00    +0.000 OA
ENDBRANCH  18  19
ENDBRANCH   5  18
TORSDOF 3
ENDMDL
MODEL 9
REMARK VINA RESULT:      -7.4      1.744      2.096
REMARK  Name = 
REMARK  5 active torsions:
REMARK  status: ('A' for Active; 'I' for Inactive)
REMARK    1  A    between atoms: C_1  and  C_2
REMARK    2  A    between atoms: N_5  and  C_6
REMARK    3  A    between atoms: C_6  and  C_7
REMARK    4  A    between atoms: C_10  and  C_11
REMARK    5  A    between atoms: C_14  and  C_15
REMARK                            x       y       z     vdW  Elec       q    Type
REMARK                         _______ _______ _______ _____ _____    ______ ____
ROOT
ATOM      1  C   UNL     1       4.011   7.362  17.006  0.00  0.00    +0.000 C 
ATOM      2  C   UNL     1       4.473   5.938  17.054  0.00  0.00    +0.000 A 
ATOM      3  N   UNL     1       5.130   5.431  15.985  0.00  0.00    +0.000 NA
ATOM      4  C   UNL     1       5.501   4.140  16.041  0.00  0.00    +0.000 A 
ATOM      5  N   UNL     1       6.334   3.570  15.077  0.00  0.00    +0.000 N 
ATOM      6  C   UNL     1       5.198   3.362  17.136  0.00  0.00    +0.000 A 
ATOM      7  C   UNL     1       4.548   3.968  18.185  0.00  0.00    +0.000 A 
ATOM      8  N   UNL     1       4.182   5.261  18.172  0.00  0.00    +0.000 NA
ATOM      9  H   UNL     1       6.105   2.596  14.904  0.00  0.00    +0.000 HD
ENDROOT
BRANCH   7  10
ATOM     10  C   UNL     1       4.387   3.184  19.458  0.00  0.00    +0.000 C 
ATOM     11  O   UNL     1       5.412   2.963  20.112  0.00  0.00    +0.000 OA
ATOM     12  N   UNL     1       3.143   2.763  19.921  0.00  0.00    +0.000 N 
ATOM     13  C   UNL     1       1.888   2.684  19.173  0.00  0.00    +0.000 C 
ATOM     14  C   UNL     1       0.783   3.404  19.948  0.00  0.00    +0.000 C 
ATOM     15  O   UNL     1       0.636   2.837  21.264  0.00  0.00    +0.000 OA
ATOM     16  C   UNL     1       1.861   2.950  22.010  0.00  0.00    +0.000 C 
ATOM     17  C   UNL     1       3.028   2.259  21.293  0.00  0.00    +0.000 C 
ENDBRANCH   7  10
BRANCH   5  18
ATOM     18  C   UNL     1       6.596   4.275  13.829  0.00  0.00    +0.000 C 
BRANCH  18  19
ATOM     19  C   UNL     1       6.029   3.523  12.657  0.00  0.00    +0.000 A 
ATOM     20  C   UNL     1       6.541   2.505  11.876  0.00  0.00    +0.000 A 
ATOM     21  C   UNL     1       5.523   2.139  10.968  0.00  0.00    +0.000 A 
ATOM     22  C   UNL     1       4.460   2.979  11.216  0.00  0.00    +0.000 A 
ATOM     23  C   UNL     1       3.139   3.135  10.570  0.00  0.00    +0.000 C 
ATOM     24  O   UNL     1       4.754   3.816  12.256  0.00  0.00    +0.000 OA
ENDBRANCH  18  19
ENDBRANCH   5  18
TORSDOF 3
ENDMDL
