MODEL 1
REMARK VINA RESULT:      -8.2      0.000      0.000
REMARK  Name = 
REMARK  9 active torsions:
REMARK  status: ('A' for Active; 'I' for Inactive)
REMARK    1  A    between atoms: C_1  and  O_2
REMARK    2  A    between atoms: O_2  and  C_3
REMARK    3  A    between atoms: C_6  and  C_7
REMARK    4  A    between atoms: C_8  and  C_9
REMARK    5  A    between atoms: C_9  and  C_11
REMARK    6  A    between atoms: C_14  and  O_15
REMARK    7  A    between atoms: O_15  and  S_16
REMARK    8  A    between atoms: S_16  and  C_19
REMARK    9  A    between atoms: C_22  and  C_23
REMARK                            x       y       z     vdW  Elec       q    Type
REMARK                         _______ _______ _______ _____ _____    ______ ____
ROOT
ATOM      1  C   UNL     1       6.287   5.535  17.662  0.00  0.00    +0.000 A 
ATOM      2  C   UNL     1       5.573   4.638  16.857  0.00  0.00    +0.000 A 
ATOM      3  C   UNL     1       4.687   3.720  17.434  0.00  0.00    +0.000 A 
ATOM      4  C   UNL     1       4.523   3.669  18.821  0.00  0.00    +0.000 A 
ATOM      5  C   UNL     1       5.235   4.559  19.627  0.00  0.00    +0.000 A 
ATOM      6  C   UNL     1       6.122   5.482  19.051  0.00  0.00    +0.000 A 
ENDROOT
BRANCH   1   7
ATOM      7  C   UNL     1       7.233   6.526  17.075  0.00  0.00    +0.000 C 
ATOM      8  O   UNL     1       7.754   6.331  15.985  0.00  0.00    +0.000 OA
BRANCH   7  10
ATOM      9  C   UNL     1       8.304   8.728  17.431  0.00  0.00    +0.000 C 
ATOM     10  C   UNL     1       7.543   7.730  17.905  0.00  0.00    +0.000 C 
BRANCH   9  14
ATOM     11  C   UNL     1       9.386  12.242  19.660  0.00  0.00    +0.000 A 
ATOM     12  C   UNL     1       8.886  12.336  18.362  0.00  0.00    +0.000 A 
ATOM     13  C   UNL     1       8.515  11.186  17.655  0.00  0.00    +0.000 A 
ATOM     14  C   UNL     1       8.672   9.917  18.222  0.00  0.00    +0.000 A 
ATOM     15  C   UNL     1       9.159   9.833  19.535  0.00  0.00    +0.000 A 
ATOM     16  C   UNL     1       9.523  10.985  20.245  0.00  0.00    +0.000 A 
BRANCH  11  18
ATOM     17  C   UNL     1      10.974  13.987  19.805  0.00  0.00    +0.000 C 
ATOM     18  O   UNL     1       9.741  13.427  20.243  0.00  0.00    +0.000 OA
ENDBRANCH  11  18
ENDBRANCH   9  14
ENDBRANCH   7  10
ENDBRANCH   1   7
BRANCH   4  19
ATOM     19  O   UNL     1       3.620   2.741  19.284  0.00  0.00    +0.000 OA
BRANCH  19  20
ATOM     20  S   UNL     1       2.078   3.158  19.640  0.00  0.00    +0.000 S 
ATOM     21  O   UNL     1       1.197   2.530  18.673  0.00  0.00    +0.000 OA
ATOM     22  O   UNL     1       1.859   2.999  21.067  0.00  0.00    +0.000 OA
BRANCH  20  23
ATOM     23  C   UNL     1       2.026   4.916  19.337  0.00  0.00    +0.000 A 
ATOM     24  C   UNL     1       2.006   5.816  20.404  0.00  0.00    +0.000 A 
ATOM     25  C   UNL     1       2.005   7.191  20.147  0.00  0.00    +0.000 A 
ATOM     26  C   UNL     1       2.027   7.668  18.830  0.00  0.00    +0.000 A 
ATOM     27  C   UNL     1       2.024   9.142  18.540  0.00  0.00    +0.000 C 
ATOM     28  C   UNL     1       2.065   6.751  17.769  0.00  0.00    +0.000 A 
ATOM     29  C   UNL     1       2.065   5.376  18.017  0.00  0.00    +0.000 A 
ENDBRANCH  20  23
ENDBRANCH  19  20
ENDBRANCH   4  19
TORSDOF 7
ENDMDL
MODEL 2
REMARK VINA RESULT:      -8.2      4.687      8.450
REMARK  Name = 
REMARK  9 active torsions:
REMARK  status: ('A' for Active; 'I' for Inactive)
REMARK    1  A    between atoms: C_1  and  O_2
REMARK    2  A    between atoms: O_2  and  C_3
REMARK    3  A    between atoms: C_6  and  C_7
REMARK    4  A    between atoms: C_8  and  C_9
REMARK    5  A    between atoms: C_9  and  C_11
REMARK    6  A    between atoms: C_14  and  O_15
REMARK    7  A    between atoms: O_15  and  S_16
REMARK    8  A    between atoms: S_16  and  C_19
REMARK    9  A    between atoms: C_22  and  C_23
REMARK                            x       y       z     vdW  Elec       q    Type
REMARK                         _______ _______ _______ _____ _____    ______ ____
ROOT
ATOM      1  C   UNL     1       1.835   8.734  18.949  0.00  0.00    +0.000 A 
ATOM      2  C   UNL     1       2.443   8.169  17.820  0.00  0.00    +0.000 A 
ATOM      3  C   UNL     1       2.906   6.849  17.853  0.00  0.00    +0.000 A 
ATOM      4  C   UNL     1       2.794   6.086  19.018  0.00  0.00    +0.000 A 
ATOM      5  C   UNL     1       2.192   6.646  20.147  0.00  0.00    +0.000 A 
ATOM      6  C   UNL     1       1.724   7.969  20.116  0.00  0.00    +0.000 A 
ENDROOT
BRANCH   1   7
ATOM      7  C   UNL     1       1.327  10.135  18.943  0.00  0.00    +0.000 C 
ATOM      8  O   UNL     1       1.868  10.999  18.265  0.00  0.00    +0.000 OA
BRANCH   7  10
ATOM      9  C   UNL     1      -0.440  11.629  19.820  0.00  0.00    +0.000 C 
ATOM     10  C   UNL     1       0.167  10.433  19.837  0.00  0.00    +0.000 C 
BRANCH   9  14
ATOM     11  C   UNL     1      -3.672  12.615  22.479  0.00  0.00    +0.000 A 
ATOM     12  C   UNL     1      -2.464  12.117  22.965  0.00  0.00    +0.000 A 
ATOM     13  C   UNL     1      -1.410  11.821  22.091  0.00  0.00    +0.000 A 
ATOM     14  C   UNL     1      -1.561  11.986  20.709  0.00  0.00    +0.000 A 
ATOM     15  C   UNL     1      -2.773  12.504  20.232  0.00  0.00    +0.000 A 
ATOM     16  C   UNL     1      -3.824  12.806  21.108  0.00  0.00    +0.000 A 
BRANCH  11  18
ATOM     17  C   UNL     1      -4.318  12.432  24.745  0.00  0.00    +0.000 C 
ATOM     18  O   UNL     1      -4.638  12.841  23.420  0.00  0.00    +0.000 OA
ENDBRANCH  11  18
ENDBRANCH   9  14
ENDBRANCH   7  10
ENDBRANCH   1   7
BRANCH   4  19
ATOM     19  O   UNL     1       3.269   4.798  18.940  0.00  0.00    +0.000 OA
BRANCH  19  20
ATOM     20  S   UNL     1       4.864   4.467  19.100  0.00  0.00    +0.000 S 
ATOM     21  O   UNL     1       5.494   5.572  19.800  0.00  0.00    +0.000 OA
ATOM     22  O   UNL     1       5.022   3.099  19.561  0.00  0.00    +0.000 OA
BRANCH  20  23
ATOM     23  C   UNL     1       5.478   4.487  17.425  0.00  0.00    +0.000 A 
ATOM     24  C   UNL     1       6.763   4.958  17.149  0.00  0.00    +0.000 A 
ATOM     25  C   UNL     1       7.241   4.929  15.835  0.00  0.00    +0.000 A 
ATOM     26  C   UNL     1       6.442   4.431  14.798  0.00  0.00    +0.000 A 
ATOM     27  C   UNL     1       6.942   4.397  13.382  0.00  0.00    +0.000 C 
ATOM     28  C   UNL     1       5.159   3.946  15.094  0.00  0.00    +0.000 A 
ATOM     29  C   UNL     1       4.673   3.971  16.404  0.00  0.00    +0.000 A 
ENDBRANCH  20  23
ENDBRANCH  19  20
ENDBRANCH   4  19
TORSDOF 7
ENDMDL
MODEL 3
REMARK VINA RESULT:      -8.0      4.362      8.801
REMARK  Name = 
REMARK  9 active torsions:
REMARK  status: ('A' for Active; 'I' for Inactive)
REMARK    1  A    between atoms: C_1  and  O_2
REMARK    2  A    between atoms: O_2  and  C_3
REMARK    3  A    between atoms: C_6  and  C_7
REMARK    4  A    between atoms: C_8  and  C_9
REMARK    5  A    between atoms: C_9  and  C_11
REMARK    6  A    between atoms: C_14  and  O_15
REMARK    7  A    between atoms: O_15  and  S_16
REMARK    8  A    between atoms: S_16  and  C_19
REMARK    9  A    between atoms: C_22  and  C_23
REMARK                            x       y       z     vdW  Elec       q    Type
REMARK                         _______ _______ _______ _____ _____    ______ ____
ROOT
ATOM      1  C   UNL     1       1.426   8.474  20.178  0.00  0.00    +0.000 A 
ATOM      2  C   UNL     1       1.353   7.267  20.886  0.00  0.00    +0.000 A 
ATOM      3  C   UNL     1       1.888   6.094  20.340  0.00  0.00    +0.000 A 
ATOM      4  C   UNL     1       2.476   6.105  19.073  0.00  0.00    +0.000 A 
ATOM      5  C   UNL     1       2.548   7.305  18.363  0.00  0.00    +0.000 A 
ATOM      6  C   UNL     1       2.015   8.483  18.909  0.00  0.00    +0.000 A 
ENDROOT
BRANCH   1   7
ATOM      7  C   UNL     1       0.871   9.740  20.736  0.00  0.00    +0.000 C 
ATOM      8  O   UNL     1       1.419  10.311  21.669  0.00  0.00    +0.000 OA
BRANCH   7  10
ATOM      9  C   UNL     1      -0.719   9.978  18.855  0.00  0.00    +0.000 C 
ATOM     10  C   UNL     1      -0.402  10.238  20.132  0.00  0.00    +0.000 C 
BRANCH   9  14
ATOM     11  C   UNL     1      -4.317  11.463  17.029  0.00  0.00    +0.000 A 
ATOM     12  C   UNL     1      -3.943  11.858  18.313  0.00  0.00    +0.000 A 
ATOM     13  C   UNL     1      -2.757  11.385  18.888  0.00  0.00    +0.000 A 
ATOM     14  C   UNL     1      -1.941  10.480  18.200  0.00  0.00    +0.000 A 
ATOM     15  C   UNL     1      -2.317  10.103  16.903  0.00  0.00    +0.000 A 
ATOM     16  C   UNL     1      -3.500  10.582  16.325  0.00  0.00    +0.000 A 
BRANCH  11  18
ATOM     17  C   UNL     1      -6.215  12.791  17.500  0.00  0.00    +0.000 C 
ATOM     18  O   UNL     1      -5.508  11.965  16.582  0.00  0.00    +0.000 OA
ENDBRANCH  11  18
ENDBRANCH   9  14
ENDBRANCH   7  10
ENDBRANCH   1   7
BRANCH   4  19
ATOM     19  O   UNL     1       2.981   4.903  18.635  0.00  0.00    +0.000 OA
BRANCH  19  20
ATOM     20  S   UNL     1       4.516   4.449  18.977  0.00  0.00    +0.000 S 
ATOM     21  O   UNL     1       5.103   5.442  19.857  0.00  0.00    +0.000 OA
ATOM     22  O   UNL     1       4.530   3.039  19.321  0.00  0.00    +0.000 OA
BRANCH  20  23
ATOM     23  C   UNL     1       5.359   4.572  17.409  0.00  0.00    +0.000 A 
ATOM     24  C   UNL     1       4.979   3.760  16.337  0.00  0.00    +0.000 A 
ATOM     25  C   UNL     1       5.625   3.898  15.104  0.00  0.00    +0.000 A 
ATOM     26  C   UNL     1       6.645   4.842  14.938  0.00  0.00    +0.000 A 
ATOM     27  C   UNL     1       7.349   4.998  13.620  0.00  0.00    +0.000 C 
ATOM     28  C   UNL     1       7.004   5.661  16.019  0.00  0.00    +0.000 A 
ATOM     29  C   UNL     1       6.365   5.531  17.254  0.00  0.00    +0.000 A 
ENDBRANCH  20  23
ENDBRANCH  19  20
ENDBRANCH   4  19
TORSDOF 7
ENDMDL
MODEL 4
REMARK VINA RESULT:      -8.0      4.555      8.217
REMARK  Name = 
REMARK  9 active torsions:
REMARK  status: ('A' for Active; 'I' for Inactive)
REMARK    1  A    between atoms: C_1  and  O_2
REMARK    2  A    between atoms: O_2  and  C_3
REMARK    3  A    between atoms: C_6  and  C_7
REMARK    4  A    between atoms: C_8  and  C_9
REMARK    5  A    between atoms: C_9  and  C_11
REMARK    6  A    between atoms: C_14  and  O_15
REMARK    7  A    between atoms: O_15  and  S_16
REMARK    8  A    between atoms: S_16  and  C_19
REMARK    9  A    between atoms: C_22  and  C_23
REMARK                            x       y       z     vdW  Elec       q    Type
REMARK                         _______ _______ _______ _____ _____    ______ ____
ROOT
ATOM      1  C   UNL     1       2.008   8.781  18.685  0.00  0.00    +0.000 A 
ATOM      2  C   UNL     1       2.687   8.181  17.617  0.00  0.00    +0.000 A 
ATOM      3  C   UNL     1       3.122   6.853  17.712  0.00  0.00    +0.000 A 
ATOM      4  C   UNL     1       2.910   6.119  18.881  0.00  0.00    +0.000 A 
ATOM      5  C   UNL     1       2.236   6.715  19.950  0.00  0.00    +0.000 A 
ATOM      6  C   UNL     1       1.796   8.044  19.856  0.00  0.00    +0.000 A 
ENDROOT
BRANCH   1   7
ATOM      7  C   UNL     1       1.528  10.190  18.611  0.00  0.00    +0.000 C 
ATOM      8  O   UNL     1       2.158  11.039  17.994  0.00  0.00    +0.000 OA
BRANCH   7  10
ATOM      9  C   UNL     1       0.295  11.331  20.427  0.00  0.00    +0.000 C 
ATOM     10  C   UNL     1       0.278  10.514  19.364  0.00  0.00    +0.000 C 
BRANCH   9  14
ATOM     11  C   UNL     1      -3.219  12.322  22.699  0.00  0.00    +0.000 A 
ATOM     12  C   UNL     1      -3.130  12.622  21.340  0.00  0.00    +0.000 A 
ATOM     13  C   UNL     1      -1.990  12.273  20.606  0.00  0.00    +0.000 A 
ATOM     14  C   UNL     1      -0.902  11.650  21.228  0.00  0.00    +0.000 A 
ATOM     15  C   UNL     1      -1.009  11.337  22.591  0.00  0.00    +0.000 A 
ATOM     16  C   UNL     1      -2.153  11.679  23.323  0.00  0.00    +0.000 A 
BRANCH  11  18
ATOM     17  C   UNL     1      -4.901  13.974  22.870  0.00  0.00    +0.000 C 
ATOM     18  O   UNL     1      -4.366  12.734  23.319  0.00  0.00    +0.000 OA
ENDBRANCH  11  18
ENDBRANCH   9  14
ENDBRANCH   7  10
ENDBRANCH   1   7
BRANCH   4  19
ATOM     19  O   UNL     1       3.364   4.822  18.866  0.00  0.00    +0.000 OA
BRANCH  19  20
ATOM     20  S   UNL     1       4.957   4.476  19.021  0.00  0.00    +0.000 S 
ATOM     21  O   UNL     1       5.594   5.560  19.744  0.00  0.00    +0.000 OA
ATOM     22  O   UNL     1       5.104   3.097  19.453  0.00  0.00    +0.000 OA
BRANCH  20  23
ATOM     23  C   UNL     1       5.573   4.526  17.347  0.00  0.00    +0.000 A 
ATOM     24  C   UNL     1       6.813   5.105  17.068  0.00  0.00    +0.000 A 
ATOM     25  C   UNL     1       7.297   5.100  15.755  0.00  0.00    +0.000 A 
ATOM     26  C   UNL     1       6.548   4.519  14.724  0.00  0.00    +0.000 A 
ATOM     27  C   UNL     1       7.054   4.510  13.310  0.00  0.00    +0.000 C 
ATOM     28  C   UNL     1       5.312   3.927  15.023  0.00  0.00    +0.000 A 
ATOM     29  C   UNL     1       4.821   3.927  16.331  0.00  0.00    +0.000 A 
ENDBRANCH  20  23
ENDBRANCH  19  20
ENDBRANCH   4  19
TORSDOF 7
ENDMDL
MODEL 5
REMARK VINA RESULT:      -7.9      0.472      1.352
REMARK  Name = 
REMARK  9 active torsions:
REMARK  status: ('A' for Active; 'I' for Inactive)
REMARK    1  A    between atoms: C_1  and  O_2
REMARK    2  A    between atoms: O_2  and  C_3
REMARK    3  A    between atoms: C_6  and  C_7
REMARK    4  A    between atoms: C_8  and  C_9
REMARK    5  A    between atoms: C_9  and  C_11
REMARK    6  A    between atoms: C_14  and  O_15
REMARK    7  A    between atoms: O_15  and  S_16
REMARK    8  A    between atoms: S_16  and  C_19
REMARK    9  A    between atoms: C_22  and  C_23
REMARK                            x       y       z     vdW  Elec       q    Type
REMARK                         _______ _______ _______ _____ _____    ______ ____
ROOT
ATOM      1  C   UNL     1       6.393   5.632  17.590  0.00  0.00    +0.000 A 
ATOM      2  C   UNL     1       5.657   4.781  16.756  0.00  0.00    +0.000 A 
ATOM      3  C   UNL     1       4.771   3.846  17.305  0.00  0.00    +0.000 A 
ATOM      4  C   UNL     1       4.629   3.731  18.689  0.00  0.00    +0.000 A 
ATOM      5  C   UNL     1       5.363   4.576  19.525  0.00  0.00    +0.000 A 
ATOM      6  C   UNL     1       6.250   5.516  18.978  0.00  0.00    +0.000 A 
ENDROOT
BRANCH   1   7
ATOM      7  C   UNL     1       7.340   6.641  17.035  0.00  0.00    +0.000 C 
ATOM      8  O   UNL     1       7.879   6.469  15.950  0.00  0.00    +0.000 OA
BRANCH   7  10
ATOM      9  C   UNL     1       8.373   8.852  17.438  0.00  0.00    +0.000 C 
ATOM     10  C   UNL     1       7.627   7.833  17.889  0.00  0.00    +0.000 C 
BRANCH   9  14
ATOM     11  C   UNL     1       9.374  12.238  19.893  0.00  0.00    +0.000 A 
ATOM     12  C   UNL     1       9.518  10.935  20.367  0.00  0.00    +0.000 A 
ATOM     13  C   UNL     1       9.211   9.840  19.550  0.00  0.00    +0.000 A 
ATOM     14  C   UNL     1       8.719  10.031  18.254  0.00  0.00    +0.000 A 
ATOM     15  C   UNL     1       8.594  11.345  17.780  0.00  0.00    +0.000 A 
ATOM     16  C   UNL     1       8.909  12.441  18.595  0.00  0.00    +0.000 A 
BRANCH  11  18
ATOM     17  C   UNL     1       8.913  14.423  20.670  0.00  0.00    +0.000 C 
ATOM     18  O   UNL     1       9.677  13.228  20.786  0.00  0.00    +0.000 OA
ENDBRANCH  11  18
ENDBRANCH   9  14
ENDBRANCH   7  10
ENDBRANCH   1   7
BRANCH   4  19
ATOM     19  O   UNL     1       3.724   2.791  19.124  0.00  0.00    +0.000 OA
BRANCH  19  20
ATOM     20  S   UNL     1       2.259   3.227  19.710  0.00  0.00    +0.000 S 
ATOM     21  O   UNL     1       1.234   2.577  18.914  0.00  0.00    +0.000 OA
ATOM     22  O   UNL     1       2.271   3.110  21.157  0.00  0.00    +0.000 OA
BRANCH  20  23
ATOM     23  C   UNL     1       2.162   4.976  19.368  0.00  0.00    +0.000 A 
ATOM     24  C   UNL     1       2.121   5.436  18.050  0.00  0.00    +0.000 A 
ATOM     25  C   UNL     1       2.006   6.808  17.801  0.00  0.00    +0.000 A 
ATOM     26  C   UNL     1       1.929   7.718  18.863  0.00  0.00    +0.000 A 
ATOM     27  C   UNL     1       1.808   9.194  18.610  0.00  0.00    +0.000 C 
ATOM     28  C   UNL     1       1.955   7.239  20.181  0.00  0.00    +0.000 A 
ATOM     29  C   UNL     1       2.070   5.870  20.438  0.00  0.00    +0.000 A 
ENDBRANCH  20  23
ENDBRANCH  19  20
ENDBRANCH   4  19
TORSDOF 7
ENDMDL
MODEL 6
REMARK VINA RESULT:      -7.9      4.569      8.828
REMARK  Name = 
REMARK  9 active torsions:
REMARK  status: ('A' for Active; 'I' for Inactive)
REMARK    1  A    between atoms: C_1  and  O_2
REMARK    2  A    between atoms: O_2  and  C_3
REMARK    3  A    between atoms: C_6  and  C_7
REMARK    4  A    between atoms: C_8  and  C_9
REMARK    5  A    between atoms: C_9  and  C_11
REMARK    6  A    between atoms: C_14  and  O_15
REMARK    7  A    between atoms: O_15  and  S_16
REMARK    8  A    between atoms: S_16  and  C_19
REMARK    9  A    between atoms: C_22  and  C_23
REMARK                            x       y       z     vdW  Elec       q    Type
REMARK                         _______ _______ _______ _____ _____    ______ ____
ROOT
ATOM      1  C   UNL     1       1.616   9.097  19.043  0.00  0.00    +0.000 A 
ATOM      2  C   UNL     1       1.274   8.666  20.332  0.00  0.00    +0.000 A 
ATOM      3  C   UNL     1       1.637   7.386  20.769  0.00  0.00    +0.000 A 
ATOM      4  C   UNL     1       2.321   6.514  19.919  0.00  0.00    +0.000 A 
ATOM      5  C   UNL     1       2.661   6.938  18.633  0.00  0.00    +0.000 A 
ATOM      6  C   UNL     1       2.301   8.221  18.193  0.00  0.00    +0.000 A 
ENDROOT
BRANCH   1   7
ATOM      7  C   UNL     1       1.248  10.455  18.552  0.00  0.00    +0.000 C 
ATOM      8  O   UNL     1       2.084  11.189  18.044  0.00  0.00    +0.000 OA
BRANCH   7  10
ATOM      9  C   UNL     1      -1.157  10.430  17.970  0.00  0.00    +0.000 C 
ATOM     10  C   UNL     1      -0.170  10.881  18.758  0.00  0.00    +0.000 C 
BRANCH   9  14
ATOM     11  C   UNL     1      -5.276  11.626  18.279  0.00  0.00    +0.000 A 
ATOM     12  C   UNL     1      -4.874  10.647  17.371  0.00  0.00    +0.000 A 
ATOM     13  C   UNL     1      -3.534  10.249  17.295  0.00  0.00    +0.000 A 
ATOM     14  C   UNL     1      -2.564  10.851  18.105  0.00  0.00    +0.000 A 
ATOM     15  C   UNL     1      -2.980  11.822  19.027  0.00  0.00    +0.000 A 
ATOM     16  C   UNL     1      -4.322  12.215  19.107  0.00  0.00    +0.000 A 
BRANCH  11  18
ATOM     17  C   UNL     1      -7.138  12.493  19.449  0.00  0.00    +0.000 C 
ATOM     18  O   UNL     1      -6.603  11.954  18.245  0.00  0.00    +0.000 OA
ENDBRANCH  11  18
ENDBRANCH   9  14
ENDBRANCH   7  10
ENDBRANCH   1   7
BRANCH   4  19
ATOM     19  O   UNL     1       2.641   5.286  20.450  0.00  0.00    +0.000 OA
BRANCH  19  20
ATOM     20  S   UNL     1       2.629   3.931  19.532  0.00  0.00    +0.000 S 
ATOM     21  O   UNL     1       2.974   2.802  20.375  0.00  0.00    +0.000 OA
ATOM     22  O   UNL     1       1.428   3.920  18.716  0.00  0.00    +0.000 OA
BRANCH  20  23
ATOM     23  C   UNL     1       3.983   4.172  18.394  0.00  0.00    +0.000 A 
ATOM     24  C   UNL     1       5.256   4.495  18.870  0.00  0.00    +0.000 A 
ATOM     25  C   UNL     1       6.314   4.641  17.966  0.00  0.00    +0.000 A 
ATOM     26  C   UNL     1       6.104   4.465  16.592  0.00  0.00    +0.000 A 
ATOM     27  C   UNL     1       7.230   4.623  15.611  0.00  0.00    +0.000 C 
ATOM     28  C   UNL     1       4.824   4.125  16.132  0.00  0.00    +0.000 A 
ATOM     29  C   UNL     1       3.761   3.977  17.028  0.00  0.00    +0.000 A 
ENDBRANCH  20  23
ENDBRANCH  19  20
ENDBRANCH   4  19
TORSDOF 7
ENDMDL
MODEL 7
REMARK VINA RESULT:      -7.9      3.998      7.497
REMARK  Name = 
REMARK  9 active torsions:
REMARK  status: ('A' for Active; 'I' for Inactive)
REMARK    1  A    between atoms: C_1  and  O_2
REMARK    2  A    between atoms: O_2  and  C_3
REMARK    3  A    between atoms: C_6  and  C_7
REMARK    4  A    between atoms: C_8  and  C_9
REMARK    5  A    between atoms: C_9  and  C_11
REMARK    6  A    between atoms: C_14  and  O_15
REMARK    7  A    between atoms: O_15  and  S_16
REMARK    8  A    between atoms: S_16  and  C_19
REMARK    9  A    between atoms: C_22  and  C_23
REMARK                            x       y       z     vdW  Elec       q    Type
REMARK                         _______ _______ _______ _____ _____    ______ ____
ROOT
ATOM      1  C   UNL     1       2.005   7.533  18.771  0.00  0.00    +0.000 A 
ATOM      2  C   UNL     1       2.215   7.047  20.068  0.00  0.00    +0.000 A 
ATOM      3  C   UNL     1       2.453   5.684  20.283  0.00  0.00    +0.000 A 
ATOM      4  C   UNL     1       2.458   4.788  19.213  0.00  0.00    +0.000 A 
ATOM      5  C   UNL     1       2.246   5.266  17.918  0.00  0.00    +0.000 A 
ATOM      6  C   UNL     1       2.010   6.632  17.699  0.00  0.00    +0.000 A 
ENDROOT
BRANCH   1   7
ATOM      7  C   UNL     1       1.755   8.979  18.510  0.00  0.00    +0.000 C 
ATOM      8  O   UNL     1       2.081   9.493  17.448  0.00  0.00    +0.000 OA
BRANCH   7  10
ATOM      9  C   UNL     1      -0.166  10.075  19.618  0.00  0.00    +0.000 C 
ATOM     10  C   UNL     1       1.138   9.764  19.622  0.00  0.00    +0.000 C 
BRANCH   9  14
ATOM     11  C   UNL     1      -2.069  12.494  22.621  0.00  0.00    +0.000 A 
ATOM     12  C   UNL     1      -2.290  12.723  21.263  0.00  0.00    +0.000 A 
ATOM     13  C   UNL     1      -1.683  11.914  20.295  0.00  0.00    +0.000 A 
ATOM     14  C   UNL     1      -0.814  10.882  20.669  0.00  0.00    +0.000 A 
ATOM     15  C   UNL     1      -0.612  10.649  22.037  0.00  0.00    +0.000 A 
ATOM     16  C   UNL     1      -1.226  11.454  23.006  0.00  0.00    +0.000 A 
BRANCH  11  18
ATOM     17  C   UNL     1      -3.841  12.857  24.143  0.00  0.00    +0.000 C 
ATOM     18  O   UNL     1      -2.691  13.363  23.474  0.00  0.00    +0.000 OA
ENDBRANCH  11  18
ENDBRANCH   9  14
ENDBRANCH   7  10
ENDBRANCH   1   7
BRANCH   4  19
ATOM     19  O   UNL     1       2.714   3.474  19.531  0.00  0.00    +0.000 OA
BRANCH  19  20
ATOM     20  S   UNL     1       4.055   2.711  18.985  0.00  0.00    +0.000 S 
ATOM     21  O   UNL     1       4.704   2.062  20.108  0.00  0.00    +0.000 OA
ATOM     22  O   UNL     1       3.724   1.972  17.780  0.00  0.00    +0.000 OA
BRANCH  20  23
ATOM     23  C   UNL     1       5.121   4.042  18.457  0.00  0.00    +0.000 A 
ATOM     24  C   UNL     1       5.220   4.373  17.104  0.00  0.00    +0.000 A 
ATOM     25  C   UNL     1       6.030   5.444  16.714  0.00  0.00    +0.000 A 
ATOM     26  C   UNL     1       6.740   6.184  17.669  0.00  0.00    +0.000 A 
ATOM     27  C   UNL     1       7.616   7.334  17.262  0.00  0.00    +0.000 C 
ATOM     28  C   UNL     1       6.617   5.849  19.025  0.00  0.00    +0.000 A 
ATOM     29  C   UNL     1       5.810   4.780  19.424  0.00  0.00    +0.000 A 
ENDBRANCH  20  23
ENDBRANCH  19  20
ENDBRANCH   4  19
TORSDOF 7
ENDMDL
MODEL 8
REMARK VINA RESULT:      -7.8      4.042      8.200
REMARK  Name = 
REMARK  9 active torsions:
REMARK  status: ('A' for Active; 'I' for Inactive)
REMARK    1  A    between atoms: C_1  and  O_2
REMARK    2  A    between atoms: O_2  and  C_3
REMARK    3  A    between atoms: C_6  and  C_7
REMARK    4  A    between atoms: C_8  and  C_9
REMARK    5  A    between atoms: C_9  and  C_11
REMARK    6  A    between atoms: C_14  and  O_15
REMARK    7  A    between atoms: O_15  and  S_16
REMARK    8  A    between atoms: S_16  and  C_19
REMARK    9  A    between atoms: C_22  and  C_23
REMARK                            x       y       z     vdW  Elec       q    Type
REMARK                         _______ _______ _______ _____ _____    ______ ____
ROOT
ATOM      1  C   UNL     1       2.014   7.676  18.515  0.00  0.00    +0.000 A 
ATOM      2  C   UNL     1       1.972   6.658  17.553  0.00  0.00    +0.000 A 
ATOM      3  C   UNL     1       2.191   5.326  17.924  0.00  0.00    +0.000 A 
ATOM      4  C   UNL     1       2.481   4.997  19.250  0.00  0.00    +0.000 A 
ATOM      5  C   UNL     1       2.527   6.009  20.211  0.00  0.00    +0.000 A 
ATOM      6  C   UNL     1       2.305   7.345  19.843  0.00  0.00    +0.000 A 
ENDROOT
BRANCH   1   7
ATOM      7  C   UNL     1       1.779   9.102  18.151  0.00  0.00    +0.000 C 
ATOM      8  O   UNL     1       2.636   9.754  17.570  0.00  0.00    +0.000 OA
BRANCH   7  10
ATOM      9  C   UNL     1      -0.537   9.851  17.708  0.00  0.00    +0.000 C 
ATOM     10  C   UNL     1       0.475   9.696  18.574  0.00  0.00    +0.000 C 
BRANCH   9  14
ATOM     11  C   UNL     1      -4.337  11.618  18.672  0.00  0.00    +0.000 A 
ATOM     12  C   UNL     1      -4.241  10.560  17.769  0.00  0.00    +0.000 A 
ATOM     13  C   UNL     1      -3.001   9.977  17.481  0.00  0.00    +0.000 A 
ATOM     14  C   UNL     1      -1.828  10.468  18.065  0.00  0.00    +0.000 A 
ATOM     15  C   UNL     1      -1.937  11.521  18.985  0.00  0.00    +0.000 A 
ATOM     16  C   UNL     1      -3.179  12.099  19.279  0.00  0.00    +0.000 A 
BRANCH  11  18
ATOM     17  C   UNL     1      -6.541  11.236  19.436  0.00  0.00    +0.000 C 
ATOM     18  O   UNL     1      -5.594  12.125  18.855  0.00  0.00    +0.000 OA
ENDBRANCH  11  18
ENDBRANCH   9  14
ENDBRANCH   7  10
ENDBRANCH   1   7
BRANCH   4  19
ATOM     19  O   UNL     1       2.668   3.660  19.510  0.00  0.00    +0.000 OA
BRANCH  19  20
ATOM     20  S   UNL     1       4.004   2.869  18.991  0.00  0.00    +0.000 S 
ATOM     21  O   UNL     1       4.631   2.229  20.133  0.00  0.00    +0.000 OA
ATOM     22  O   UNL     1       3.676   2.116  17.794  0.00  0.00    +0.000 OA
BRANCH  20  23
ATOM     23  C   UNL     1       5.095   4.176  18.455  0.00  0.00    +0.000 A 
ATOM     24  C   UNL     1       5.159   4.534  17.107  0.00  0.00    +0.000 A 
ATOM     25  C   UNL     1       5.990   5.587  16.711  0.00  0.00    +0.000 A 
ATOM     26  C   UNL     1       6.755   6.282  17.656  0.00  0.00    +0.000 A 
ATOM     27  C   UNL     1       7.655   7.412  17.244  0.00  0.00    +0.000 C 
ATOM     28  C   UNL     1       6.668   5.921  19.008  0.00  0.00    +0.000 A 
ATOM     29  C   UNL     1       5.840   4.871  19.413  0.00  0.00    +0.000 A 
ENDBRANCH  20  23
ENDBRANCH  19  20
ENDBRANCH   4  19
TORSDOF 7
ENDMDL
MODEL 9
REMARK VINA RESULT:      -7.8      3.963      7.287
REMARK  Name = 
REMARK  9 active torsions:
REMARK  status: ('A' for Active; 'I' for Inactive)
REMARK    1  A    between atoms: C_1  and  O_2
REMARK    2  A    between atoms: O_2  and  C_3
REMARK    3  A    between atoms: C_6  and  C_7
REMARK    4  A    between atoms: C_8  and  C_9
REMARK    5  A    between atoms: C_9  and  C_11
REMARK    6  A    between atoms: C_14  and  O_15
REMARK    7  A    between atoms: O_15  and  S_16
REMARK    8  A    between atoms: S_16  and  C_19
REMARK    9  A    between atoms: C_22  and  C_23
REMARK                            x       y       z     vdW  Elec       q    Type
REMARK                         _______ _______ _______ _____ _____    ______ ____
ROOT
ATOM      1  C   UNL     1       1.963   7.504  18.767  0.00  0.00    +0.000 A 
ATOM      2  C   UNL     1       2.155   7.025  20.070  0.00  0.00    +0.000 A 
ATOM      3  C   UNL     1       2.379   5.662  20.296  0.00  0.00    +0.000 A 
ATOM      4  C   UNL     1       2.389   4.758  19.232  0.00  0.00    +0.000 A 
ATOM      5  C   UNL     1       2.195   5.230  17.932  0.00  0.00    +0.000 A 
ATOM      6  C   UNL     1       1.973   6.597  17.701  0.00  0.00    +0.000 A 
ENDROOT
BRANCH   1   7
ATOM      7  C   UNL     1       1.727   8.950  18.495  0.00  0.00    +0.000 C 
ATOM      8  O   UNL     1       2.044   9.449  17.423  0.00  0.00    +0.000 OA
BRANCH   7  10
ATOM      9  C   UNL     1      -0.161  10.092  19.613  0.00  0.00    +0.000 C 
ATOM     10  C   UNL     1       1.137   9.755  19.607  0.00  0.00    +0.000 C 
BRANCH   9  14
ATOM     11  C   UNL     1      -1.984  12.570  22.618  0.00  0.00    +0.000 A 
ATOM     12  C   UNL     1      -2.178  12.821  21.260  0.00  0.00    +0.000 A 
ATOM     13  C   UNL     1      -1.598  11.994  20.291  0.00  0.00    +0.000 A 
ATOM     14  C   UNL     1      -0.783  10.919  20.664  0.00  0.00    +0.000 A 
ATOM     15  C   UNL     1      -0.609  10.663  22.032  0.00  0.00    +0.000 A 
ATOM     16  C   UNL     1      -1.195  11.488  23.001  0.00  0.00    +0.000 A 
BRANCH  11  18
ATOM     17  C   UNL     1      -1.708  14.423  24.059  0.00  0.00    +0.000 C 
ATOM     18  O   UNL     1      -2.575  13.459  23.472  0.00  0.00    +0.000 OA
ENDBRANCH  11  18
ENDBRANCH   9  14
ENDBRANCH   7  10
ENDBRANCH   1   7
BRANCH   4  19
ATOM     19  O   UNL     1       2.630   3.445  19.561  0.00  0.00    +0.000 OA
BRANCH  19  20
ATOM     20  S   UNL     1       4.003   2.687  19.089  0.00  0.00    +0.000 S 
ATOM     21  O   UNL     1       4.636   2.112  20.261  0.00  0.00    +0.000 OA
ATOM     22  O   UNL     1       3.720   1.880  17.916  0.00  0.00    +0.000 OA
BRANCH  20  23
ATOM     23  C   UNL     1       5.052   4.014  18.521  0.00  0.00    +0.000 A 
ATOM     24  C   UNL     1       5.749   4.805  19.437  0.00  0.00    +0.000 A 
ATOM     25  C   UNL     1       6.598   5.815  18.971  0.00  0.00    +0.000 A 
ATOM     26  C   UNL     1       6.752   6.036  17.597  0.00  0.00    +0.000 A 
ATOM     27  C   UNL     1       7.658   7.119  17.084  0.00  0.00    +0.000 C 
ATOM     28  C   UNL     1       6.058   5.222  16.689  0.00  0.00    +0.000 A 
ATOM     29  C   UNL     1       5.209   4.211  17.145  0.00  0.00    +0.000 A 
ENDBRANCH  20  23
ENDBRANCH  19  20
ENDBRANCH   4  19
TORSDOF 7
ENDMDL
