MODEL 1
REMARK VINA RESULT:      -9.0      0.000      0.000
REMARK  Name = 
REMARK  9 active torsions:
REMARK  status: ('A' for Active; 'I' for Inactive)
REMARK    1  A    between atoms: C_1  and  C_2
REMARK    2  A    between atoms: C_2  and  C_3
REMARK    3  A    between atoms: C_2  and  C_4
REMARK    4  A    between atoms: C_2  and  C_5
REMARK    5  A    between atoms: N_12  and  C_13
REMARK    6  A    between atoms: C_13  and  C_14
REMARK    7  A    between atoms: C_16  and  C_17
REMARK    8  A    between atoms: C_17  and  O_18
REMARK    9  A    between atoms: C_19  and  C_20
REMARK                            x       y       z     vdW  Elec       q    Type
REMARK                         _______ _______ _______ _____ _____    ______ ____
ROOT
ATOM      1  C   UNL     1      -0.463  11.030  18.943  0.00  0.00    +0.000 A 
ATOM      2  C   UNL     1      -1.077  10.381  17.859  0.00  0.00    +0.000 A 
ATOM      3  C   UNL     1      -2.440  10.569  17.544  0.00  0.00    +0.000 A 
ATOM      4  C   UNL     1      -3.221  11.398  18.384  0.00  0.00    +0.000 A 
ATOM      5  C   UNL     1      -2.603  12.055  19.465  0.00  0.00    +0.000 A 
ATOM      6  C   UNL     1      -1.249  11.871  19.726  0.00  0.00    +0.000 A 
ATOM      7  F   UNL     1      -0.712  12.498  20.783  0.00  0.00    +0.000 F 
ENDROOT
BRANCH   4   8
ATOM      8  C   UNL     1      -4.678  11.603  18.225  0.00  0.00    +0.000 A 
ATOM      9  C   UNL     1      -5.261  12.316  17.101  0.00  0.00    +0.000 A 
ATOM     10  C   UNL     1      -6.566  12.585  17.075  0.00  0.00    +0.000 A 
ATOM     11  N   UNL     1      -7.381  12.185  18.102  0.00  0.00    +0.000 N 
ATOM     12  C   UNL     1      -6.932  11.488  19.196  0.00  0.00    +0.000 A 
ATOM     13  O   UNL     1      -7.679  11.135  20.104  0.00  0.00    +0.000 OA
ATOM     14  C   UNL     1      -5.479  11.197  19.235  0.00  0.00    +0.000 A 
ATOM     15  H   UNL     1      -8.372  12.401  18.089  0.00  0.00    +0.000 HD
ENDBRANCH   4   8
BRANCH   1  16
ATOM     16  C   UNL     1       0.970  10.761  19.354  0.00  0.00    +0.000 C 
BRANCH  16  24
ATOM     17  C   UNL     1       2.369   4.426  19.860  0.00  0.00    +0.000 A 
ATOM     18  C   UNL     1       2.796   4.898  18.603  0.00  0.00    +0.000 A 
ATOM     19  C   UNL     1       2.691   6.247  18.252  0.00  0.00    +0.000 A 
ATOM     20  F   UNL     1       3.113   6.611  17.034  0.00  0.00    +0.000 F 
ATOM     21  C   UNL     1       2.141   7.164  19.134  0.00  0.00    +0.000 A 
ATOM     22  C   UNL     1       2.048   8.600  18.826  0.00  0.00    +0.000 A 
ATOM     23  O   UNL     1       2.649   9.063  17.862  0.00  0.00    +0.000 OA
ATOM     24  N   UNL     1       1.254   9.360  19.685  0.00  0.00    +0.000 N 
ATOM     25  N   UNL     1       0.740   8.891  20.881  0.00  0.00    +0.000 NA
ATOM     26  C   UNL     1       0.954   7.654  21.201  0.00  0.00    +0.000 A 
ATOM     27  C   UNL     1       1.644   6.701  20.340  0.00  0.00    +0.000 A 
ATOM     28  C   UNL     1       1.764   5.358  20.721  0.00  0.00    +0.000 A 
BRANCH  17  30
ATOM     29  C   UNL     1       1.792   2.051  19.282  0.00  0.00    +0.000 C 
ATOM     30  C   UNL     1       2.591   2.954  20.249  0.00  0.00    +0.000 C 
ATOM     31  C   UNL     1       2.107   2.704  21.692  0.00  0.00    +0.000 C 
ATOM     32  C   UNL     1       4.070   2.513  20.175  0.00  0.00    +0.000 C 
ENDBRANCH  17  30
ENDBRANCH  16  24
ENDBRANCH   1  16
BRANCH   3  33
ATOM     33  C   UNL     1      -3.055   9.861  16.356  0.00  0.00    +0.000 C 
BRANCH  33  34
ATOM     34  O   UNL     1      -2.785  10.519  15.119  0.00  0.00    +0.000 OA
ATOM     35  H   UNL     1      -3.635  10.863  14.796  0.00  0.00    +0.000 HD
ENDBRANCH  33  34
ENDBRANCH   3  33
TORSDOF 6
ENDMDL
MODEL 2
REMARK VINA RESULT:      -8.8      0.828      1.371
REMARK  Name = 
REMARK  9 active torsions:
REMARK  status: ('A' for Active; 'I' for Inactive)
REMARK    1  A    between atoms: C_1  and  C_2
REMARK    2  A    between atoms: C_2  and  C_3
REMARK    3  A    between atoms: C_2  and  C_4
REMARK    4  A    between atoms: C_2  and  C_5
REMARK    5  A    between atoms: N_12  and  C_13
REMARK    6  A    between atoms: C_13  and  C_14
REMARK    7  A    between atoms: C_16  and  C_17
REMARK    8  A    between atoms: C_17  and  O_18
REMARK    9  A    between atoms: C_19  and  C_20
REMARK                            x       y       z     vdW  Elec       q    Type
REMARK                         _______ _______ _______ _____ _____    ______ ____
ROOT
ATOM      1  C   UNL     1      -0.377  10.952  18.904  0.00  0.00    +0.000 A 
ATOM      2  C   UNL     1      -0.996  10.338  17.803  0.00  0.00    +0.000 A 
ATOM      3  C   UNL     1      -2.364  10.522  17.509  0.00  0.00    +0.000 A 
ATOM      4  C   UNL     1      -3.145  11.311  18.388  0.00  0.00    +0.000 A 
ATOM      5  C   UNL     1      -2.522  11.933  19.486  0.00  0.00    +0.000 A 
ATOM      6  C   UNL     1      -1.164  11.754  19.726  0.00  0.00    +0.000 A 
ATOM      7  F   UNL     1      -0.622  12.348  20.800  0.00  0.00    +0.000 F 
ENDROOT
BRANCH   4   8
ATOM      8  C   UNL     1      -4.606  11.505  18.251  0.00  0.00    +0.000 A 
ATOM      9  C   UNL     1      -5.583  10.579  18.797  0.00  0.00    +0.000 A 
ATOM     10  C   UNL     1      -6.880  10.732  18.530  0.00  0.00    +0.000 A 
ATOM     11  N   UNL     1      -7.315  11.770  17.748  0.00  0.00    +0.000 N 
ATOM     12  C   UNL     1      -6.474  12.709  17.204  0.00  0.00    +0.000 A 
ATOM     13  O   UNL     1      -6.883  13.634  16.508  0.00  0.00    +0.000 OA
ATOM     14  C   UNL     1      -5.029  12.537  17.486  0.00  0.00    +0.000 A 
ATOM     15  H   UNL     1      -8.300  11.880  17.534  0.00  0.00    +0.000 HD
ENDBRANCH   4   8
BRANCH   1  16
ATOM     16  C   UNL     1       1.063  10.683  19.290  0.00  0.00    +0.000 C 
BRANCH  16  24
ATOM     17  C   UNL     1       2.487   4.355  19.801  0.00  0.00    +0.000 A 
ATOM     18  C   UNL     1       2.916   4.828  18.545  0.00  0.00    +0.000 A 
ATOM     19  C   UNL     1       2.807   6.177  18.194  0.00  0.00    +0.000 A 
ATOM     20  F   UNL     1       3.232   6.543  16.977  0.00  0.00    +0.000 F 
ATOM     21  C   UNL     1       2.249   7.092  19.074  0.00  0.00    +0.000 A 
ATOM     22  C   UNL     1       2.152   8.527  18.765  0.00  0.00    +0.000 A 
ATOM     23  O   UNL     1       2.754   8.993  17.804  0.00  0.00    +0.000 OA
ATOM     24  N   UNL     1       1.351   9.283  19.622  0.00  0.00    +0.000 N 
ATOM     25  N   UNL     1       0.835   8.813  20.816  0.00  0.00    +0.000 NA
ATOM     26  C   UNL     1       1.053   7.576  21.137  0.00  0.00    +0.000 A 
ATOM     27  C   UNL     1       1.750   6.627  20.279  0.00  0.00    +0.000 A 
ATOM     28  C   UNL     1       1.875   5.284  20.659  0.00  0.00    +0.000 A 
BRANCH  17  30
ATOM     29  C   UNL     1       2.263   2.676  21.655  0.00  0.00    +0.000 C 
ATOM     30  C   UNL     1       2.714   2.884  20.191  0.00  0.00    +0.000 C 
ATOM     31  C   UNL     1       4.207   2.521  20.065  0.00  0.00    +0.000 C 
ATOM     32  C   UNL     1       1.920   1.885  19.319  0.00  0.00    +0.000 C 
ENDBRANCH  17  30
ENDBRANCH  16  24
ENDBRANCH   1  16
BRANCH   3  33
ATOM     33  C   UNL     1      -2.985   9.852  16.302  0.00  0.00    +0.000 C 
BRANCH  33  34
ATOM     34  O   UNL     1      -2.958  10.676  15.137  0.00  0.00    +0.000 OA
ATOM     35  H   UNL     1      -2.624  11.544  15.418  0.00  0.00    +0.000 HD
ENDBRANCH  33  34
ENDBRANCH   3  33
TORSDOF 6
ENDMDL
MODEL 3
REMARK VINA RESULT:      -8.6      2.636      9.334
REMARK  Name = 
REMARK  9 active torsions:
REMARK  status: ('A' for Active; 'I' for Inactive)
REMARK    1  A    between atoms: C_1  and  C_2
REMARK    2  A    between atoms: C_2  and  C_3
REMARK    3  A    between atoms: C_2  and  C_4
REMARK    4  A    between atoms: C_2  and  C_5
REMARK    5  A    between atoms: N_12  and  C_13
REMARK    6  A    between atoms: C_13  and  C_14
REMARK    7  A    between atoms: C_16  and  C_17
REMARK    8  A    between atoms: C_17  and  O_18
REMARK    9  A    between atoms: C_19  and  C_20
REMARK                            x       y       z     vdW  Elec       q    Type
REMARK                         _______ _______ _______ _____ _____    ______ ____
ROOT
ATOM      1  C   UNL     1       1.592   9.098  19.041  0.00  0.00    +0.000 A 
ATOM      2  C   UNL     1       2.345   8.327  18.141  0.00  0.00    +0.000 A 
ATOM      3  C   UNL     1       2.714   6.993  18.418  0.00  0.00    +0.000 A 
ATOM      4  C   UNL     1       2.355   6.437  19.669  0.00  0.00    +0.000 A 
ATOM      5  C   UNL     1       1.594   7.208  20.568  0.00  0.00    +0.000 A 
ATOM      6  C   UNL     1       1.221   8.509  20.248  0.00  0.00    +0.000 A 
ATOM      7  F   UNL     1       0.518   9.211  21.148  0.00  0.00    +0.000 F 
ENDROOT
BRANCH   4   8
ATOM      8  C   UNL     1       2.761   5.088  20.125  0.00  0.00    +0.000 A 
ATOM      9  C   UNL     1       3.885   4.364  19.556  0.00  0.00    +0.000 A 
ATOM     10  C   UNL     1       4.124   3.102  19.911  0.00  0.00    +0.000 A 
ATOM     11  N   UNL     1       3.321   2.470  20.824  0.00  0.00    +0.000 N 
ATOM     12  C   UNL     1       2.250   3.074  21.434  0.00  0.00    +0.000 A 
ATOM     13  O   UNL     1       1.544   2.491  22.253  0.00  0.00    +0.000 OA
ATOM     14  C   UNL     1       1.972   4.474  21.034  0.00  0.00    +0.000 A 
ATOM     15  H   UNL     1       3.495   1.505  21.085  0.00  0.00    +0.000 HD
ENDBRANCH   4   8
BRANCH   1  16
ATOM     16  C   UNL     1       1.277  10.560  18.804  0.00  0.00    +0.000 C 
BRANCH  16  24
ATOM     17  C   UNL     1      -5.002  12.225  19.180  0.00  0.00    +0.000 A 
ATOM     18  C   UNL     1      -4.291  12.854  20.221  0.00  0.00    +0.000 A 
ATOM     19  C   UNL     1      -2.903  12.735  20.337  0.00  0.00    +0.000 A 
ATOM     20  F   UNL     1      -2.305  13.358  21.361  0.00  0.00    +0.000 F 
ATOM     21  C   UNL     1      -2.183  11.971  19.431  0.00  0.00    +0.000 A 
ATOM     22  C   UNL     1      -0.717  11.851  19.488  0.00  0.00    +0.000 A 
ATOM     23  O   UNL     1      -0.066  12.594  20.213  0.00  0.00    +0.000 OA
ATOM     24  N   UNL     1      -0.154  10.862  18.681  0.00  0.00    +0.000 N 
ATOM     25  N   UNL     1      -0.852  10.159  17.716  0.00  0.00    +0.000 NA
ATOM     26  C   UNL     1      -2.122  10.384  17.588  0.00  0.00    +0.000 A 
ATOM     27  C   UNL     1      -2.877  11.283  18.452  0.00  0.00    +0.000 A 
ATOM     28  C   UNL     1      -4.265  11.411  18.303  0.00  0.00    +0.000 A 
BRANCH  17  30
ATOM     29  C   UNL     1      -6.890  12.360  17.530  0.00  0.00    +0.000 C 
ATOM     30  C   UNL     1      -6.515  12.459  19.026  0.00  0.00    +0.000 C 
ATOM     31  C   UNL     1      -6.897  13.858  19.552  0.00  0.00    +0.000 C 
ATOM     32  C   UNL     1      -7.379  11.429  19.786  0.00  0.00    +0.000 C 
ENDBRANCH  17  30
ENDBRANCH  16  24
ENDBRANCH   1  16
BRANCH   3  33
ATOM     33  C   UNL     1       3.512   6.195  17.409  0.00  0.00    +0.000 C 
BRANCH  33  34
ATOM     34  O   UNL     1       4.552   6.957  16.798  0.00  0.00    +0.000 OA
ATOM     35  H   UNL     1       5.356   6.801  17.322  0.00  0.00    +0.000 HD
ENDBRANCH  33  34
ENDBRANCH   3  33
TORSDOF 6
ENDMDL
MODEL 4
REMARK VINA RESULT:      -8.3      2.822      9.527
REMARK  Name = 
REMARK  9 active torsions:
REMARK  status: ('A' for Active; 'I' for Inactive)
REMARK    1  A    between atoms: C_1  and  C_2
REMARK    2  A    between atoms: C_2  and  C_3
REMARK    3  A    between atoms: C_2  and  C_4
REMARK    4  A    between atoms: C_2  and  C_5
REMARK    5  A    between atoms: N_12  and  C_13
REMARK    6  A    between atoms: C_13  and  C_14
REMARK    7  A    between atoms: C_16  and  C_17
REMARK    8  A    between atoms: C_17  and  O_18
REMARK    9  A    between atoms: C_19  and  C_20
REMARK                            x       y       z     vdW  Elec       q    Type
REMARK                         _______ _______ _______ _____ _____    ______ ____
ROOT
ATOM      1  C   UNL     1       2.487   8.339  18.478  0.00  0.00    +0.000 A 
ATOM      2  C   UNL     1       3.405   7.848  17.534  0.00  0.00    +0.000 A 
ATOM      3  C   UNL     1       3.750   6.481  17.461  0.00  0.00    +0.000 A 
ATOM      4  C   UNL     1       3.189   5.590  18.407  0.00  0.00    +0.000 A 
ATOM      5  C   UNL     1       2.263   6.081  19.347  0.00  0.00    +0.000 A 
ATOM      6  C   UNL     1       1.923   7.430  19.369  0.00  0.00    +0.000 A 
ATOM      7  F   UNL     1       1.056   7.854  20.300  0.00  0.00    +0.000 F 
ENDROOT
BRANCH   4   8
ATOM      8  C   UNL     1       3.539   4.155  18.503  0.00  0.00    +0.000 A 
ATOM      9  C   UNL     1       3.028   3.151  17.586  0.00  0.00    +0.000 A 
ATOM     10  C   UNL     1       3.269   1.857  17.798  0.00  0.00    +0.000 A 
ATOM     11  N   UNL     1       4.011   1.453  18.878  0.00  0.00    +0.000 N 
ATOM     12  C   UNL     1       4.556   2.324  19.788  0.00  0.00    +0.000 A 
ATOM     13  O   UNL     1       5.221   1.943  20.748  0.00  0.00    +0.000 OA
ATOM     14  C   UNL     1       4.280   3.764  19.564  0.00  0.00    +0.000 A 
ATOM     15  H   UNL     1       4.185   0.468  19.047  0.00  0.00    +0.000 HD
ENDBRANCH   4   8
BRANCH   1  16
ATOM     16  C   UNL     1       2.185   9.815  18.635  0.00  0.00    +0.000 C 
BRANCH  16  24
ATOM     17  C   UNL     1      -4.025  11.755  18.766  0.00  0.00    +0.000 A 
ATOM     18  C   UNL     1      -3.312  12.408  19.791  0.00  0.00    +0.000 A 
ATOM     19  C   UNL     1      -1.933  12.237  19.948  0.00  0.00    +0.000 A 
ATOM     20  F   UNL     1      -1.333  12.889  20.954  0.00  0.00    +0.000 F 
ATOM     21  C   UNL     1      -1.225  11.398  19.102  0.00  0.00    +0.000 A 
ATOM     22  C   UNL     1       0.232  11.220  19.202  0.00  0.00    +0.000 A 
ATOM     23  O   UNL     1       0.898  11.974  19.904  0.00  0.00    +0.000 OA
ATOM     24  N   UNL     1       0.771  10.168  18.461  0.00  0.00    +0.000 N 
ATOM     25  N   UNL     1       0.067   9.445  17.516  0.00  0.00    +0.000 NA
ATOM     26  C   UNL     1      -1.189   9.715  17.345  0.00  0.00    +0.000 A 
ATOM     27  C   UNL     1      -1.926  10.688  18.141  0.00  0.00    +0.000 A 
ATOM     28  C   UNL     1      -3.302  10.866  17.951  0.00  0.00    +0.000 A 
BRANCH  17  30
ATOM     29  C   UNL     1      -6.328  10.759  18.866  0.00  0.00    +0.000 C 
ATOM     30  C   UNL     1      -5.522  12.042  18.562  0.00  0.00    +0.000 C 
ATOM     31  C   UNL     1      -5.790  12.475  17.106  0.00  0.00    +0.000 C 
ATOM     32  C   UNL     1      -6.067  13.157  19.483  0.00  0.00    +0.000 C 
ENDBRANCH  17  30
ENDBRANCH  16  24
ENDBRANCH   1  16
BRANCH   3  33
ATOM     33  C   UNL     1       4.732   5.995  16.417  0.00  0.00    +0.000 C 
BRANCH  33  34
ATOM     34  O   UNL     1       4.959   6.951  15.383  0.00  0.00    +0.000 OA
ATOM     35  H   UNL     1       4.084   7.260  15.092  0.00  0.00    +0.000 HD
ENDBRANCH  33  34
ENDBRANCH   3  33
TORSDOF 6
ENDMDL
MODEL 5
REMARK VINA RESULT:      -8.3      2.532      9.168
REMARK  Name = 
REMARK  9 active torsions:
REMARK  status: ('A' for Active; 'I' for Inactive)
REMARK    1  A    between atoms: C_1  and  C_2
REMARK    2  A    between atoms: C_2  and  C_3
REMARK    3  A    between atoms: C_2  and  C_4
REMARK    4  A    between atoms: C_2  and  C_5
REMARK    5  A    between atoms: N_12  and  C_13
REMARK    6  A    between atoms: C_13  and  C_14
REMARK    7  A    between atoms: C_16  and  C_17
REMARK    8  A    between atoms: C_17  and  O_18
REMARK    9  A    between atoms: C_19  and  C_20
REMARK                            x       y       z     vdW  Elec       q    Type
REMARK                         _______ _______ _______ _____ _____    ______ ____
ROOT
ATOM      1  C   UNL     1       1.566   9.247  19.054  0.00  0.00    +0.000 A 
ATOM      2  C   UNL     1       2.282   8.470  18.128  0.00  0.00    +0.000 A 
ATOM      3  C   UNL     1       2.649   7.133  18.392  0.00  0.00    +0.000 A 
ATOM      4  C   UNL     1       2.328   6.580  19.655  0.00  0.00    +0.000 A 
ATOM      5  C   UNL     1       1.603   7.356  20.578  0.00  0.00    +0.000 A 
ATOM      6  C   UNL     1       1.230   8.660  20.271  0.00  0.00    +0.000 A 
ATOM      7  F   UNL     1       0.562   9.367  21.195  0.00  0.00    +0.000 F 
ENDROOT
BRANCH   4   8
ATOM      8  C   UNL     1       2.738   5.227  20.096  0.00  0.00    +0.000 A 
ATOM      9  C   UNL     1       3.872   4.518  19.529  0.00  0.00    +0.000 A 
ATOM     10  C   UNL     1       4.116   3.253  19.869  0.00  0.00    +0.000 A 
ATOM     11  N   UNL     1       3.308   2.603  20.766  0.00  0.00    +0.000 N 
ATOM     12  C   UNL     1       2.226   3.191  21.372  0.00  0.00    +0.000 A 
ATOM     13  O   UNL     1       1.516   2.593  22.176  0.00  0.00    +0.000 OA
ATOM     14  C   UNL     1       1.943   4.595  20.988  0.00  0.00    +0.000 A 
ATOM     15  H   UNL     1       3.485   1.636  21.015  0.00  0.00    +0.000 HD
ENDBRANCH   4   8
BRANCH   1  16
ATOM     16  C   UNL     1       1.254  10.712  18.827  0.00  0.00    +0.000 C 
BRANCH  16  24
ATOM     17  C   UNL     1      -5.106  12.080  18.725  0.00  0.00    +0.000 A 
ATOM     18  C   UNL     1      -4.776  11.317  17.587  0.00  0.00    +0.000 A 
ATOM     19  C   UNL     1      -3.486  10.815  17.390  0.00  0.00    +0.000 A 
ATOM     20  F   UNL     1      -3.255  10.105  16.278  0.00  0.00    +0.000 F 
ATOM     21  C   UNL     1      -2.481  11.073  18.310  0.00  0.00    +0.000 A 
ATOM     22  C   UNL     1      -1.120  10.531  18.166  0.00  0.00    +0.000 A 
ATOM     23  O   UNL     1      -0.889   9.658  17.337  0.00  0.00    +0.000 OA
ATOM     24  N   UNL     1      -0.155  11.070  19.018  0.00  0.00    +0.000 N 
ATOM     25  N   UNL     1      -0.442  11.902  20.085  0.00  0.00    +0.000 NA
ATOM     26  C   UNL     1      -1.674  12.255  20.277  0.00  0.00    +0.000 A 
ATOM     27  C   UNL     1      -2.771  11.889  19.390  0.00  0.00    +0.000 A 
ATOM     28  C   UNL     1      -4.063  12.379  19.619  0.00  0.00    +0.000 A 
BRANCH  17  30
ATOM     29  C   UNL     1      -7.307  11.433  19.745  0.00  0.00    +0.000 C 
ATOM     30  C   UNL     1      -6.558  12.532  18.958  0.00  0.00    +0.000 C 
ATOM     31  C   UNL     1      -7.270  12.763  17.609  0.00  0.00    +0.000 C 
ATOM     32  C   UNL     1      -6.674  13.840  19.771  0.00  0.00    +0.000 C 
ENDBRANCH  17  30
ENDBRANCH  16  24
ENDBRANCH   1  16
BRANCH   3  33
ATOM     33  C   UNL     1       3.408   6.329  17.358  0.00  0.00    +0.000 C 
BRANCH  33  34
ATOM     34  O   UNL     1       4.651   6.927  16.995  0.00  0.00    +0.000 OA
ATOM     35  H   UNL     1       4.582   7.166  16.056  0.00  0.00    +0.000 HD
ENDBRANCH  33  34
ENDBRANCH   3  33
TORSDOF 6
ENDMDL
MODEL 6
REMARK VINA RESULT:      -8.3      1.470      2.014
REMARK  Name = 
REMARK  9 active torsions:
REMARK  status: ('A' for Active; 'I' for Inactive)
REMARK    1  A    between atoms: C_1  and  C_2
REMARK    2  A    between atoms: C_2  and  C_3
REMARK    3  A    between atoms: C_2  and  C_4
REMARK    4  A    between atoms: C_2  and  C_5
REMARK    5  A    between atoms: N_12  and  C_13
REMARK    6  A    between atoms: C_13  and  C_14
REMARK    7  A    between atoms: C_16  and  C_17
REMARK    8  A    between atoms: C_17  and  O_18
REMARK    9  A    between atoms: C_19  and  C_20
REMARK                            x       y       z     vdW  Elec       q    Type
REMARK                         _______ _______ _______ _____ _____    ______ ____
ROOT
ATOM      1  C   UNL     1      -0.702  11.649  18.887  0.00  0.00    +0.000 A 
ATOM      2  C   UNL     1      -1.305  11.048  17.769  0.00  0.00    +0.000 A 
ATOM      3  C   UNL     1      -2.694  11.121  17.533  0.00  0.00    +0.000 A 
ATOM      4  C   UNL     1      -3.509  11.777  18.487  0.00  0.00    +0.000 A 
ATOM      5  C   UNL     1      -2.904  12.385  19.603  0.00  0.00    +0.000 A 
ATOM      6  C   UNL     1      -1.527  12.320  19.786  0.00  0.00    +0.000 A 
ATOM      7  F   UNL     1      -1.001  12.894  20.878  0.00  0.00    +0.000 F 
ENDROOT
BRANCH   4   8
ATOM      8  C   UNL     1      -4.987  11.841  18.411  0.00  0.00    +0.000 A 
ATOM      9  C   UNL     1      -5.696  12.584  17.384  0.00  0.00    +0.000 A 
ATOM     10  C   UNL     1      -7.021  12.717  17.441  0.00  0.00    +0.000 A 
ATOM     11  N   UNL     1      -7.737  12.147  18.462  0.00  0.00    +0.000 N 
ATOM     12  C   UNL     1      -7.162  11.409  19.467  0.00  0.00    +0.000 A 
ATOM     13  O   UNL     1      -7.821  10.903  20.371  0.00  0.00    +0.000 OA
ATOM     14  C   UNL     1      -5.688  11.269  19.415  0.00  0.00    +0.000 A 
ATOM     15  H   UNL     1      -8.744  12.259  18.513  0.00  0.00    +0.000 HD
ENDBRANCH   4   8
BRANCH   1  16
ATOM     16  C   UNL     1       0.770  11.492  19.208  0.00  0.00    +0.000 C 
BRANCH  16  24
ATOM     17  C   UNL     1       3.119   5.429  18.960  0.00  0.00    +0.000 A 
ATOM     18  C   UNL     1       2.489   5.633  20.204  0.00  0.00    +0.000 A 
ATOM     19  C   UNL     1       1.826   6.828  20.502  0.00  0.00    +0.000 A 
ATOM     20  F   UNL     1       1.260   6.943  21.711  0.00  0.00    +0.000 F 
ATOM     21  C   UNL     1       1.785   7.861  19.579  0.00  0.00    +0.000 A 
ATOM     22  C   UNL     1       1.063   9.119  19.832  0.00  0.00    +0.000 A 
ATOM     23  O   UNL     1       0.297   9.208  20.784  0.00  0.00    +0.000 OA
ATOM     24  N   UNL     1       1.313  10.157  18.934  0.00  0.00    +0.000 N 
ATOM     25  N   UNL     1       2.012  10.006  17.750  0.00  0.00    +0.000 NA
ATOM     26  C   UNL     1       2.523   8.846  17.480  0.00  0.00    +0.000 A 
ATOM     27  C   UNL     1       2.467   7.705  18.385  0.00  0.00    +0.000 A 
ATOM     28  C   UNL     1       3.115   6.506  18.057  0.00  0.00    +0.000 A 
BRANCH  17  30
ATOM     29  C   UNL     1       3.378   3.675  17.183  0.00  0.00    +0.000 C 
ATOM     30  C   UNL     1       3.753   4.067  18.630  0.00  0.00    +0.000 C 
ATOM     31  C   UNL     1       3.234   2.985  19.599  0.00  0.00    +0.000 C 
ATOM     32  C   UNL     1       5.295   4.067  18.721  0.00  0.00    +0.000 C 
ENDBRANCH  17  30
ENDBRANCH  16  24
ENDBRANCH   1  16
BRANCH   3  33
ATOM     33  C   UNL     1      -3.297  10.473  16.305  0.00  0.00    +0.000 C 
BRANCH  33  34
ATOM     34  O   UNL     1      -3.241  11.311  15.152  0.00  0.00    +0.000 OA
ATOM     35  H   UNL     1      -4.157  11.557  14.942  0.00  0.00    +0.000 HD
ENDBRANCH  33  34
ENDBRANCH   3  33
TORSDOF 6
ENDMDL
MODEL 7
REMARK VINA RESULT:      -8.2      2.494      3.187
REMARK  Name = 
REMARK  9 active torsions:
REMARK  status: ('A' for Active; 'I' for Inactive)
REMARK    1  A    between atoms: C_1  and  C_2
REMARK    2  A    between atoms: C_2  and  C_3
REMARK    3  A    between atoms: C_2  and  C_4
REMARK    4  A    between atoms: C_2  and  C_5
REMARK    5  A    between atoms: N_12  and  C_13
REMARK    6  A    between atoms: C_13  and  C_14
REMARK    7  A    between atoms: C_16  and  C_17
REMARK    8  A    between atoms: C_17  and  O_18
REMARK    9  A    between atoms: C_19  and  C_20
REMARK                            x       y       z     vdW  Elec       q    Type
REMARK                         _______ _______ _______ _____ _____    ______ ____
ROOT
ATOM      1  C   UNL     1       0.145  11.449  19.591  0.00  0.00    +0.000 A 
ATOM      2  C   UNL     1      -1.197  11.468  19.175  0.00  0.00    +0.000 A 
ATOM      3  C   UNL     1      -2.218  12.052  19.956  0.00  0.00    +0.000 A 
ATOM      4  C   UNL     1      -1.880  12.586  21.223  0.00  0.00    +0.000 A 
ATOM      5  C   UNL     1      -0.534  12.573  21.635  0.00  0.00    +0.000 A 
ATOM      6  C   UNL     1       0.451  12.017  20.825  0.00  0.00    +0.000 A 
ATOM      7  F   UNL     1       1.714  12.006  21.274  0.00  0.00    +0.000 F 
ENDROOT
BRANCH   4   8
ATOM      8  C   UNL     1      -2.866  13.137  22.180  0.00  0.00    +0.000 A 
ATOM      9  C   UNL     1      -3.231  14.543  22.220  0.00  0.00    +0.000 A 
ATOM     10  C   UNL     1      -4.023  15.007  23.186  0.00  0.00    +0.000 A 
ATOM     11  N   UNL     1      -4.513  14.167  24.151  0.00  0.00    +0.000 N 
ATOM     12  C   UNL     1      -4.244  12.821  24.188  0.00  0.00    +0.000 A 
ATOM     13  O   UNL     1      -4.696  12.083  25.060  0.00  0.00    +0.000 OA
ATOM     14  C   UNL     1      -3.354  12.301  23.123  0.00  0.00    +0.000 A 
ATOM     15  H   UNL     1      -5.105  14.522  24.894  0.00  0.00    +0.000 HD
ENDBRANCH   4   8
BRANCH   1  16
ATOM     16  C   UNL     1       1.233  10.737  18.814  0.00  0.00    +0.000 C 
BRANCH  16  24
ATOM     17  C   UNL     1       2.516   4.430  19.767  0.00  0.00    +0.000 A 
ATOM     18  C   UNL     1       3.003   4.817  18.504  0.00  0.00    +0.000 A 
ATOM     19  C   UNL     1       2.933   6.144  18.067  0.00  0.00    +0.000 A 
ATOM     20  F   UNL     1       3.413   6.426  16.848  0.00  0.00    +0.000 F 
ATOM     21  C   UNL     1       2.359   7.120  18.866  0.00  0.00    +0.000 A 
ATOM     22  C   UNL     1       2.301   8.535  18.466  0.00  0.00    +0.000 A 
ATOM     23  O   UNL     1       2.949   8.931  17.504  0.00  0.00    +0.000 OA
ATOM     24  N   UNL     1       1.482   9.356  19.242  0.00  0.00    +0.000 N 
ATOM     25  N   UNL     1       0.910   8.969  20.441  0.00  0.00    +0.000 NA
ATOM     26  C   UNL     1       1.092   7.751  20.845  0.00  0.00    +0.000 A 
ATOM     27  C   UNL     1       1.804   6.739  20.075  0.00  0.00    +0.000 A 
ATOM     28  C   UNL     1       1.888   5.420  20.542  0.00  0.00    +0.000 A 
BRANCH  17  30
ATOM     29  C   UNL     1       2.267   2.892  21.737  0.00  0.00    +0.000 C 
ATOM     30  C   UNL     1       2.699   2.982  20.256  0.00  0.00    +0.000 C 
ATOM     31  C   UNL     1       4.177   2.559  20.133  0.00  0.00    +0.000 C 
ATOM     32  C   UNL     1       1.858   1.954  19.467  0.00  0.00    +0.000 C 
ENDBRANCH  17  30
ENDBRANCH  16  24
ENDBRANCH   1  16
BRANCH   3  33
ATOM     33  C   UNL     1      -3.648  12.065  19.460  0.00  0.00    +0.000 C 
BRANCH  33  34
ATOM     34  O   UNL     1      -3.739  12.082  18.036  0.00  0.00    +0.000 OA
ATOM     35  H   UNL     1      -2.832  11.995  17.697  0.00  0.00    +0.000 HD
ENDBRANCH  33  34
ENDBRANCH   3  33
TORSDOF 6
ENDMDL
MODEL 8
REMARK VINA RESULT:      -8.2      1.481      2.103
REMARK  Name = 
REMARK  9 active torsions:
REMARK  status: ('A' for Active; 'I' for Inactive)
REMARK    1  A    between atoms: C_1  and  C_2
REMARK    2  A    between atoms: C_2  and  C_3
REMARK    3  A    between atoms: C_2  and  C_4
REMARK    4  A    between atoms: C_2  and  C_5
REMARK    5  A    between atoms: N_12  and  C_13
REMARK    6  A    between atoms: C_13  and  C_14
REMARK    7  A    between atoms: C_16  and  C_17
REMARK    8  A    between atoms: C_17  and  O_18
REMARK    9  A    between atoms: C_19  and  C_20
REMARK                            x       y       z     vdW  Elec       q    Type
REMARK                         _______ _______ _______ _____ _____    ______ ____
ROOT
ATOM      1  C   UNL     1      -0.517  10.961  18.944  0.00  0.00    +0.000 A 
ATOM      2  C   UNL     1      -1.096  11.939  19.768  0.00  0.00    +0.000 A 
ATOM      3  C   UNL     1      -2.466  12.271  19.694  0.00  0.00    +0.000 A 
ATOM      4  C   UNL     1      -3.265  11.630  18.717  0.00  0.00    +0.000 A 
ATOM      5  C   UNL     1      -2.686  10.644  17.897  0.00  0.00    +0.000 A 
ATOM      6  C   UNL     1      -1.339  10.321  18.020  0.00  0.00    +0.000 A 
ATOM      7  F   UNL     1      -0.828   9.392  17.198  0.00  0.00    +0.000 F 
ENDROOT
BRANCH   4   8
ATOM      8  C   UNL     1      -4.689  11.953  18.468  0.00  0.00    +0.000 A 
ATOM      9  C   UNL     1      -5.231  12.172  17.138  0.00  0.00    +0.000 A 
ATOM     10  C   UNL     1      -6.487  12.590  16.982  0.00  0.00    +0.000 A 
ATOM     11  N   UNL     1      -7.290  12.810  18.070  0.00  0.00    +0.000 N 
ATOM     12  C   UNL     1      -6.879  12.611  19.365  0.00  0.00    +0.000 A 
ATOM     13  O   UNL     1      -7.615  12.811  20.328  0.00  0.00    +0.000 OA
ATOM     14  C   UNL     1      -5.479  12.159  19.545  0.00  0.00    +0.000 A 
ATOM     15  H   UNL     1      -8.242  13.140  17.953  0.00  0.00    +0.000 HD
ENDBRANCH   4   8
BRANCH   1  16
ATOM     16  C   UNL     1       0.969  10.667  18.941  0.00  0.00    +0.000 C 
BRANCH  16  24
ATOM     17  C   UNL     1       2.644   4.425  19.693  0.00  0.00    +0.000 A 
ATOM     18  C   UNL     1       3.025   4.856  18.407  0.00  0.00    +0.000 A 
ATOM     19  C   UNL     1       2.856   6.183  18.000  0.00  0.00    +0.000 A 
ATOM     20  F   UNL     1       3.237   6.509  16.757  0.00  0.00    +0.000 F 
ATOM     21  C   UNL     1       2.286   7.116  18.853  0.00  0.00    +0.000 A 
ATOM     22  C   UNL     1       2.126   8.531  18.483  0.00  0.00    +0.000 A 
ATOM     23  O   UNL     1       2.687   8.975  17.487  0.00  0.00    +0.000 OA
ATOM     24  N   UNL     1       1.319   9.295  19.327  0.00  0.00    +0.000 N 
ATOM     25  N   UNL     1       0.850   8.861  20.553  0.00  0.00    +0.000 NA
ATOM     26  C   UNL     1       1.123   7.649  20.922  0.00  0.00    +0.000 A 
ATOM     27  C   UNL     1       1.834   6.688  20.089  0.00  0.00    +0.000 A 
ATOM     28  C   UNL     1       2.019   5.369  20.526  0.00  0.00    +0.000 A 
BRANCH  17  30
ATOM     29  C   UNL     1       4.441   2.690  19.949  0.00  0.00    +0.000 C 
ATOM     30  C   UNL     1       2.936   2.982  20.142  0.00  0.00    +0.000 C 
ATOM     31  C   UNL     1       2.114   1.984  19.303  0.00  0.00    +0.000 C 
ATOM     32  C   UNL     1       2.604   2.720  21.628  0.00  0.00    +0.000 C 
ENDBRANCH  17  30
ENDBRANCH  16  24
ENDBRANCH   1  16
BRANCH   3  33
ATOM     33  C   UNL     1      -3.050  13.321  20.614  0.00  0.00    +0.000 C 
BRANCH  33  34
ATOM     34  O   UNL     1      -2.605  14.640  20.302  0.00  0.00    +0.000 OA
ATOM     35  H   UNL     1      -1.717  14.733  20.688  0.00  0.00    +0.000 HD
ENDBRANCH  33  34
ENDBRANCH   3  33
TORSDOF 6
ENDMDL
MODEL 9
REMARK VINA RESULT:      -8.1      1.023      1.337
REMARK  Name = 
REMARK  9 active torsions:
REMARK  status: ('A' for Active; 'I' for Inactive)
REMARK    1  A    between atoms: C_1  and  C_2
REMARK    2  A    between atoms: C_2  and  C_3
REMARK    3  A    between atoms: C_2  and  C_4
REMARK    4  A    between atoms: C_2  and  C_5
REMARK    5  A    between atoms: N_12  and  C_13
REMARK    6  A    between atoms: C_13  and  C_14
REMARK    7  A    between atoms: C_16  and  C_17
REMARK    8  A    between atoms: C_17  and  O_18
REMARK    9  A    between atoms: C_19  and  C_20
REMARK                            x       y       z     vdW  Elec       q    Type
REMARK                         _______ _______ _______ _____ _____    ______ ____
ROOT
ATOM      1  C   UNL     1      -0.549  11.503  19.353  0.00  0.00    +0.000 A 
ATOM      2  C   UNL     1      -1.209  11.205  18.150  0.00  0.00    +0.000 A 
ATOM      3  C   UNL     1      -2.595  11.413  17.981  0.00  0.00    +0.000 A 
ATOM      4  C   UNL     1      -3.348  11.888  19.081  0.00  0.00    +0.000 A 
ATOM      5  C   UNL     1      -2.684  12.195  20.284  0.00  0.00    +0.000 A 
ATOM      6  C   UNL     1      -1.311  12.006  20.404  0.00  0.00    +0.000 A 
ATOM      7  F   UNL     1      -0.729  12.289  21.579  0.00  0.00    +0.000 F 
ENDROOT
BRANCH   4   8
ATOM      8  C   UNL     1      -4.819  12.058  19.069  0.00  0.00    +0.000 A 
ATOM      9  C   UNL     1      -5.732  11.020  18.624  0.00  0.00    +0.000 A 
ATOM     10  C   UNL     1      -7.036  11.272  18.508  0.00  0.00    +0.000 A 
ATOM     11  N   UNL     1      -7.537  12.510  18.817  0.00  0.00    +0.000 N 
ATOM     12  C   UNL     1      -6.761  13.549  19.267  0.00  0.00    +0.000 A 
ATOM     13  O   UNL     1      -7.229  14.650  19.542  0.00  0.00    +0.000 OA
ATOM     14  C   UNL     1      -5.308  13.278  19.385  0.00  0.00    +0.000 A 
ATOM     15  H   UNL     1      -8.527  12.707  18.718  0.00  0.00    +0.000 HD
ENDBRANCH   4   8
BRANCH   1  16
ATOM     16  C   UNL     1       0.915  11.189  19.584  0.00  0.00    +0.000 C 
BRANCH  16  24
ATOM     17  C   UNL     1       2.267   4.829  19.809  0.00  0.00    +0.000 A 
ATOM     18  C   UNL     1       2.640   5.339  18.550  0.00  0.00    +0.000 A 
ATOM     19  C   UNL     1       2.533   6.701  18.250  0.00  0.00    +0.000 A 
ATOM     20  F   UNL     1       2.902   7.102  17.026  0.00  0.00    +0.000 F 
ATOM     21  C   UNL     1       2.035   7.592  19.188  0.00  0.00    +0.000 A 
ATOM     22  C   UNL     1       1.944   9.039  18.933  0.00  0.00    +0.000 A 
ATOM     23  O   UNL     1       2.504   9.529  17.958  0.00  0.00    +0.000 OA
ATOM     24  N   UNL     1       1.198   9.775  19.854  0.00  0.00    +0.000 N 
ATOM     25  N   UNL     1       0.736   9.271  21.056  0.00  0.00    +0.000 NA
ATOM     26  C   UNL     1       0.951   8.022  21.323  0.00  0.00    +0.000 A 
ATOM     27  C   UNL     1       1.590   7.093  20.400  0.00  0.00    +0.000 A 
ATOM     28  C   UNL     1       1.713   5.737  20.729  0.00  0.00    +0.000 A 
BRANCH  17  30
ATOM     29  C   UNL     1       3.954   2.969  19.809  0.00  0.00    +0.000 C 
ATOM     30  C   UNL     1       2.491   3.342  20.138  0.00  0.00    +0.000 C 
ATOM     31  C   UNL     1       1.542   2.460  19.301  0.00  0.00    +0.000 C 
ATOM     32  C   UNL     1       2.251   2.997  21.625  0.00  0.00    +0.000 C 
ENDBRANCH  17  30
ENDBRANCH  16  24
ENDBRANCH   1  16
BRANCH   3  33
ATOM     33  C   UNL     1      -3.261  11.092  16.660  0.00  0.00    +0.000 C 
BRANCH  33  34
ATOM     34  O   UNL     1      -2.401  11.302  15.541  0.00  0.00    +0.000 OA
ATOM     35  H   UNL     1      -2.890  11.861  14.914  0.00  0.00    +0.000 HD
ENDBRANCH  33  34
ENDBRANCH   3  33
TORSDOF 6
ENDMDL
