MODEL 1
REMARK VINA RESULT:      -7.0      0.000      0.000
REMARK  Name = 
REMARK  9 active torsions:
REMARK  status: ('A' for Active; 'I' for Inactive)
REMARK    1  A    between atoms: C_1  and  O_2
REMARK    2  A    between atoms: O_2  and  C_3
REMARK    3  A    between atoms: C_6  and  N_7
REMARK    4  A    between atoms: N_7  and  C_8
REMARK    5  A    between atoms: C_8  and  N_10
REMARK    6  A    between atoms: N_10  and  N_11
REMARK    7  A    between atoms: C_12  and  C_13
REMARK    8  A    between atoms: C_16  and  N_17
REMARK    9  A    between atoms: C_18  and  C_19
REMARK                            x       y       z     vdW  Elec       q    Type
REMARK                         _______ _______ _______ _____ _____    ______ ____
ROOT
ATOM      1  N   UNL     1       3.533   2.732  20.449  0.00  0.00    +0.000 N 
ATOM      2  H   UNL     1       4.031   2.932  21.312  0.00  0.00    +0.000 HD
ENDROOT
BRANCH   1   3
ATOM      3  C   UNL     1       4.270   2.691  19.281  0.00  0.00    +0.000 C 
ATOM      4  S   UNL     1       3.654   1.799  18.014  0.00  0.00    +0.000 S 
BRANCH   3   5
ATOM      5  N   UNL     1       5.454   3.382  19.394  0.00  0.00    +0.000 N 
ATOM      6  H   UNL     1       6.043   2.943  20.096  0.00  0.00    +0.000 HD
BRANCH   5  10
ATOM      7  C   UNL     1       6.840   6.843  17.427  0.00  0.00    +0.000 A 
ATOM      8  C   UNL     1       7.514   6.377  18.554  0.00  0.00    +0.000 A 
ATOM      9  C   UNL     1       7.071   5.241  19.232  0.00  0.00    +0.000 A 
ATOM     10  C   UNL     1       5.934   4.562  18.804  0.00  0.00    +0.000 A 
ATOM     11  C   UNL     1       5.257   5.031  17.672  0.00  0.00    +0.000 A 
ATOM     12  C   UNL     1       5.703   6.170  16.989  0.00  0.00    +0.000 A 
BRANCH   7  14
ATOM     13  C   UNL     1       8.037   8.857  17.752  0.00  0.00    +0.000 C 
ATOM     14  O   UNL     1       7.379   7.965  16.863  0.00  0.00    +0.000 OA
ENDBRANCH   7  14
ENDBRANCH   5  10
ENDBRANCH   3   5
ENDBRANCH   1   3
BRANCH   1  15
ATOM     15  N   UNL     1       2.216   2.391  20.478  0.00  0.00    +0.000 NA
ATOM     16  C   UNL     1       1.332   3.324  20.279  0.00  0.00    +0.000 C 
BRANCH  16  17
ATOM     17  C   UNL     1       1.512   4.711  19.796  0.00  0.00    +0.000 A 
ATOM     18  C   UNL     1       1.672   5.775  20.681  0.00  0.00    +0.000 A 
ATOM     19  C   UNL     1       1.951   7.054  20.202  0.00  0.00    +0.000 A 
ATOM     20  C   UNL     1       2.129   7.284  18.839  0.00  0.00    +0.000 A 
ATOM     21  C   UNL     1       1.951   6.216  17.948  0.00  0.00    +0.000 A 
ATOM     22  C   UNL     1       1.648   4.932  18.423  0.00  0.00    +0.000 A 
BRANCH  20  23
ATOM     23  N   UNL     1       2.538   8.532  18.320  0.00  0.00    +0.000 N 
ATOM     24  C   UNL     1       1.738   9.647  18.134  0.00  0.00    +0.000 C 
ATOM     25  C   UNL     1       2.504  10.870  17.706  0.00  0.00    +0.000 C 
ATOM     26  O   UNL     1       0.522   9.712  18.275  0.00  0.00    +0.000 OA
ATOM     27  H   UNL     1       3.528   8.639  18.138  0.00  0.00    +0.000 HD
ENDBRANCH  20  23
ENDBRANCH  16  17
ENDBRANCH   1  15
TORSDOF 7
ENDMDL
MODEL 2
REMARK VINA RESULT:      -6.9      1.936      5.104
REMARK  Name = 
REMARK  9 active torsions:
REMARK  status: ('A' for Active; 'I' for Inactive)
REMARK    1  A    between atoms: C_1  and  O_2
REMARK    2  A    between atoms: O_2  and  C_3
REMARK    3  A    between atoms: C_6  and  N_7
REMARK    4  A    between atoms: N_7  and  C_8
REMARK    5  A    between atoms: C_8  and  N_10
REMARK    6  A    between atoms: N_10  and  N_11
REMARK    7  A    between atoms: C_12  and  C_13
REMARK    8  A    between atoms: C_16  and  N_17
REMARK    9  A    between atoms: C_18  and  C_19
REMARK                            x       y       z     vdW  Elec       q    Type
REMARK                         _______ _______ _______ _____ _____    ______ ____
ROOT
ATOM      1  N   UNL     1       1.888   3.509  19.167  0.00  0.00    +0.000 N 
ATOM      2  H   UNL     1       1.196   4.068  18.677  0.00  0.00    +0.000 HD
ENDROOT
BRANCH   1   3
ATOM      3  C   UNL     1       2.167   3.842  20.479  0.00  0.00    +0.000 C 
ATOM      4  S   UNL     1       1.777   2.727  21.655  0.00  0.00    +0.000 S 
BRANCH   3   5
ATOM      5  N   UNL     1       2.695   5.108  20.587  0.00  0.00    +0.000 N 
ATOM      6  H   UNL     1       3.565   5.075  21.110  0.00  0.00    +0.000 HD
BRANCH   5  10
ATOM      7  C   UNL     1       1.489   8.932  19.287  0.00  0.00    +0.000 A 
ATOM      8  C   UNL     1       1.180   8.517  20.580  0.00  0.00    +0.000 A 
ATOM      9  C   UNL     1       1.556   7.253  21.034  0.00  0.00    +0.000 A 
ATOM     10  C   UNL     1       2.232   6.374  20.193  0.00  0.00    +0.000 A 
ATOM     11  C   UNL     1       2.542   6.791  18.893  0.00  0.00    +0.000 A 
ATOM     12  C   UNL     1       2.168   8.063  18.438  0.00  0.00    +0.000 A 
BRANCH   7  14
ATOM     13  C   UNL     1      -0.199  10.277  18.319  0.00  0.00    +0.000 C 
ATOM     14  O   UNL     1       1.060  10.191  18.973  0.00  0.00    +0.000 OA
ENDBRANCH   7  14
ENDBRANCH   5  10
ENDBRANCH   3   5
ENDBRANCH   1   3
BRANCH   1  15
ATOM     15  N   UNL     1       2.414   2.398  18.582  0.00  0.00    +0.000 NA
ATOM     16  C   UNL     1       3.448   2.538  17.807  0.00  0.00    +0.000 C 
BRANCH  16  17
ATOM     17  C   UNL     1       4.325   3.712  17.602  0.00  0.00    +0.000 A 
ATOM     18  C   UNL     1       4.226   4.505  16.461  0.00  0.00    +0.000 A 
ATOM     19  C   UNL     1       4.985   5.669  16.344  0.00  0.00    +0.000 A 
ATOM     20  C   UNL     1       5.815   6.089  17.382  0.00  0.00    +0.000 A 
ATOM     21  C   UNL     1       5.926   5.281  18.522  0.00  0.00    +0.000 A 
ATOM     22  C   UNL     1       5.182   4.098  18.636  0.00  0.00    +0.000 A 
BRANCH  20  23
ATOM     23  N   UNL     1       6.502   7.323  17.361  0.00  0.00    +0.000 N 
ATOM     24  C   UNL     1       7.711   7.600  17.977  0.00  0.00    +0.000 C 
ATOM     25  C   UNL     1       8.256   8.962  17.641  0.00  0.00    +0.000 C 
ATOM     26  O   UNL     1       8.334   6.869  18.739  0.00  0.00    +0.000 OA
ATOM     27  H   UNL     1       6.106   8.047  16.776  0.00  0.00    +0.000 HD
ENDBRANCH  20  23
ENDBRANCH  16  17
ENDBRANCH   1  15
TORSDOF 7
ENDMDL
MODEL 3
REMARK VINA RESULT:      -6.8      4.098      5.862
REMARK  Name = 
REMARK  9 active torsions:
REMARK  status: ('A' for Active; 'I' for Inactive)
REMARK    1  A    between atoms: C_1  and  O_2
REMARK    2  A    between atoms: O_2  and  C_3
REMARK    3  A    between atoms: C_6  and  N_7
REMARK    4  A    between atoms: N_7  and  C_8
REMARK    5  A    between atoms: C_8  and  N_10
REMARK    6  A    between atoms: N_10  and  N_11
REMARK    7  A    between atoms: C_12  and  C_13
REMARK    8  A    between atoms: C_16  and  N_17
REMARK    9  A    between atoms: C_18  and  C_19
REMARK                            x       y       z     vdW  Elec       q    Type
REMARK                         _______ _______ _______ _____ _____    ______ ____
ROOT
ATOM      1  N   UNL     1       6.540   6.870  17.212  0.00  0.00    +0.000 N 
ATOM      2  H   UNL     1       6.742   7.257  18.130  0.00  0.00    +0.000 HD
ENDROOT
BRANCH   1   3
ATOM      3  C   UNL     1       7.192   5.707  16.850  0.00  0.00    +0.000 C 
ATOM      4  S   UNL     1       7.624   4.656  18.070  0.00  0.00    +0.000 S 
BRANCH   3   5
ATOM      5  N   UNL     1       7.421   5.646  15.495  0.00  0.00    +0.000 N 
ATOM      6  H   UNL     1       8.102   6.353  15.229  0.00  0.00    +0.000 HD
BRANCH   5  10
ATOM      7  C   UNL     1       5.808   3.489  12.253  0.00  0.00    +0.000 A 
ATOM      8  C   UNL     1       5.102   3.558  13.452  0.00  0.00    +0.000 A 
ATOM      9  C   UNL     1       5.617   4.255  14.545  0.00  0.00    +0.000 A 
ATOM     10  C   UNL     1       6.858   4.880  14.463  0.00  0.00    +0.000 A 
ATOM     11  C   UNL     1       7.567   4.810  13.258  0.00  0.00    +0.000 A 
ATOM     12  C   UNL     1       7.049   4.113  12.158  0.00  0.00    +0.000 A 
BRANCH   7  14
ATOM     13  C   UNL     1       3.835   3.107  11.006  0.00  0.00    +0.000 C 
ATOM     14  O   UNL     1       5.191   2.773  11.266  0.00  0.00    +0.000 OA
ENDBRANCH   7  14
ENDBRANCH   5  10
ENDBRANCH   3   5
ENDBRANCH   1   3
BRANCH   1  15
ATOM     15  N   UNL     1       5.564   7.416  16.436  0.00  0.00    +0.000 NA
ATOM     16  C   UNL     1       4.341   7.007  16.603  0.00  0.00    +0.000 C 
BRANCH  16  17
ATOM     17  C   UNL     1       3.761   6.171  17.678  0.00  0.00    +0.000 A 
ATOM     18  C   UNL     1       3.281   6.733  18.858  0.00  0.00    +0.000 A 
ATOM     19  C   UNL     1       2.638   5.938  19.807  0.00  0.00    +0.000 A 
ATOM     20  C   UNL     1       2.416   4.583  19.572  0.00  0.00    +0.000 A 
ATOM     21  C   UNL     1       2.914   4.015  18.391  0.00  0.00    +0.000 A 
ATOM     22  C   UNL     1       3.582   4.805  17.443  0.00  0.00    +0.000 A 
BRANCH  20  23
ATOM     23  N   UNL     1       1.659   3.768  20.443  0.00  0.00    +0.000 N 
ATOM     24  C   UNL     1       2.159   2.862  21.362  0.00  0.00    +0.000 C 
ATOM     25  C   UNL     1       1.101   2.260  22.247  0.00  0.00    +0.000 C 
ATOM     26  O   UNL     1       3.329   2.523  21.499  0.00  0.00    +0.000 OA
ATOM     27  H   UNL     1       0.658   3.921  20.443  0.00  0.00    +0.000 HD
ENDBRANCH  20  23
ENDBRANCH  16  17
ENDBRANCH   1  15
TORSDOF 7
ENDMDL
MODEL 4
REMARK VINA RESULT:      -6.8      4.080      5.896
REMARK  Name = 
REMARK  9 active torsions:
REMARK  status: ('A' for Active; 'I' for Inactive)
REMARK    1  A    between atoms: C_1  and  O_2
REMARK    2  A    between atoms: O_2  and  C_3
REMARK    3  A    between atoms: C_6  and  N_7
REMARK    4  A    between atoms: N_7  and  C_8
REMARK    5  A    between atoms: C_8  and  N_10
REMARK    6  A    between atoms: N_10  and  N_11
REMARK    7  A    between atoms: C_12  and  C_13
REMARK    8  A    between atoms: C_16  and  N_17
REMARK    9  A    between atoms: C_18  and  C_19
REMARK                            x       y       z     vdW  Elec       q    Type
REMARK                         _______ _______ _______ _____ _____    ______ ____
ROOT
ATOM      1  N   UNL     1       6.604   7.015  17.068  0.00  0.00    +0.000 N 
ATOM      2  H   UNL     1       6.769   7.462  17.965  0.00  0.00    +0.000 HD
ENDROOT
BRANCH   1   3
ATOM      3  C   UNL     1       7.267   5.829  16.814  0.00  0.00    +0.000 C 
ATOM      4  S   UNL     1       7.621   4.852  18.118  0.00  0.00    +0.000 S 
BRANCH   3   5
ATOM      5  N   UNL     1       7.571   5.685  15.480  0.00  0.00    +0.000 N 
ATOM      6  H   UNL     1       8.282   6.361  15.215  0.00  0.00    +0.000 HD
BRANCH   5  10
ATOM      7  C   UNL     1       6.055   3.398  12.280  0.00  0.00    +0.000 A 
ATOM      8  C   UNL     1       5.429   3.339  13.524  0.00  0.00    +0.000 A 
ATOM      9  C   UNL     1       5.916   4.077  14.604  0.00  0.00    +0.000 A 
ATOM     10  C   UNL     1       7.050   4.871  14.462  0.00  0.00    +0.000 A 
ATOM     11  C   UNL     1       7.679   4.928  13.213  0.00  0.00    +0.000 A 
ATOM     12  C   UNL     1       7.189   4.191  12.127  0.00  0.00    +0.000 A 
BRANCH   7  14
ATOM     13  C   UNL     1       5.978   1.301  11.188  0.00  0.00    +0.000 C 
ATOM     14  O   UNL     1       5.477   2.625  11.313  0.00  0.00    +0.000 OA
ENDBRANCH   7  14
ENDBRANCH   5  10
ENDBRANCH   3   5
ENDBRANCH   1   3
BRANCH   1  15
ATOM     15  N   UNL     1       5.665   7.507  16.215  0.00  0.00    +0.000 NA
ATOM     16  C   UNL     1       4.447   7.061  16.312  0.00  0.00    +0.000 C 
BRANCH  16  17
ATOM     17  C   UNL     1       3.825   6.233  17.368  0.00  0.00    +0.000 A 
ATOM     18  C   UNL     1       3.889   4.842  17.335  0.00  0.00    +0.000 A 
ATOM     19  C   UNL     1       3.392   4.088  18.398  0.00  0.00    +0.000 A 
ATOM     20  C   UNL     1       2.873   4.708  19.533  0.00  0.00    +0.000 A 
ATOM     21  C   UNL     1       2.795   6.107  19.558  0.00  0.00    +0.000 A 
ATOM     22  C   UNL     1       3.272   6.870  18.482  0.00  0.00    +0.000 A 
BRANCH  20  23
ATOM     23  N   UNL     1       2.478   3.991  20.684  0.00  0.00    +0.000 N 
ATOM     24  C   UNL     1       1.405   3.122  20.782  0.00  0.00    +0.000 C 
ATOM     25  C   UNL     1       1.339   2.398  22.100  0.00  0.00    +0.000 C 
ATOM     26  O   UNL     1       0.546   2.914  19.933  0.00  0.00    +0.000 OA
ATOM     27  H   UNL     1       3.087   4.065  21.489  0.00  0.00    +0.000 HD
ENDBRANCH  20  23
ENDBRANCH  16  17
ENDBRANCH   1  15
TORSDOF 7
ENDMDL
MODEL 5
REMARK VINA RESULT:      -6.6      1.784      2.497
REMARK  Name = 
REMARK  9 active torsions:
REMARK  status: ('A' for Active; 'I' for Inactive)
REMARK    1  A    between atoms: C_1  and  O_2
REMARK    2  A    between atoms: O_2  and  C_3
REMARK    3  A    between atoms: C_6  and  N_7
REMARK    4  A    between atoms: N_7  and  C_8
REMARK    5  A    between atoms: C_8  and  N_10
REMARK    6  A    between atoms: N_10  and  N_11
REMARK    7  A    between atoms: C_12  and  C_13
REMARK    8  A    between atoms: C_16  and  N_17
REMARK    9  A    between atoms: C_18  and  C_19
REMARK                            x       y       z     vdW  Elec       q    Type
REMARK                         _______ _______ _______ _____ _____    ______ ____
ROOT
ATOM      1  N   UNL     1       2.911   2.085  18.203  0.00  0.00    +0.000 N 
ATOM      2  H   UNL     1       2.550   1.270  18.689  0.00  0.00    +0.000 HD
ENDROOT
BRANCH   1   3
ATOM      3  C   UNL     1       4.172   2.531  18.551  0.00  0.00    +0.000 C 
ATOM      4  S   UNL     1       4.597   2.455  20.161  0.00  0.00    +0.000 S 
BRANCH   3   5
ATOM      5  N   UNL     1       4.861   3.024  17.466  0.00  0.00    +0.000 N 
ATOM      6  H   UNL     1       4.848   2.343  16.712  0.00  0.00    +0.000 HD
BRANCH   5  10
ATOM      7  C   UNL     1       7.144   6.542  17.044  0.00  0.00    +0.000 A 
ATOM      8  C   UNL     1       5.937   6.420  16.359  0.00  0.00    +0.000 A 
ATOM      9  C   UNL     1       5.166   5.262  16.471  0.00  0.00    +0.000 A 
ATOM     10  C   UNL     1       5.600   4.198  17.256  0.00  0.00    +0.000 A 
ATOM     11  C   UNL     1       6.813   4.322  17.945  0.00  0.00    +0.000 A 
ATOM     12  C   UNL     1       7.586   5.485  17.836  0.00  0.00    +0.000 A 
BRANCH   7  14
ATOM     13  C   UNL     1       7.566   8.740  17.810  0.00  0.00    +0.000 C 
ATOM     14  O   UNL     1       7.798   7.725  16.843  0.00  0.00    +0.000 OA
ENDBRANCH   7  14
ENDBRANCH   5  10
ENDBRANCH   3   5
ENDBRANCH   1   3
BRANCH   1  15
ATOM     15  N   UNL     1       2.222   2.626  17.161  0.00  0.00    +0.000 NA
ATOM     16  C   UNL     1       1.657   3.785  17.328  0.00  0.00    +0.000 C 
BRANCH  16  17
ATOM     17  C   UNL     1       1.812   4.763  18.428  0.00  0.00    +0.000 A 
ATOM     18  C   UNL     1       2.386   6.014  18.214  0.00  0.00    +0.000 A 
ATOM     19  C   UNL     1       2.419   6.959  19.239  0.00  0.00    +0.000 A 
ATOM     20  C   UNL     1       1.834   6.693  20.476  0.00  0.00    +0.000 A 
ATOM     21  C   UNL     1       1.272   5.427  20.695  0.00  0.00    +0.000 A 
ATOM     22  C   UNL     1       1.256   4.465  19.675  0.00  0.00    +0.000 A 
BRANCH  20  23
ATOM     23  N   UNL     1       1.730   7.662  21.498  0.00  0.00    +0.000 N 
ATOM     24  C   UNL     1       0.916   8.782  21.488  0.00  0.00    +0.000 C 
ATOM     25  C   UNL     1       0.918   9.536  22.791  0.00  0.00    +0.000 C 
ATOM     26  O   UNL     1       0.238   9.191  20.552  0.00  0.00    +0.000 OA
ATOM     27  H   UNL     1       2.245   7.474  22.348  0.00  0.00    +0.000 HD
ENDBRANCH  20  23
ENDBRANCH  16  17
ENDBRANCH   1  15
TORSDOF 7
ENDMDL
MODEL 6
REMARK VINA RESULT:      -6.6      3.114      6.603
REMARK  Name = 
REMARK  9 active torsions:
REMARK  status: ('A' for Active; 'I' for Inactive)
REMARK    1  A    between atoms: C_1  and  O_2
REMARK    2  A    between atoms: O_2  and  C_3
REMARK    3  A    between atoms: C_6  and  N_7
REMARK    4  A    between atoms: N_7  and  C_8
REMARK    5  A    between atoms: C_8  and  N_10
REMARK    6  A    between atoms: N_10  and  N_11
REMARK    7  A    between atoms: C_12  and  C_13
REMARK    8  A    between atoms: C_16  and  N_17
REMARK    9  A    between atoms: C_18  and  C_19
REMARK                            x       y       z     vdW  Elec       q    Type
REMARK                         _______ _______ _______ _____ _____    ______ ____
ROOT
ATOM      1  N   UNL     1       4.865   4.877  19.428  0.00  0.00    +0.000 N 
ATOM      2  H   UNL     1       5.293   3.980  19.638  0.00  0.00    +0.000 HD
ENDROOT
BRANCH   1   3
ATOM      3  C   UNL     1       3.486   4.922  19.339  0.00  0.00    +0.000 C 
ATOM      4  S   UNL     1       2.742   3.792  18.365  0.00  0.00    +0.000 S 
BRANCH   3   5
ATOM      5  N   UNL     1       2.958   5.966  20.063  0.00  0.00    +0.000 N 
ATOM      6  H   UNL     1       3.034   5.769  21.057  0.00  0.00    +0.000 HD
BRANCH   5  10
ATOM      7  C   UNL     1       1.158   9.571  18.827  0.00  0.00    +0.000 A 
ATOM      8  C   UNL     1       0.977   9.126  20.134  0.00  0.00    +0.000 A 
ATOM      9  C   UNL     1       1.552   7.931  20.568  0.00  0.00    +0.000 A 
ATOM     10  C   UNL     1       2.302   7.150  19.693  0.00  0.00    +0.000 A 
ATOM     11  C   UNL     1       2.482   7.597  18.379  0.00  0.00    +0.000 A 
ATOM     12  C   UNL     1       1.908   8.799  17.944  0.00  0.00    +0.000 A 
BRANCH   7  14
ATOM     13  C   UNL     1      -0.649  11.034  19.263  0.00  0.00    +0.000 C 
ATOM     14  O   UNL     1       0.538  10.754  18.535  0.00  0.00    +0.000 OA
ENDBRANCH   7  14
ENDBRANCH   5  10
ENDBRANCH   3   5
ENDBRANCH   1   3
BRANCH   1  15
ATOM     15  N   UNL     1       5.624   6.005  19.370  0.00  0.00    +0.000 NA
ATOM     16  C   UNL     1       6.328   6.222  18.299  0.00  0.00    +0.000 C 
BRANCH  16  17
ATOM     17  C   UNL     1       6.288   5.540  16.986  0.00  0.00    +0.000 A 
ATOM     18  C   UNL     1       7.172   4.510  16.674  0.00  0.00    +0.000 A 
ATOM     19  C   UNL     1       7.042   3.809  15.476  0.00  0.00    +0.000 A 
ATOM     20  C   UNL     1       5.999   4.086  14.595  0.00  0.00    +0.000 A 
ATOM     21  C   UNL     1       5.120   5.134  14.903  0.00  0.00    +0.000 A 
ATOM     22  C   UNL     1       5.259   5.858  16.096  0.00  0.00    +0.000 A 
BRANCH  20  23
ATOM     23  N   UNL     1       5.751   3.319  13.434  0.00  0.00    +0.000 N 
ATOM     24  C   UNL     1       6.423   3.417  12.227  0.00  0.00    +0.000 C 
ATOM     25  C   UNL     1       6.027   2.357  11.235  0.00  0.00    +0.000 C 
ATOM     26  O   UNL     1       7.261   4.255  11.916  0.00  0.00    +0.000 OA
ATOM     27  H   UNL     1       5.068   2.579  13.523  0.00  0.00    +0.000 HD
ENDBRANCH  20  23
ENDBRANCH  16  17
ENDBRANCH   1  15
TORSDOF 7
ENDMDL
MODEL 7
REMARK VINA RESULT:      -6.5      3.125      5.001
REMARK  Name = 
REMARK  9 active torsions:
REMARK  status: ('A' for Active; 'I' for Inactive)
REMARK    1  A    between atoms: C_1  and  O_2
REMARK    2  A    between atoms: O_2  and  C_3
REMARK    3  A    between atoms: C_6  and  N_7
REMARK    4  A    between atoms: N_7  and  C_8
REMARK    5  A    between atoms: C_8  and  N_10
REMARK    6  A    between atoms: N_10  and  N_11
REMARK    7  A    between atoms: C_12  and  C_13
REMARK    8  A    between atoms: C_16  and  N_17
REMARK    9  A    between atoms: C_18  and  C_19
REMARK                            x       y       z     vdW  Elec       q    Type
REMARK                         _______ _______ _______ _____ _____    ______ ____
ROOT
ATOM      1  N   UNL     1       5.182   5.503  16.991  0.00  0.00    +0.000 N 
ATOM      2  H   UNL     1       4.802   5.468  17.932  0.00  0.00    +0.000 HD
ENDROOT
BRANCH   1   3
ATOM      3  C   UNL     1       5.626   4.318  16.435  0.00  0.00    +0.000 C 
ATOM      4  S   UNL     1       6.807   4.414  15.263  0.00  0.00    +0.000 S 
BRANCH   3   5
ATOM      5  N   UNL     1       4.950   3.230  16.937  0.00  0.00    +0.000 N 
ATOM      6  H   UNL     1       5.223   2.392  16.431  0.00  0.00    +0.000 HD
BRANCH   5  10
ATOM      7  C   UNL     1       1.824   2.945  19.750  0.00  0.00    +0.000 A 
ATOM      8  C   UNL     1       3.145   2.964  20.191  0.00  0.00    +0.000 A 
ATOM      9  C   UNL     1       4.201   3.046  19.282  0.00  0.00    +0.000 A 
ATOM     10  C   UNL     1       3.951   3.091  17.913  0.00  0.00    +0.000 A 
ATOM     11  C   UNL     1       2.623   3.071  17.470  0.00  0.00    +0.000 A 
ATOM     12  C   UNL     1       1.563   2.992  18.383  0.00  0.00    +0.000 A 
BRANCH   7  14
ATOM     13  C   UNL     1       1.377   2.487  22.027  0.00  0.00    +0.000 C 
ATOM     14  O   UNL     1       0.891   2.859  20.745  0.00  0.00    +0.000 OA
ENDBRANCH   7  14
ENDBRANCH   5  10
ENDBRANCH   3   5
ENDBRANCH   1   3
BRANCH   1  15
ATOM     15  N   UNL     1       5.126   6.656  16.269  0.00  0.00    +0.000 NA
ATOM     16  C   UNL     1       4.189   7.513  16.546  0.00  0.00    +0.000 C 
BRANCH  16  17
ATOM     17  C   UNL     1       3.257   7.560  17.695  0.00  0.00    +0.000 A 
ATOM     18  C   UNL     1       3.298   6.600  18.703  0.00  0.00    +0.000 A 
ATOM     19  C   UNL     1       2.487   6.728  19.831  0.00  0.00    +0.000 A 
ATOM     20  C   UNL     1       1.663   7.839  19.996  0.00  0.00    +0.000 A 
ATOM     21  C   UNL     1       1.611   8.795  18.972  0.00  0.00    +0.000 A 
ATOM     22  C   UNL     1       2.407   8.661  17.826  0.00  0.00    +0.000 A 
BRANCH  20  23
ATOM     23  N   UNL     1       0.922   8.075  21.176  0.00  0.00    +0.000 N 
ATOM     24  C   UNL     1       0.894   9.251  21.906  0.00  0.00    +0.000 C 
ATOM     25  C   UNL     1      -0.110   9.236  23.027  0.00  0.00    +0.000 C 
ATOM     26  O   UNL     1       1.588  10.246  21.728  0.00  0.00    +0.000 OA
ATOM     27  H   UNL     1       0.298   7.335  21.468  0.00  0.00    +0.000 HD
ENDBRANCH  20  23
ENDBRANCH  16  17
ENDBRANCH   1  15
TORSDOF 7
ENDMDL
MODEL 8
REMARK VINA RESULT:      -6.5      1.935      2.708
REMARK  Name = 
REMARK  9 active torsions:
REMARK  status: ('A' for Active; 'I' for Inactive)
REMARK    1  A    between atoms: C_1  and  O_2
REMARK    2  A    between atoms: O_2  and  C_3
REMARK    3  A    between atoms: C_6  and  N_7
REMARK    4  A    between atoms: N_7  and  C_8
REMARK    5  A    between atoms: C_8  and  N_10
REMARK    6  A    between atoms: N_10  and  N_11
REMARK    7  A    between atoms: C_12  and  C_13
REMARK    8  A    between atoms: C_16  and  N_17
REMARK    9  A    between atoms: C_18  and  C_19
REMARK                            x       y       z     vdW  Elec       q    Type
REMARK                         _______ _______ _______ _____ _____    ______ ____
ROOT
ATOM      1  N   UNL     1       1.636   4.630  19.033  0.00  0.00    +0.000 N 
ATOM      2  H   UNL     1       0.886   5.220  18.685  0.00  0.00    +0.000 HD
ENDROOT
BRANCH   1   3
ATOM      3  C   UNL     1       2.341   3.882  18.109  0.00  0.00    +0.000 C 
ATOM      4  S   UNL     1       2.158   2.225  18.161  0.00  0.00    +0.000 S 
BRANCH   3   5
ATOM      5  N   UNL     1       3.140   4.669  17.311  0.00  0.00    +0.000 N 
ATOM      6  H   UNL     1       2.718   4.765  16.392  0.00  0.00    +0.000 HD
BRANCH   5  10
ATOM      7  C   UNL     1       6.877   6.448  18.109  0.00  0.00    +0.000 A 
ATOM      8  C   UNL     1       6.154   6.841  16.985  0.00  0.00    +0.000 A 
ATOM      9  C   UNL     1       4.920   6.262  16.690  0.00  0.00    +0.000 A 
ATOM     10  C   UNL     1       4.396   5.263  17.505  0.00  0.00    +0.000 A 
ATOM     11  C   UNL     1       5.123   4.867  18.635  0.00  0.00    +0.000 A 
ATOM     12  C   UNL     1       6.361   5.452  18.934  0.00  0.00    +0.000 A 
BRANCH   7  14
ATOM     13  C   UNL     1       8.099   8.461  17.891  0.00  0.00    +0.000 C 
ATOM     14  O   UNL     1       8.069   7.094  18.277  0.00  0.00    +0.000 OA
ENDBRANCH   7  14
ENDBRANCH   5  10
ENDBRANCH   3   5
ENDBRANCH   1   3
BRANCH   1  15
ATOM     15  N   UNL     1       2.005   4.685  20.342  0.00  0.00    +0.000 NA
ATOM     16  C   UNL     1       2.190   5.853  20.883  0.00  0.00    +0.000 C 
BRANCH  16  17
ATOM     17  C   UNL     1       1.853   7.198  20.368  0.00  0.00    +0.000 A 
ATOM     18  C   UNL     1       2.188   7.587  19.073  0.00  0.00    +0.000 A 
ATOM     19  C   UNL     1       1.761   8.818  18.574  0.00  0.00    +0.000 A 
ATOM     20  C   UNL     1       0.950   9.656  19.337  0.00  0.00    +0.000 A 
ATOM     21  C   UNL     1       0.628   9.270  20.646  0.00  0.00    +0.000 A 
ATOM     22  C   UNL     1       1.073   8.044  21.161  0.00  0.00    +0.000 A 
BRANCH  20  23
ATOM     23  N   UNL     1       0.389  10.849  18.829  0.00  0.00    +0.000 N 
ATOM     24  C   UNL     1      -0.901  11.012  18.353  0.00  0.00    +0.000 C 
ATOM     25  C   UNL     1      -1.242  12.441  18.024  0.00  0.00    +0.000 C 
ATOM     26  O   UNL     1      -1.739  10.134  18.180  0.00  0.00    +0.000 OA
ATOM     27  H   UNL     1       0.966  11.677  18.891  0.00  0.00    +0.000 HD
ENDBRANCH  20  23
ENDBRANCH  16  17
ENDBRANCH   1  15
TORSDOF 7
ENDMDL
MODEL 9
REMARK VINA RESULT:      -6.5      3.739      7.632
REMARK  Name = 
REMARK  9 active torsions:
REMARK  status: ('A' for Active; 'I' for Inactive)
REMARK    1  A    between atoms: C_1  and  O_2
REMARK    2  A    between atoms: O_2  and  C_3
REMARK    3  A    between atoms: C_6  and  N_7
REMARK    4  A    between atoms: N_7  and  C_8
REMARK    5  A    between atoms: C_8  and  N_10
REMARK    6  A    between atoms: N_10  and  N_11
REMARK    7  A    between atoms: C_12  and  C_13
REMARK    8  A    between atoms: C_16  and  N_17
REMARK    9  A    between atoms: C_18  and  C_19
REMARK                            x       y       z     vdW  Elec       q    Type
REMARK                         _______ _______ _______ _____ _____    ______ ____
ROOT
ATOM      1  N   UNL     1       1.449   8.019  20.341  0.00  0.00    +0.000 N 
ATOM      2  H   UNL     1       1.909   7.958  19.437  0.00  0.00    +0.000 HD
ENDROOT
BRANCH   1   3
ATOM      3  C   UNL     1       0.864   9.224  20.680  0.00  0.00    +0.000 C 
ATOM      4  S   UNL     1       0.468   9.462  22.282  0.00  0.00    +0.000 S 
BRANCH   3   5
ATOM      5  N   UNL     1       0.660  10.025  19.580  0.00  0.00    +0.000 N 
ATOM      6  H   UNL     1       1.529  10.483  19.322  0.00  0.00    +0.000 HD
BRANCH   5  10
ATOM      7  C   UNL     1      -2.885  11.061  17.549  0.00  0.00    +0.000 A 
ATOM      8  C   UNL     1      -2.042  10.093  17.008  0.00  0.00    +0.000 A 
ATOM      9  C   UNL     1      -0.856   9.738  17.653  0.00  0.00    +0.000 A 
ATOM     10  C   UNL     1      -0.485  10.361  18.841  0.00  0.00    +0.000 A 
ATOM     11  C   UNL     1      -1.333  11.335  19.383  0.00  0.00    +0.000 A 
ATOM     12  C   UNL     1      -2.525  11.689  18.738  0.00  0.00    +0.000 A 
BRANCH   7  14
ATOM     13  C   UNL     1      -5.110  11.866  17.525  0.00  0.00    +0.000 C 
ATOM     14  O   UNL     1      -4.010  11.314  16.815  0.00  0.00    +0.000 OA
ENDBRANCH   7  14
ENDBRANCH   5  10
ENDBRANCH   3   5
ENDBRANCH   1   3
BRANCH   1  15
ATOM     15  N   UNL     1       1.309   6.911  21.118  0.00  0.00    +0.000 NA
ATOM     16  C   UNL     1       1.706   5.768  20.642  0.00  0.00    +0.000 C 
BRANCH  16  17
ATOM     17  C   UNL     1       2.512   5.473  19.436  0.00  0.00    +0.000 A 
ATOM     18  C   UNL     1       3.853   5.839  19.350  0.00  0.00    +0.000 A 
ATOM     19  C   UNL     1       4.620   5.453  18.252  0.00  0.00    +0.000 A 
ATOM     20  C   UNL     1       4.078   4.651  17.248  0.00  0.00    +0.000 A 
ATOM     21  C   UNL     1       2.724   4.298  17.328  0.00  0.00    +0.000 A 
ATOM     22  C   UNL     1       1.942   4.703  18.419  0.00  0.00    +0.000 A 
BRANCH  20  23
ATOM     23  N   UNL     1       4.849   4.130  16.185  0.00  0.00    +0.000 N 
ATOM     24  C   UNL     1       5.542   4.863  15.237  0.00  0.00    +0.000 C 
ATOM     25  C   UNL     1       6.390   4.015  14.327  0.00  0.00    +0.000 C 
ATOM     26  O   UNL     1       5.515   6.078  15.081  0.00  0.00    +0.000 OA
ATOM     27  H   UNL     1       4.962   3.125  16.164  0.00  0.00    +0.000 HD
ENDBRANCH  20  23
ENDBRANCH  16  17
ENDBRANCH   1  15
TORSDOF 7
ENDMDL
