MODEL 1
REMARK VINA RESULT:      -6.9      0.000      0.000
REMARK  Name = 
REMARK  11 active torsions:
REMARK  status: ('A' for Active; 'I' for Inactive)
REMARK    1  A    between atoms: C_1  and  O_2
REMARK    2  A    between atoms: O_2  and  C_3
REMARK    3  A    between atoms: C_3  and  C_4
REMARK    4  A    between atoms: C_4  and  C_5
REMARK    5  A    between atoms: C_5  and  N_6
REMARK    6  A    between atoms: C_8  and  C_9
REMARK    7  A    between atoms: C_9  and  N_10
REMARK    8  A    between atoms: N_10  and  C_27
REMARK    9  A    between atoms: C_11  and  C_13
REMARK   10  A    between atoms: C_18  and  C_19
REMARK   11  A    between atoms: N_22  and  C_23
REMARK                            x       y       z     vdW  Elec       q    Type
REMARK                         _______ _______ _______ _____ _____    ______ ____
ROOT
ATOM      1  N   UNL     1      -3.045  11.993  18.647  0.00  0.00    +0.000 N 
ATOM      2  C   UNL     1      -4.017  12.311  19.611  0.00  0.00    +0.000 C 
ATOM      3  O   UNL     1      -5.115  11.736  19.597  0.00  0.00    +0.000 OA
ENDROOT
BRANCH   2   4
ATOM      4  C   UNL     1      -3.758  13.368  20.705  0.00  0.00    +0.000 C 
ATOM      5  C   UNL     1      -4.588  14.628  20.346  0.00  0.00    +0.000 C 
ATOM      6  N   UNL     1      -6.023  14.541  20.653  0.00  0.00    +0.000 NA
ATOM      7  C   UNL     1      -6.270  14.236  22.055  0.00  0.00    +0.000 C 
ATOM      8  C   UNL     1      -5.580  12.949  22.491  0.00  0.00    +0.000 C 
ATOM      9  C   UNL     1      -4.070  12.873  22.154  0.00  0.00    +0.000 C 
ATOM     10  H   UNL     1      -6.413  13.789  20.070  0.00  0.00    +0.000 HD
BRANCH   9  11
ATOM     11  C   UNL     1      -3.158  13.520  23.218  0.00  0.00    +0.000 A 
ATOM     12  C   UNL     1      -3.640  13.754  24.567  0.00  0.00    +0.000 A 
ATOM     13  C   UNL     1      -2.982  14.603  25.396  0.00  0.00    +0.000 A 
ATOM     14  N   UNL     1      -1.805  15.205  25.015  0.00  0.00    +0.000 N 
ATOM     15  C   UNL     1      -1.232  16.229  25.860  0.00  0.00    +0.000 C 
ATOM     16  C   UNL     1      -1.149  14.838  23.845  0.00  0.00    +0.000 A 
ATOM     17  O   UNL     1      -0.039  15.242  23.513  0.00  0.00    +0.000 OA
ATOM     18  C   UNL     1      -1.920  13.957  22.911  0.00  0.00    +0.000 A 
ENDBRANCH   9  11
ENDBRANCH   2   4
BRANCH   1  19
ATOM     19  C   UNL     1      -3.410  10.867  17.775  0.00  0.00    +0.000 C 
ATOM     20  C   UNL     1      -4.234  11.124  16.529  0.00  0.00    +0.000 C 
ATOM     21  C   UNL     1      -2.853  10.562  16.414  0.00  0.00    +0.000 C 
ENDBRANCH   1  19
BRANCH   1  22
ATOM     22  C   UNL     1      -1.601  12.308  18.769  0.00  0.00    +0.000 C 
BRANCH  22  25
ATOM     23  N   UNL     1       0.880   9.630  19.103  0.00  0.00    +0.000 N 
ATOM     24  C   UNL     1      -0.104  10.258  18.384  0.00  0.00    +0.000 A 
ATOM     25  C   UNL     1      -0.738  11.159  19.229  0.00  0.00    +0.000 A 
ATOM     26  C   UNL     1      -0.480  10.641  20.546  0.00  0.00    +0.000 A 
ATOM     27  C   UNL     1      -1.042  10.860  21.821  0.00  0.00    +0.000 A 
ATOM     28  C   UNL     1      -0.556  10.146  22.925  0.00  0.00    +0.000 A 
ATOM     29  C   UNL     1       0.553   9.314  22.803  0.00  0.00    +0.000 A 
ATOM     30  C   UNL     1       1.171   9.123  21.566  0.00  0.00    +0.000 A 
ATOM     31  C   UNL     1       0.588   9.735  20.443  0.00  0.00    +0.000 A 
BRANCH  23  32
ATOM     32  C   UNL     1       2.110   9.123  18.516  0.00  0.00    +0.000 C 
BRANCH  32  33
ATOM     33  C   UNL     1       2.102   7.678  18.022  0.00  0.00    +0.000 C 
BRANCH  33  34
ATOM     34  C   UNL     1       2.575   6.667  19.059  0.00  0.00    +0.000 C 
BRANCH  34  36
ATOM     35  C   UNL     1       1.955   4.704  17.922  0.00  0.00    +0.000 C 
ATOM     36  O   UNL     1       3.040   5.490  18.398  0.00  0.00    +0.000 OA
ENDBRANCH  34  36
ENDBRANCH  33  34
ENDBRANCH  32  33
ENDBRANCH  23  32
ENDBRANCH  22  25
ENDBRANCH   1  22
TORSDOF 9
ENDMDL
MODEL 2
REMARK VINA RESULT:      -6.7      2.544      7.849
REMARK  Name = 
REMARK  11 active torsions:
REMARK  status: ('A' for Active; 'I' for Inactive)
REMARK    1  A    between atoms: C_1  and  O_2
REMARK    2  A    between atoms: O_2  and  C_3
REMARK    3  A    between atoms: C_3  and  C_4
REMARK    4  A    between atoms: C_4  and  C_5
REMARK    5  A    between atoms: C_5  and  N_6
REMARK    6  A    between atoms: C_8  and  C_9
REMARK    7  A    between atoms: C_9  and  N_10
REMARK    8  A    between atoms: N_10  and  C_27
REMARK    9  A    between atoms: C_11  and  C_13
REMARK   10  A    between atoms: C_18  and  C_19
REMARK   11  A    between atoms: N_22  and  C_23
REMARK                            x       y       z     vdW  Elec       q    Type
REMARK                         _______ _______ _______ _____ _____    ______ ____
ROOT
ATOM      1  N   UNL     1      -2.757  14.024  20.715  0.00  0.00    +0.000 N 
ATOM      2  C   UNL     1      -1.430  14.277  20.329  0.00  0.00    +0.000 C 
ATOM      3  O   UNL     1      -0.916  15.381  20.560  0.00  0.00    +0.000 OA
ENDROOT
BRANCH   2   4
ATOM      4  C   UNL     1      -0.576  13.207  19.615  0.00  0.00    +0.000 C 
ATOM      5  C   UNL     1       0.161  13.902  18.441  0.00  0.00    +0.000 C 
ATOM      6  N   UNL     1       1.333  14.703  18.822  0.00  0.00    +0.000 NA
ATOM      7  C   UNL     1       2.318  13.923  19.559  0.00  0.00    +0.000 C 
ATOM      8  C   UNL     1       1.720  13.276  20.803  0.00  0.00    +0.000 C 
ATOM      9  C   UNL     1       0.425  12.462  20.555  0.00  0.00    +0.000 C 
ATOM     10  H   UNL     1       0.995  15.471  19.417  0.00  0.00    +0.000 HD
BRANCH   9  11
ATOM     11  C   UNL     1       0.677  11.001  20.124  0.00  0.00    +0.000 A 
ATOM     12  C   UNL     1       0.536   9.912  21.074  0.00  0.00    +0.000 A 
ATOM     13  C   UNL     1       1.064   8.691  20.806  0.00  0.00    +0.000 A 
ATOM     14  N   UNL     1       1.678   8.427  19.603  0.00  0.00    +0.000 N 
ATOM     15  C   UNL     1       2.374   7.172  19.429  0.00  0.00    +0.000 C 
ATOM     16  C   UNL     1       1.629   9.333  18.550  0.00  0.00    +0.000 A 
ATOM     17  O   UNL     1       2.044   9.108  17.418  0.00  0.00    +0.000 OA
ATOM     18  C   UNL     1       1.108  10.698  18.884  0.00  0.00    +0.000 A 
ENDBRANCH   9  11
ENDBRANCH   2   4
BRANCH   1  19
ATOM     19  C   UNL     1      -3.367  15.103  21.506  0.00  0.00    +0.000 C 
ATOM     20  C   UNL     1      -4.450  15.963  20.887  0.00  0.00    +0.000 C 
ATOM     21  C   UNL     1      -4.753  15.124  22.087  0.00  0.00    +0.000 C 
ENDBRANCH   1  19
BRANCH   1  22
ATOM     22  C   UNL     1      -3.355  12.673  20.845  0.00  0.00    +0.000 C 
BRANCH  22  25
ATOM     23  N   UNL     1      -5.692  12.055  18.089  0.00  0.00    +0.000 N 
ATOM     24  C   UNL     1      -5.445  12.200  19.431  0.00  0.00    +0.000 A 
ATOM     25  C   UNL     1      -4.069  12.175  19.613  0.00  0.00    +0.000 A 
ATOM     26  C   UNL     1      -3.578  11.467  18.460  0.00  0.00    +0.000 A 
ATOM     27  C   UNL     1      -2.361  10.831  18.135  0.00  0.00    +0.000 A 
ATOM     28  C   UNL     1      -2.222  10.193  16.896  0.00  0.00    +0.000 A 
ATOM     29  C   UNL     1      -3.223  10.281  15.932  0.00  0.00    +0.000 A 
ATOM     30  C   UNL     1      -4.416  10.955  16.200  0.00  0.00    +0.000 A 
ATOM     31  C   UNL     1      -4.599  11.470  17.495  0.00  0.00    +0.000 A 
BRANCH  23  32
ATOM     32  C   UNL     1      -6.853  12.619  17.417  0.00  0.00    +0.000 C 
BRANCH  32  33
ATOM     33  C   UNL     1      -6.665  13.960  16.712  0.00  0.00    +0.000 C 
BRANCH  33  34
ATOM     34  C   UNL     1      -7.911  14.836  16.706  0.00  0.00    +0.000 C 
BRANCH  34  36
ATOM     35  C   UNL     1      -6.620  16.457  17.818  0.00  0.00    +0.000 C 
ATOM     36  O   UNL     1      -7.855  15.753  17.799  0.00  0.00    +0.000 OA
ENDBRANCH  34  36
ENDBRANCH  33  34
ENDBRANCH  32  33
ENDBRANCH  23  32
ENDBRANCH  22  25
ENDBRANCH   1  22
TORSDOF 9
ENDMDL
MODEL 3
REMARK VINA RESULT:      -6.5      2.745      5.218
REMARK  Name = 
REMARK  11 active torsions:
REMARK  status: ('A' for Active; 'I' for Inactive)
REMARK    1  A    between atoms: C_1  and  O_2
REMARK    2  A    between atoms: O_2  and  C_3
REMARK    3  A    between atoms: C_3  and  C_4
REMARK    4  A    between atoms: C_4  and  C_5
REMARK    5  A    between atoms: C_5  and  N_6
REMARK    6  A    between atoms: C_8  and  C_9
REMARK    7  A    between atoms: C_9  and  N_10
REMARK    8  A    between atoms: N_10  and  C_27
REMARK    9  A    between atoms: C_11  and  C_13
REMARK   10  A    between atoms: C_18  and  C_19
REMARK   11  A    between atoms: N_22  and  C_23
REMARK                            x       y       z     vdW  Elec       q    Type
REMARK                         _______ _______ _______ _____ _____    ______ ____
ROOT
ATOM      1  N   UNL     1      -3.156  11.483  18.253  0.00  0.00    +0.000 N 
ATOM      2  C   UNL     1      -4.483  11.553  18.709  0.00  0.00    +0.000 C 
ATOM      3  O   UNL     1      -5.244  10.586  18.552  0.00  0.00    +0.000 OA
ENDROOT
BRANCH   2   4
ATOM      4  C   UNL     1      -5.035  12.812  19.410  0.00  0.00    +0.000 C 
ATOM      5  C   UNL     1      -6.233  13.329  18.572  0.00  0.00    +0.000 C 
ATOM      6  N   UNL     1      -7.487  12.583  18.744  0.00  0.00    +0.000 NA
ATOM      7  C   UNL     1      -7.913  12.533  20.136  0.00  0.00    +0.000 C 
ATOM      8  C   UNL     1      -6.841  11.938  21.041  0.00  0.00    +0.000 C 
ATOM      9  C   UNL     1      -5.439  12.583  20.902  0.00  0.00    +0.000 C 
ATOM     10  H   UNL     1      -7.319  11.625  18.408  0.00  0.00    +0.000 HD
BRANCH   9  11
ATOM     11  C   UNL     1      -5.238  13.840  21.777  0.00  0.00    +0.000 A 
ATOM     12  C   UNL     1      -5.800  13.912  23.113  0.00  0.00    +0.000 A 
ATOM     13  C   UNL     1      -5.914  15.105  23.749  0.00  0.00    +0.000 A 
ATOM     14  N   UNL     1      -5.437  16.265  23.183  0.00  0.00    +0.000 N 
ATOM     15  C   UNL     1      -5.733  17.530  23.816  0.00  0.00    +0.000 C 
ATOM     16  C   UNL     1      -4.664  16.243  22.027  0.00  0.00    +0.000 A 
ATOM     17  O   UNL     1      -4.105  17.222  21.545  0.00  0.00    +0.000 OA
ATOM     18  C   UNL     1      -4.608  14.933  21.303  0.00  0.00    +0.000 A 
ENDBRANCH   9  11
ENDBRANCH   2   4
BRANCH   1  19
ATOM     19  C   UNL     1      -2.766  10.162  17.741  0.00  0.00    +0.000 C 
ATOM     20  C   UNL     1      -2.715   9.926  16.245  0.00  0.00    +0.000 C 
ATOM     21  C   UNL     1      -1.472   9.800  17.067  0.00  0.00    +0.000 C 
ENDBRANCH   1  19
BRANCH   1  22
ATOM     22  C   UNL     1      -2.063  12.382  18.699  0.00  0.00    +0.000 C 
BRANCH  22  25
ATOM     23  N   UNL     1      -1.598  12.613  22.327  0.00  0.00    +0.000 N 
ATOM     24  C   UNL     1      -1.647  13.209  21.093  0.00  0.00    +0.000 A 
ATOM     25  C   UNL     1      -1.642  12.203  20.136  0.00  0.00    +0.000 A 
ATOM     26  C   UNL     1      -1.036  11.086  20.809  0.00  0.00    +0.000 A 
ATOM     27  C   UNL     1      -0.457   9.872  20.384  0.00  0.00    +0.000 A 
ATOM     28  C   UNL     1       0.082   8.992  21.332  0.00  0.00    +0.000 A 
ATOM     29  C   UNL     1      -0.053   9.240  22.695  0.00  0.00    +0.000 A 
ATOM     30  C   UNL     1      -0.676  10.404  23.150  0.00  0.00    +0.000 A 
ATOM     31  C   UNL     1      -1.087  11.344  22.189  0.00  0.00    +0.000 A 
BRANCH  23  32
ATOM     32  C   UNL     1      -2.183  13.193  23.527  0.00  0.00    +0.000 C 
BRANCH  32  33
ATOM     33  C   UNL     1      -1.510  14.439  24.097  0.00  0.00    +0.000 C 
BRANCH  33  34
ATOM     34  C   UNL     1      -2.418  15.282  24.983  0.00  0.00    +0.000 C 
BRANCH  34  36
ATOM     35  C   UNL     1      -2.111  17.591  24.652  0.00  0.00    +0.000 C 
ATOM     36  O   UNL     1      -1.717  16.452  25.407  0.00  0.00    +0.000 OA
ENDBRANCH  34  36
ENDBRANCH  33  34
ENDBRANCH  32  33
ENDBRANCH  23  32
ENDBRANCH  22  25
ENDBRANCH   1  22
TORSDOF 9
ENDMDL
MODEL 4
REMARK VINA RESULT:      -6.5      0.985      1.155
REMARK  Name = 
REMARK  11 active torsions:
REMARK  status: ('A' for Active; 'I' for Inactive)
REMARK    1  A    between atoms: C_1  and  O_2
REMARK    2  A    between atoms: O_2  and  C_3
REMARK    3  A    between atoms: C_3  and  C_4
REMARK    4  A    between atoms: C_4  and  C_5
REMARK    5  A    between atoms: C_5  and  N_6
REMARK    6  A    between atoms: C_8  and  C_9
REMARK    7  A    between atoms: C_9  and  N_10
REMARK    8  A    between atoms: N_10  and  C_27
REMARK    9  A    between atoms: C_11  and  C_13
REMARK   10  A    between atoms: C_18  and  C_19
REMARK   11  A    between atoms: N_22  and  C_23
REMARK                            x       y       z     vdW  Elec       q    Type
REMARK                         _______ _______ _______ _____ _____    ______ ____
ROOT
ATOM      1  N   UNL     1      -2.846  12.058  18.787  0.00  0.00    +0.000 N 
ATOM      2  C   UNL     1      -3.716  12.551  19.774  0.00  0.00    +0.000 C 
ATOM      3  O   UNL     1      -4.857  12.079  19.887  0.00  0.00    +0.000 OA
ENDROOT
BRANCH   2   4
ATOM      4  C   UNL     1      -3.292  13.679  20.739  0.00  0.00    +0.000 C 
ATOM      5  C   UNL     1      -4.442  14.718  20.780  0.00  0.00    +0.000 C 
ATOM      6  N   UNL     1      -5.600  14.339  21.601  0.00  0.00    +0.000 NA
ATOM      7  C   UNL     1      -5.227  14.040  22.977  0.00  0.00    +0.000 C 
ATOM      8  C   UNL     1      -4.168  12.947  23.058  0.00  0.00    +0.000 C 
ATOM      9  C   UNL     1      -2.920  13.183  22.173  0.00  0.00    +0.000 C 
ATOM     10  H   UNL     1      -6.014  13.500  21.174  0.00  0.00    +0.000 HD
BRANCH   9  11
ATOM     11  C   UNL     1      -1.831  14.049  22.842  0.00  0.00    +0.000 A 
ATOM     12  C   UNL     1      -1.931  14.415  24.243  0.00  0.00    +0.000 A 
ATOM     13  C   UNL     1      -1.177  15.424  24.747  0.00  0.00    +0.000 A 
ATOM     14  N   UNL     1      -0.248  16.078  23.971  0.00  0.00    +0.000 N 
ATOM     15  C   UNL     1       0.406  17.255  24.498  0.00  0.00    +0.000 C 
ATOM     16  C   UNL     1       0.085  15.622  22.701  0.00  0.00    +0.000 A 
ATOM     17  O   UNL     1       0.990  16.081  22.012  0.00  0.00    +0.000 OA
ATOM     18  C   UNL     1      -0.802  14.556  22.135  0.00  0.00    +0.000 A 
ENDBRANCH   9  11
ENDBRANCH   2   4
BRANCH   1  19
ATOM     19  C   UNL     1      -3.366  10.892  18.057  0.00  0.00    +0.000 C 
ATOM     20  C   UNL     1      -4.224  11.104  16.826  0.00  0.00    +0.000 C 
ATOM     21  C   UNL     1      -2.913  10.392  16.715  0.00  0.00    +0.000 C 
ENDBRANCH   1  19
BRANCH   1  22
ATOM     22  C   UNL     1      -1.376  12.252  18.785  0.00  0.00    +0.000 C 
BRANCH  22  25
ATOM     23  N   UNL     1       0.944   9.434  19.121  0.00  0.00    +0.000 N 
ATOM     24  C   UNL     1      -0.009  10.113  18.405  0.00  0.00    +0.000 A 
ATOM     25  C   UNL     1      -0.578  11.058  19.248  0.00  0.00    +0.000 A 
ATOM     26  C   UNL     1      -0.339  10.537  20.567  0.00  0.00    +0.000 A 
ATOM     27  C   UNL     1      -0.873  10.801  21.846  0.00  0.00    +0.000 A 
ATOM     28  C   UNL     1      -0.419  10.070  22.951  0.00  0.00    +0.000 A 
ATOM     29  C   UNL     1       0.637   9.172  22.827  0.00  0.00    +0.000 A 
ATOM     30  C   UNL     1       1.230   8.933  21.586  0.00  0.00    +0.000 A 
ATOM     31  C   UNL     1       0.673   9.568  20.463  0.00  0.00    +0.000 A 
BRANCH  23  32
ATOM     32  C   UNL     1       2.135   8.848  18.526  0.00  0.00    +0.000 C 
BRANCH  32  33
ATOM     33  C   UNL     1       2.112   7.346  18.255  0.00  0.00    +0.000 C 
BRANCH  33  34
ATOM     34  C   UNL     1       3.213   6.571  18.967  0.00  0.00    +0.000 C 
BRANCH  34  36
ATOM     35  C   UNL     1       1.795   5.416  20.446  0.00  0.00    +0.000 C 
ATOM     36  O   UNL     1       2.715   5.294  19.368  0.00  0.00    +0.000 OA
ENDBRANCH  34  36
ENDBRANCH  33  34
ENDBRANCH  32  33
ENDBRANCH  23  32
ENDBRANCH  22  25
ENDBRANCH   1  22
TORSDOF 9
ENDMDL
MODEL 5
REMARK VINA RESULT:      -6.4      2.767      5.322
REMARK  Name = 
REMARK  11 active torsions:
REMARK  status: ('A' for Active; 'I' for Inactive)
REMARK    1  A    between atoms: C_1  and  O_2
REMARK    2  A    between atoms: O_2  and  C_3
REMARK    3  A    between atoms: C_3  and  C_4
REMARK    4  A    between atoms: C_4  and  C_5
REMARK    5  A    between atoms: C_5  and  N_6
REMARK    6  A    between atoms: C_8  and  C_9
REMARK    7  A    between atoms: C_9  and  N_10
REMARK    8  A    between atoms: N_10  and  C_27
REMARK    9  A    between atoms: C_11  and  C_13
REMARK   10  A    between atoms: C_18  and  C_19
REMARK   11  A    between atoms: N_22  and  C_23
REMARK                            x       y       z     vdW  Elec       q    Type
REMARK                         _______ _______ _______ _____ _____    ______ ____
ROOT
ATOM      1  N   UNL     1      -3.160  11.533  18.235  0.00  0.00    +0.000 N 
ATOM      2  C   UNL     1      -4.531  11.563  18.541  0.00  0.00    +0.000 C 
ATOM      3  O   UNL     1      -5.230  10.555  18.358  0.00  0.00    +0.000 OA
ENDROOT
BRANCH   2   4
ATOM      4  C   UNL     1      -5.207  12.830  19.108  0.00  0.00    +0.000 C 
ATOM      5  C   UNL     1      -6.583  12.979  18.409  0.00  0.00    +0.000 C 
ATOM      6  N   UNL     1      -7.641  12.090  18.910  0.00  0.00    +0.000 NA
ATOM      7  C   UNL     1      -7.856  12.240  20.342  0.00  0.00    +0.000 C 
ATOM      8  C   UNL     1      -6.579  12.008  21.140  0.00  0.00    +0.000 C 
ATOM      9  C   UNL     1      -5.355  12.829  20.664  0.00  0.00    +0.000 C 
ATOM     10  H   UNL     1      -7.345  11.125  18.712  0.00  0.00    +0.000 HD
BRANCH   9  11
ATOM     11  C   UNL     1      -5.274  14.245  21.274  0.00  0.00    +0.000 A 
ATOM     12  C   UNL     1      -4.589  15.316  20.575  0.00  0.00    +0.000 A 
ATOM     13  C   UNL     1      -4.229  16.448  21.231  0.00  0.00    +0.000 A 
ATOM     14  N   UNL     1      -4.567  16.647  22.550  0.00  0.00    +0.000 N 
ATOM     15  C   UNL     1      -4.018  17.784  23.254  0.00  0.00    +0.000 C 
ATOM     16  C   UNL     1      -5.435  15.787  23.213  0.00  0.00    +0.000 A 
ATOM     17  O   UNL     1      -5.874  15.976  24.343  0.00  0.00    +0.000 OA
ATOM     18  C   UNL     1      -5.764  14.511  22.501  0.00  0.00    +0.000 A 
ENDBRANCH   9  11
ENDBRANCH   2   4
BRANCH   1  19
ATOM     19  C   UNL     1      -2.662  10.207  17.841  0.00  0.00    +0.000 C 
ATOM     20  C   UNL     1      -2.596   9.839  16.373  0.00  0.00    +0.000 C 
ATOM     21  C   UNL     1      -1.345   9.893  17.190  0.00  0.00    +0.000 C 
ENDBRANCH   1  19
BRANCH   1  22
ATOM     22  C   UNL     1      -2.160  12.503  18.744  0.00  0.00    +0.000 C 
BRANCH  22  25
ATOM     23  N   UNL     1      -1.785  12.669  22.386  0.00  0.00    +0.000 N 
ATOM     24  C   UNL     1      -1.829  13.291  21.164  0.00  0.00    +0.000 A 
ATOM     25  C   UNL     1      -1.764  12.308  20.186  0.00  0.00    +0.000 A 
ATOM     26  C   UNL     1      -1.131  11.198  20.849  0.00  0.00    +0.000 A 
ATOM     27  C   UNL     1      -0.498  10.017  20.410  0.00  0.00    +0.000 A 
ATOM     28  C   UNL     1       0.053   9.136  21.350  0.00  0.00    +0.000 A 
ATOM     29  C   UNL     1      -0.122   9.348  22.715  0.00  0.00    +0.000 A 
ATOM     30  C   UNL     1      -0.798  10.478  23.181  0.00  0.00    +0.000 A 
ATOM     31  C   UNL     1      -1.223  11.423  22.232  0.00  0.00    +0.000 A 
BRANCH  23  32
ATOM     32  C   UNL     1      -2.417  13.198  23.584  0.00  0.00    +0.000 C 
BRANCH  32  33
ATOM     33  C   UNL     1      -2.049  14.622  23.995  0.00  0.00    +0.000 C 
BRANCH  33  34
ATOM     34  C   UNL     1      -2.530  15.009  25.387  0.00  0.00    +0.000 C 
BRANCH  34  36
ATOM     35  C   UNL     1      -0.746  16.004  26.554  0.00  0.00    +0.000 C 
ATOM     36  O   UNL     1      -1.916  16.237  25.780  0.00  0.00    +0.000 OA
ENDBRANCH  34  36
ENDBRANCH  33  34
ENDBRANCH  32  33
ENDBRANCH  23  32
ENDBRANCH  22  25
ENDBRANCH   1  22
TORSDOF 9
ENDMDL
MODEL 6
REMARK VINA RESULT:      -6.4      1.242      1.547
REMARK  Name = 
REMARK  11 active torsions:
REMARK  status: ('A' for Active; 'I' for Inactive)
REMARK    1  A    between atoms: C_1  and  O_2
REMARK    2  A    between atoms: O_2  and  C_3
REMARK    3  A    between atoms: C_3  and  C_4
REMARK    4  A    between atoms: C_4  and  C_5
REMARK    5  A    between atoms: C_5  and  N_6
REMARK    6  A    between atoms: C_8  and  C_9
REMARK    7  A    between atoms: C_9  and  N_10
REMARK    8  A    between atoms: N_10  and  C_27
REMARK    9  A    between atoms: C_11  and  C_13
REMARK   10  A    between atoms: C_18  and  C_19
REMARK   11  A    between atoms: N_22  and  C_23
REMARK                            x       y       z     vdW  Elec       q    Type
REMARK                         _______ _______ _______ _____ _____    ______ ____
ROOT
ATOM      1  N   UNL     1      -3.362  12.270  19.140  0.00  0.00    +0.000 N 
ATOM      2  C   UNL     1      -4.324  12.647  20.093  0.00  0.00    +0.000 C 
ATOM      3  O   UNL     1      -5.408  12.047  20.151  0.00  0.00    +0.000 OA
ENDROOT
BRANCH   2   4
ATOM      4  C   UNL     1      -4.072  13.801  21.087  0.00  0.00    +0.000 C 
ATOM      5  C   UNL     1      -5.452  14.381  21.492  0.00  0.00    +0.000 C 
ATOM      6  N   UNL     1      -6.201  13.587  22.475  0.00  0.00    +0.000 NA
ATOM      7  C   UNL     1      -5.442  13.363  23.698  0.00  0.00    +0.000 C 
ATOM      8  C   UNL     1      -4.100  12.694  23.423  0.00  0.00    +0.000 C 
ATOM      9  C   UNL     1      -3.236  13.388  22.341  0.00  0.00    +0.000 C 
ATOM     10  H   UNL     1      -6.411  12.680  22.037  0.00  0.00    +0.000 HD
BRANCH   9  11
ATOM     11  C   UNL     1      -2.359  14.538  22.881  0.00  0.00    +0.000 A 
ATOM     12  C   UNL     1      -1.829  15.551  21.987  0.00  0.00    +0.000 A 
ATOM     13  C   UNL     1      -0.810  16.354  22.382  0.00  0.00    +0.000 A 
ATOM     14  N   UNL     1      -0.301  16.287  23.659  0.00  0.00    +0.000 N 
ATOM     15  C   UNL     1       0.891  17.037  23.982  0.00  0.00    +0.000 C 
ATOM     16  C   UNL     1      -0.918  15.527  24.646  0.00  0.00    +0.000 A 
ATOM     17  O   UNL     1      -0.592  15.523  25.828  0.00  0.00    +0.000 OA
ATOM     18  C   UNL     1      -1.993  14.594  24.177  0.00  0.00    +0.000 A 
ENDBRANCH   9  11
ENDBRANCH   2   4
BRANCH   1  19
ATOM     19  C   UNL     1      -3.715  11.065  18.376  0.00  0.00    +0.000 C 
ATOM     20  C   UNL     1      -4.694  11.170  17.224  0.00  0.00    +0.000 C 
ATOM     21  C   UNL     1      -3.288  10.727  16.976  0.00  0.00    +0.000 C 
ENDBRANCH   1  19
BRANCH   1  22
ATOM     22  C   UNL     1      -1.924  12.629  19.205  0.00  0.00    +0.000 C 
BRANCH  22  25
ATOM     23  N   UNL     1       0.664  10.035  19.125  0.00  0.00    +0.000 N 
ATOM     24  C   UNL     1      -0.383  10.691  18.529  0.00  0.00    +0.000 A 
ATOM     25  C   UNL     1      -0.996  11.476  19.496  0.00  0.00    +0.000 A 
ATOM     26  C   UNL     1      -0.643  10.839  20.737  0.00  0.00    +0.000 A 
ATOM     27  C   UNL     1      -1.135  10.906  22.057  0.00  0.00    +0.000 A 
ATOM     28  C   UNL     1      -0.560  10.106  23.053  0.00  0.00    +0.000 A 
ATOM     29  C   UNL     1       0.569   9.336  22.785  0.00  0.00    +0.000 A 
ATOM     30  C   UNL     1       1.118   9.296  21.502  0.00  0.00    +0.000 A 
ATOM     31  C   UNL     1       0.449   9.993  20.482  0.00  0.00    +0.000 A 
BRANCH  23  32
ATOM     32  C   UNL     1       1.875   9.640  18.421  0.00  0.00    +0.000 C 
BRANCH  32  33
ATOM     33  C   UNL     1       1.882   8.259  17.769  0.00  0.00    +0.000 C 
BRANCH  33  34
ATOM     34  C   UNL     1       2.702   7.222  18.524  0.00  0.00    +0.000 C 
BRANCH  34  36
ATOM     35  C   UNL     1       4.014   5.511  17.584  0.00  0.00    +0.000 C 
ATOM     36  O   UNL     1       3.882   6.914  17.781  0.00  0.00    +0.000 OA
ENDBRANCH  34  36
ENDBRANCH  33  34
ENDBRANCH  32  33
ENDBRANCH  23  32
ENDBRANCH  22  25
ENDBRANCH   1  22
TORSDOF 9
ENDMDL
MODEL 7
REMARK VINA RESULT:      -6.4      2.780      6.451
REMARK  Name = 
REMARK  11 active torsions:
REMARK  status: ('A' for Active; 'I' for Inactive)
REMARK    1  A    between atoms: C_1  and  O_2
REMARK    2  A    between atoms: O_2  and  C_3
REMARK    3  A    between atoms: C_3  and  C_4
REMARK    4  A    between atoms: C_4  and  C_5
REMARK    5  A    between atoms: C_5  and  N_6
REMARK    6  A    between atoms: C_8  and  C_9
REMARK    7  A    between atoms: C_9  and  N_10
REMARK    8  A    between atoms: N_10  and  C_27
REMARK    9  A    between atoms: C_11  and  C_13
REMARK   10  A    between atoms: C_18  and  C_19
REMARK   11  A    between atoms: N_22  and  C_23
REMARK                            x       y       z     vdW  Elec       q    Type
REMARK                         _______ _______ _______ _____ _____    ______ ____
ROOT
ATOM      1  N   UNL     1       1.462  10.839  19.106  0.00  0.00    +0.000 N 
ATOM      2  C   UNL     1       1.886  12.167  18.931  0.00  0.00    +0.000 C 
ATOM      3  O   UNL     1       2.494  12.494  17.901  0.00  0.00    +0.000 OA
ENDROOT
BRANCH   2   4
ATOM      4  C   UNL     1       1.615  13.251  19.996  0.00  0.00    +0.000 C 
ATOM      5  C   UNL     1       2.986  13.796  20.470  0.00  0.00    +0.000 C 
ATOM      6  N   UNL     1       3.637  14.742  19.553  0.00  0.00    +0.000 NA
ATOM      7  C   UNL     1       2.790  15.888  19.250  0.00  0.00    +0.000 C 
ATOM      8  C   UNL     1       1.444  15.466  18.673  0.00  0.00    +0.000 C 
ATOM      9  C   UNL     1       0.682  14.405  19.505  0.00  0.00    +0.000 C 
ATOM     10  H   UNL     1       3.839  14.232  18.683  0.00  0.00    +0.000 HD
BRANCH   9  11
ATOM     11  C   UNL     1      -0.183  14.999  20.638  0.00  0.00    +0.000 A 
ATOM     12  C   UNL     1      -1.056  16.131  20.390  0.00  0.00    +0.000 A 
ATOM     13  C   UNL     1      -1.555  16.856  21.422  0.00  0.00    +0.000 A 
ATOM     14  N   UNL     1      -1.313  16.499  22.729  0.00  0.00    +0.000 N 
ATOM     15  C   UNL     1      -1.719  17.393  23.790  0.00  0.00    +0.000 C 
ATOM     16  C   UNL     1      -0.703  15.291  23.048  0.00  0.00    +0.000 A 
ATOM     17  O   UNL     1      -0.573  14.857  24.188  0.00  0.00    +0.000 OA
ATOM     18  C   UNL     1      -0.096  14.541  21.902  0.00  0.00    +0.000 A 
ENDBRANCH   9  11
ENDBRANCH   2   4
BRANCH   1  19
ATOM     19  C   UNL     1       1.680   9.981  17.932  0.00  0.00    +0.000 C 
ATOM     20  C   UNL     1       2.823   8.986  17.936  0.00  0.00    +0.000 C 
ATOM     21  C   UNL     1       1.411   8.506  17.830  0.00  0.00    +0.000 C 
ENDBRANCH   1  19
BRANCH   1  22
ATOM     22  C   UNL     1       0.427  10.404  20.074  0.00  0.00    +0.000 C 
BRANCH  22  25
ATOM     23  N   UNL     1      -2.792  12.156  19.986  0.00  0.00    +0.000 N 
ATOM     24  C   UNL     1      -1.807  11.510  20.689  0.00  0.00    +0.000 A 
ATOM     25  C   UNL     1      -0.969  10.891  19.772  0.00  0.00    +0.000 A 
ATOM     26  C   UNL     1      -1.792  10.728  18.603  0.00  0.00    +0.000 A 
ATOM     27  C   UNL     1      -1.705   9.941  17.435  0.00  0.00    +0.000 A 
ATOM     28  C   UNL     1      -2.726  10.006  16.478  0.00  0.00    +0.000 A 
ATOM     29  C   UNL     1      -3.764  10.925  16.604  0.00  0.00    +0.000 A 
ATOM     30  C   UNL     1      -3.846  11.762  17.718  0.00  0.00    +0.000 A 
ATOM     31  C   UNL     1      -2.893  11.588  18.737  0.00  0.00    +0.000 A 
BRANCH  23  32
ATOM     32  C   UNL     1      -3.458  13.362  20.453  0.00  0.00    +0.000 C 
BRANCH  32  33
ATOM     33  C   UNL     1      -4.423  13.216  21.626  0.00  0.00    +0.000 C 
BRANCH  33  34
ATOM     34  C   UNL     1      -4.023  14.014  22.861  0.00  0.00    +0.000 C 
BRANCH  34  36
ATOM     35  C   UNL     1      -4.430  12.464  24.582  0.00  0.00    +0.000 C 
ATOM     36  O   UNL     1      -3.434  13.140  23.824  0.00  0.00    +0.000 OA
ENDBRANCH  34  36
ENDBRANCH  33  34
ENDBRANCH  32  33
ENDBRANCH  23  32
ENDBRANCH  22  25
ENDBRANCH   1  22
TORSDOF 9
ENDMDL
MODEL 8
REMARK VINA RESULT:      -6.4      3.981      9.786
REMARK  Name = 
REMARK  11 active torsions:
REMARK  status: ('A' for Active; 'I' for Inactive)
REMARK    1  A    between atoms: C_1  and  O_2
REMARK    2  A    between atoms: O_2  and  C_3
REMARK    3  A    between atoms: C_3  and  C_4
REMARK    4  A    between atoms: C_4  and  C_5
REMARK    5  A    between atoms: C_5  and  N_6
REMARK    6  A    between atoms: C_8  and  C_9
REMARK    7  A    between atoms: C_9  and  N_10
REMARK    8  A    between atoms: N_10  and  C_27
REMARK    9  A    between atoms: C_11  and  C_13
REMARK   10  A    between atoms: C_18  and  C_19
REMARK   11  A    between atoms: N_22  and  C_23
REMARK                            x       y       z     vdW  Elec       q    Type
REMARK                         _______ _______ _______ _____ _____    ______ ____
ROOT
ATOM      1  N   UNL     1       1.609   7.957  20.389  0.00  0.00    +0.000 N 
ATOM      2  C   UNL     1       1.795   6.571  20.524  0.00  0.00    +0.000 C 
ATOM      3  O   UNL     1       1.094   5.925  21.317  0.00  0.00    +0.000 OA
ENDROOT
BRANCH   2   4
ATOM      4  C   UNL     1       2.861   5.812  19.704  0.00  0.00    +0.000 C 
ATOM      5  C   UNL     1       3.098   4.445  20.395  0.00  0.00    +0.000 C 
ATOM      6  N   UNL     1       2.065   3.429  20.147  0.00  0.00    +0.000 NA
ATOM      7  C   UNL     1       1.870   3.176  18.726  0.00  0.00    +0.000 C 
ATOM      8  C   UNL     1       1.524   4.448  17.961  0.00  0.00    +0.000 C 
ATOM      9  C   UNL     1       2.493   5.633  18.196  0.00  0.00    +0.000 C 
ATOM     10  H   UNL     1       1.188   3.783  20.551  0.00  0.00    +0.000 HD
BRANCH   9  11
ATOM     11  C   UNL     1       3.732   5.621  17.275  0.00  0.00    +0.000 A 
ATOM     12  C   UNL     1       4.004   4.487  16.411  0.00  0.00    +0.000 A 
ATOM     13  C   UNL     1       5.233   4.320  15.859  0.00  0.00    +0.000 A 
ATOM     14  N   UNL     1       6.229   5.251  16.039  0.00  0.00    +0.000 N 
ATOM     15  C   UNL     1       7.566   4.949  15.579  0.00  0.00    +0.000 C 
ATOM     16  C   UNL     1       5.974   6.479  16.638  0.00  0.00    +0.000 A 
ATOM     17  O   UNL     1       6.783   7.398  16.714  0.00  0.00    +0.000 OA
ATOM     18  C   UNL     1       4.638   6.619  17.302  0.00  0.00    +0.000 A 
ENDBRANCH   9  11
ENDBRANCH   2   4
BRANCH   1  19
ATOM     19  C   UNL     1       0.459   8.484  21.140  0.00  0.00    +0.000 C 
ATOM     20  C   UNL     1       0.647   8.936  22.573  0.00  0.00    +0.000 C 
ATOM     21  C   UNL     1       0.214   9.914  21.529  0.00  0.00    +0.000 C 
ENDBRANCH   1  19
BRANCH   1  22
ATOM     22  C   UNL     1       2.092   8.766  19.244  0.00  0.00    +0.000 C 
BRANCH  22  25
ATOM     23  N   UNL     1      -0.894  10.257  17.729  0.00  0.00    +0.000 N 
ATOM     24  C   UNL     1       0.069   9.280  17.750  0.00  0.00    +0.000 A 
ATOM     25  C   UNL     1       1.061   9.682  18.634  0.00  0.00    +0.000 A 
ATOM     26  C   UNL     1       0.926  11.114  18.681  0.00  0.00    +0.000 A 
ATOM     27  C   UNL     1       1.752  12.170  19.119  0.00  0.00    +0.000 A 
ATOM     28  C   UNL     1       1.310  13.494  18.992  0.00  0.00    +0.000 A 
ATOM     29  C   UNL     1       0.020  13.776  18.553  0.00  0.00    +0.000 A 
ATOM     30  C   UNL     1      -0.845  12.749  18.169  0.00  0.00    +0.000 A 
ATOM     31  C   UNL     1      -0.341  11.437  18.169  0.00  0.00    +0.000 A 
BRANCH  23  32
ATOM     32  C   UNL     1      -2.301   9.997  17.464  0.00  0.00    +0.000 C 
BRANCH  32  33
ATOM     33  C   UNL     1      -2.923  10.697  16.259  0.00  0.00    +0.000 C 
BRANCH  33  34
ATOM     34  C   UNL     1      -4.363  11.144  16.477  0.00  0.00    +0.000 C 
BRANCH  34  36
ATOM     35  C   UNL     1      -5.147  12.115  18.471  0.00  0.00    +0.000 C 
ATOM     36  O   UNL     1      -4.734  10.911  17.836  0.00  0.00    +0.000 OA
ENDBRANCH  34  36
ENDBRANCH  33  34
ENDBRANCH  32  33
ENDBRANCH  23  32
ENDBRANCH  22  25
ENDBRANCH   1  22
TORSDOF 9
ENDMDL
MODEL 9
REMARK VINA RESULT:      -6.3      2.577      5.517
REMARK  Name = 
REMARK  11 active torsions:
REMARK  status: ('A' for Active; 'I' for Inactive)
REMARK    1  A    between atoms: C_1  and  O_2
REMARK    2  A    between atoms: O_2  and  C_3
REMARK    3  A    between atoms: C_3  and  C_4
REMARK    4  A    between atoms: C_4  and  C_5
REMARK    5  A    between atoms: C_5  and  N_6
REMARK    6  A    between atoms: C_8  and  C_9
REMARK    7  A    between atoms: C_9  and  N_10
REMARK    8  A    between atoms: N_10  and  C_27
REMARK    9  A    between atoms: C_11  and  C_13
REMARK   10  A    between atoms: C_18  and  C_19
REMARK   11  A    between atoms: N_22  and  C_23
REMARK                            x       y       z     vdW  Elec       q    Type
REMARK                         _______ _______ _______ _____ _____    ______ ____
ROOT
ATOM      1  N   UNL     1      -3.265  12.871  22.087  0.00  0.00    +0.000 N 
ATOM      2  C   UNL     1      -4.564  12.723  22.603  0.00  0.00    +0.000 C 
ATOM      3  O   UNL     1      -4.728  12.356  23.776  0.00  0.00    +0.000 OA
ENDROOT
BRANCH   2   4
ATOM      4  C   UNL     1      -5.815  13.007  21.744  0.00  0.00    +0.000 C 
ATOM      5  C   UNL     1      -7.032  12.369  22.462  0.00  0.00    +0.000 C 
ATOM      6  N   UNL     1      -7.548  13.124  23.612  0.00  0.00    +0.000 NA
ATOM      7  C   UNL     1      -7.913  14.489  23.257  0.00  0.00    +0.000 C 
ATOM      8  C   UNL     1      -6.748  15.248  22.633  0.00  0.00    +0.000 C 
ATOM      9  C   UNL     1      -6.055  14.523  21.453  0.00  0.00    +0.000 C 
ATOM     10  H   UNL     1      -6.803  13.147  24.320  0.00  0.00    +0.000 HD
BRANCH   9  11
ATOM     11  C   UNL     1      -6.726  14.771  20.084  0.00  0.00    +0.000 A 
ATOM     12  C   UNL     1      -7.572  13.760  19.478  0.00  0.00    +0.000 A 
ATOM     13  C   UNL     1      -7.889  13.827  18.161  0.00  0.00    +0.000 A 
ATOM     14  N   UNL     1      -7.484  14.885  17.381  0.00  0.00    +0.000 N 
ATOM     15  C   UNL     1      -7.697  14.829  15.952  0.00  0.00    +0.000 C 
ATOM     16  C   UNL     1      -6.891  16.012  17.940  0.00  0.00    +0.000 A 
ATOM     17  O   UNL     1      -6.623  17.037  17.321  0.00  0.00    +0.000 OA
ATOM     18  C   UNL     1      -6.485  15.893  19.377  0.00  0.00    +0.000 A 
ENDBRANCH   9  11
ENDBRANCH   2   4
BRANCH   1  19
ATOM     19  C   UNL     1      -2.200  12.696  23.086  0.00  0.00    +0.000 C 
ATOM     20  C   UNL     1      -1.308  11.474  23.020  0.00  0.00    +0.000 C 
ATOM     21  C   UNL     1      -0.721  12.840  22.862  0.00  0.00    +0.000 C 
ENDBRANCH   1  19
BRANCH   1  22
ATOM     22  C   UNL     1      -2.925  13.644  20.868  0.00  0.00    +0.000 C 
BRANCH  22  25
ATOM     23  N   UNL     1      -0.581  11.872  18.676  0.00  0.00    +0.000 N 
ATOM     24  C   UNL     1      -0.939  12.997  19.375  0.00  0.00    +0.000 A 
ATOM     25  C   UNL     1      -2.260  12.844  19.776  0.00  0.00    +0.000 A 
ATOM     26  C   UNL     1      -2.801  11.898  18.837  0.00  0.00    +0.000 A 
ATOM     27  C   UNL     1      -4.105  11.514  18.461  0.00  0.00    +0.000 A 
ATOM     28  C   UNL     1      -4.283  10.549  17.461  0.00  0.00    +0.000 A 
ATOM     29  C   UNL     1      -3.192   9.876  16.917  0.00  0.00    +0.000 A 
ATOM     30  C   UNL     1      -1.891  10.190  17.312  0.00  0.00    +0.000 A 
ATOM     31  C   UNL     1      -1.719  11.255  18.213  0.00  0.00    +0.000 A 
BRANCH  23  32
ATOM     32  C   UNL     1       0.776  11.352  18.626  0.00  0.00    +0.000 C 
BRANCH  32  33
ATOM     33  C   UNL     1       0.944   9.878  18.264  0.00  0.00    +0.000 C 
BRANCH  33  34
ATOM     34  C   UNL     1       1.361   8.997  19.435  0.00  0.00    +0.000 C 
BRANCH  34  36
ATOM     35  C   UNL     1       0.410   8.543  21.538  0.00  0.00    +0.000 C 
ATOM     36  O   UNL     1       0.869   9.557  20.652  0.00  0.00    +0.000 OA
ENDBRANCH  34  36
ENDBRANCH  33  34
ENDBRANCH  32  33
ENDBRANCH  23  32
ENDBRANCH  22  25
ENDBRANCH   1  22
TORSDOF 9
ENDMDL
