MODEL 1
REMARK VINA RESULT:      -7.5      0.000      0.000
REMARK  Name = 
REMARK  7 active torsions:
REMARK  status: ('A' for Active; 'I' for Inactive)
REMARK    1  A    between atoms: C_1  and  C_2
REMARK    2  A    between atoms: C_3  and  C_4
REMARK    3  A    between atoms: N_6  and  C_7
REMARK    4  A    between atoms: N_6  and  C_9
REMARK    5  A    between atoms: C_9  and  C_10
REMARK    6  A    between atoms: N_20  and  C_21
REMARK    7  A    between atoms: C_21  and  C_22
REMARK                            x       y       z     vdW  Elec       q    Type
REMARK                         _______ _______ _______ _____ _____    ______ ____
ROOT
ATOM      1  C   UNL     1       0.760   8.444  21.126  0.00  0.00    +0.000 C 
ATOM      2  C   UNL     1       1.150   8.778  19.731  0.00  0.00    +0.000 A 
ATOM      3  C   UNL     1       0.676   9.735  18.835  0.00  0.00    +0.000 A 
ATOM      4  N   UNL     1       1.352   9.618  17.633  0.00  0.00    +0.000 NA
ATOM      5  C   UNL     1       2.183   8.618  17.774  0.00  0.00    +0.000 A 
ATOM      6  N   UNL     1       2.134   8.101  19.039  0.00  0.00    +0.000 N 
ENDROOT
BRANCH   3   7
ATOM      7  C   UNL     1      -0.365  10.761  19.054  0.00  0.00    +0.000 C 
ATOM      8  O   UNL     1      -1.553  10.523  18.835  0.00  0.00    +0.000 OA
ATOM      9  N   UNL     1       0.078  12.010  19.511  0.00  0.00    +0.000 N 
BRANCH   9  10
ATOM     10  C   UNL     1       1.354  12.451  19.607  0.00  0.00    +0.000 C 
ATOM     11  N   UNL     1       2.415  12.915  19.678  0.00  0.00    +0.000 NA
ENDBRANCH   9  10
BRANCH   9  12
ATOM     12  C   UNL     1      -0.919  13.045  19.758  0.00  0.00    +0.000 C 
BRANCH  12  13
ATOM     13  C   UNL     1      -1.687  12.941  21.062  0.00  0.00    +0.000 A 
ATOM     14  C   UNL     1      -1.103  12.965  22.337  0.00  0.00    +0.000 A 
ATOM     15  C   UNL     1      -1.903  12.847  23.481  0.00  0.00    +0.000 A 
ATOM     16  C   UNL     1      -3.281  12.705  23.356  0.00  0.00    +0.000 A 
ATOM     17  F   UNL     1      -4.037  12.587  24.455  0.00  0.00    +0.000 F 
ATOM     18  C   UNL     1      -3.883  12.685  22.109  0.00  0.00    +0.000 A 
ATOM     19  C   UNL     1      -3.083  12.804  20.979  0.00  0.00    +0.000 A 
ATOM     20  F   UNL     1      -3.670  12.789  19.773  0.00  0.00    +0.000 F 
ENDBRANCH  12  13
ENDBRANCH   9  12
ENDBRANCH   3   7
BRANCH   6  21
ATOM     21  C   UNL     1       2.961   6.993  19.499  0.00  0.00    +0.000 C 
BRANCH  21  22
ATOM     22  C   UNL     1       2.281   5.657  19.302  0.00  0.00    +0.000 A 
ATOM     23  C   UNL     1       2.251   5.057  18.033  0.00  0.00    +0.000 A 
ATOM     24  C   UNL     1       1.617   3.825  17.844  0.00  0.00    +0.000 A 
ATOM     25  C   UNL     1       1.016   3.189  18.923  0.00  0.00    +0.000 A 
ATOM     26  F   UNL     1       0.400   2.015  18.739  0.00  0.00    +0.000 F 
ATOM     27  C   UNL     1       1.048   3.753  20.191  0.00  0.00    +0.000 A 
ATOM     28  C   UNL     1       1.685   4.980  20.382  0.00  0.00    +0.000 A 
ENDBRANCH  21  22
ENDBRANCH   6  21
TORSDOF 6
ENDMDL
MODEL 2
REMARK VINA RESULT:      -7.3      1.531      8.273
REMARK  Name = 
REMARK  7 active torsions:
REMARK  status: ('A' for Active; 'I' for Inactive)
REMARK    1  A    between atoms: C_1  and  C_2
REMARK    2  A    between atoms: C_3  and  C_4
REMARK    3  A    between atoms: N_6  and  C_7
REMARK    4  A    between atoms: N_6  and  C_9
REMARK    5  A    between atoms: C_9  and  C_10
REMARK    6  A    between atoms: N_20  and  C_21
REMARK    7  A    between atoms: C_21  and  C_22
REMARK                            x       y       z     vdW  Elec       q    Type
REMARK                         _______ _______ _______ _____ _____    ______ ____
ROOT
ATOM      1  C   UNL     1       1.596  11.875  20.174  0.00  0.00    +0.000 C 
ATOM      2  C   UNL     1       0.528  11.291  19.321  0.00  0.00    +0.000 A 
ATOM      3  C   UNL     1       0.473  10.117  18.570  0.00  0.00    +0.000 A 
ATOM      4  N   UNL     1      -0.745  10.043  17.917  0.00  0.00    +0.000 NA
ATOM      5  C   UNL     1      -1.397  11.133  18.230  0.00  0.00    +0.000 A 
ATOM      6  N   UNL     1      -0.692  11.902  19.112  0.00  0.00    +0.000 N 
ENDROOT
BRANCH   3   7
ATOM      7  C   UNL     1       1.496   9.058  18.447  0.00  0.00    +0.000 C 
ATOM      8  O   UNL     1       2.122   8.894  17.400  0.00  0.00    +0.000 OA
ATOM      9  N   UNL     1       1.701   8.256  19.577  0.00  0.00    +0.000 N 
BRANCH   9  10
ATOM     10  C   UNL     1       0.957   8.213  20.708  0.00  0.00    +0.000 C 
ATOM     11  N   UNL     1       0.244   8.182  21.622  0.00  0.00    +0.000 NA
ENDBRANCH   9  10
BRANCH   9  12
ATOM     12  C   UNL     1       2.716   7.210  19.505  0.00  0.00    +0.000 C 
BRANCH  12  13
ATOM     13  C   UNL     1       2.218   5.814  19.184  0.00  0.00    +0.000 A 
ATOM     14  C   UNL     1       1.967   5.332  17.891  0.00  0.00    +0.000 A 
ATOM     15  C   UNL     1       1.495   4.027  17.705  0.00  0.00    +0.000 A 
ATOM     16  C   UNL     1       1.274   3.202  18.803  0.00  0.00    +0.000 A 
ATOM     17  F   UNL     1       0.817   1.957  18.615  0.00  0.00    +0.000 F 
ATOM     18  C   UNL     1       1.522   3.650  20.090  0.00  0.00    +0.000 A 
ATOM     19  C   UNL     1       1.991   4.947  20.267  0.00  0.00    +0.000 A 
ATOM     20  F   UNL     1       2.234   5.376  21.514  0.00  0.00    +0.000 F 
ENDBRANCH  12  13
ENDBRANCH   9  12
ENDBRANCH   3   7
BRANCH   6  21
ATOM     21  C   UNL     1      -1.173  13.165  19.657  0.00  0.00    +0.000 C 
BRANCH  21  22
ATOM     22  C   UNL     1      -2.055  12.963  20.868  0.00  0.00    +0.000 A 
ATOM     23  C   UNL     1      -1.510  12.487  22.071  0.00  0.00    +0.000 A 
ATOM     24  C   UNL     1      -2.323  12.291  23.191  0.00  0.00    +0.000 A 
ATOM     25  C   UNL     1      -3.681  12.573  23.113  0.00  0.00    +0.000 A 
ATOM     26  F   UNL     1      -4.460  12.375  24.183  0.00  0.00    +0.000 F 
ATOM     27  C   UNL     1      -4.240  13.062  21.941  0.00  0.00    +0.000 A 
ATOM     28  C   UNL     1      -3.429  13.264  20.823  0.00  0.00    +0.000 A 
ENDBRANCH  21  22
ENDBRANCH   6  21
TORSDOF 6
ENDMDL
MODEL 3
REMARK VINA RESULT:      -7.3      1.407      1.706
REMARK  Name = 
REMARK  7 active torsions:
REMARK  status: ('A' for Active; 'I' for Inactive)
REMARK    1  A    between atoms: C_1  and  C_2
REMARK    2  A    between atoms: C_3  and  C_4
REMARK    3  A    between atoms: N_6  and  C_7
REMARK    4  A    between atoms: N_6  and  C_9
REMARK    5  A    between atoms: C_9  and  C_10
REMARK    6  A    between atoms: N_20  and  C_21
REMARK    7  A    between atoms: C_21  and  C_22
REMARK                            x       y       z     vdW  Elec       q    Type
REMARK                         _______ _______ _______ _____ _____    ______ ____
ROOT
ATOM      1  C   UNL     1       0.973   8.301  21.107  0.00  0.00    +0.000 C 
ATOM      2  C   UNL     1       1.337   8.615  19.701  0.00  0.00    +0.000 A 
ATOM      3  C   UNL     1       0.874   9.585  18.813  0.00  0.00    +0.000 A 
ATOM      4  N   UNL     1       1.513   9.439  17.594  0.00  0.00    +0.000 NA
ATOM      5  C   UNL     1       2.311   8.411  17.717  0.00  0.00    +0.000 A 
ATOM      6  N   UNL     1       2.277   7.901  18.986  0.00  0.00    +0.000 N 
ENDROOT
BRANCH   3   7
ATOM      7  C   UNL     1      -0.123  10.649  19.055  0.00  0.00    +0.000 C 
ATOM      8  O   UNL     1      -1.324  10.391  19.139  0.00  0.00    +0.000 OA
ATOM      9  N   UNL     1       0.375  11.954  19.172  0.00  0.00    +0.000 N 
BRANCH   9  10
ATOM     10  C   UNL     1       1.631  12.387  18.915  0.00  0.00    +0.000 C 
ATOM     11  N   UNL     1       2.680  12.775  18.608  0.00  0.00    +0.000 NA
ENDBRANCH   9  10
BRANCH   9  12
ATOM     12  C   UNL     1      -0.574  13.032  19.431  0.00  0.00    +0.000 C 
BRANCH  12  13
ATOM     13  C   UNL     1      -0.780  13.409  20.885  0.00  0.00    +0.000 A 
ATOM     14  C   UNL     1      -1.577  12.695  21.792  0.00  0.00    +0.000 A 
ATOM     15  C   UNL     1      -1.712  13.138  23.113  0.00  0.00    +0.000 A 
ATOM     16  C   UNL     1      -1.054  14.290  23.533  0.00  0.00    +0.000 A 
ATOM     17  F   UNL     1      -1.195  14.709  24.797  0.00  0.00    +0.000 F 
ATOM     18  C   UNL     1      -0.256  15.010  22.660  0.00  0.00    +0.000 A 
ATOM     19  C   UNL     1      -0.126  14.563  21.350  0.00  0.00    +0.000 A 
ATOM     20  F   UNL     1       0.652  15.261  20.509  0.00  0.00    +0.000 F 
ENDBRANCH  12  13
ENDBRANCH   9  12
ENDBRANCH   3   7
BRANCH   6  21
ATOM     21  C   UNL     1       3.076   6.765  19.428  0.00  0.00    +0.000 C 
BRANCH  21  22
ATOM     22  C   UNL     1       2.356   5.451  19.226  0.00  0.00    +0.000 A 
ATOM     23  C   UNL     1       2.350   4.832  17.966  0.00  0.00    +0.000 A 
ATOM     24  C   UNL     1       1.680   3.621  17.772  0.00  0.00    +0.000 A 
ATOM     25  C   UNL     1       1.017   3.024  18.838  0.00  0.00    +0.000 A 
ATOM     26  F   UNL     1       0.367   1.869  18.649  0.00  0.00    +0.000 F 
ATOM     27  C   UNL     1       1.024   3.607  20.098  0.00  0.00    +0.000 A 
ATOM     28  C   UNL     1       1.698   4.813  20.294  0.00  0.00    +0.000 A 
ENDBRANCH  21  22
ENDBRANCH   6  21
TORSDOF 6
ENDMDL
MODEL 4
REMARK VINA RESULT:      -7.2      1.102      1.795
REMARK  Name = 
REMARK  7 active torsions:
REMARK  status: ('A' for Active; 'I' for Inactive)
REMARK    1  A    between atoms: C_1  and  C_2
REMARK    2  A    between atoms: C_3  and  C_4
REMARK    3  A    between atoms: N_6  and  C_7
REMARK    4  A    between atoms: N_6  and  C_9
REMARK    5  A    between atoms: C_9  and  C_10
REMARK    6  A    between atoms: N_20  and  C_21
REMARK    7  A    between atoms: C_21  and  C_22
REMARK                            x       y       z     vdW  Elec       q    Type
REMARK                         _______ _______ _______ _____ _____    ______ ____
ROOT
ATOM      1  C   UNL     1       1.566   9.084  17.789  0.00  0.00    +0.000 C 
ATOM      2  C   UNL     1       1.194   8.916  19.217  0.00  0.00    +0.000 A 
ATOM      3  C   UNL     1       0.284   9.593  20.029  0.00  0.00    +0.000 A 
ATOM      4  N   UNL     1       0.334   9.075  21.311  0.00  0.00    +0.000 NA
ATOM      5  C   UNL     1       1.250   8.142  21.296  0.00  0.00    +0.000 A 
ATOM      6  N   UNL     1       1.772   7.973  20.044  0.00  0.00    +0.000 N 
ENDROOT
BRANCH   3   7
ATOM      7  C   UNL     1      -0.638  10.687  19.659  0.00  0.00    +0.000 C 
ATOM      8  O   UNL     1      -1.627  10.478  18.958  0.00  0.00    +0.000 OA
ATOM      9  N   UNL     1      -0.316  11.963  20.141  0.00  0.00    +0.000 N 
BRANCH   9  10
ATOM     10  C   UNL     1       0.827  12.352  20.753  0.00  0.00    +0.000 C 
ATOM     11  N   UNL     1       1.833  12.720  21.196  0.00  0.00    +0.000 NA
ENDBRANCH   9  10
BRANCH   9  12
ATOM     12  C   UNL     1      -1.210  13.068  19.815  0.00  0.00    +0.000 C 
BRANCH  12  13
ATOM     13  C   UNL     1      -2.312  13.359  20.816  0.00  0.00    +0.000 A 
ATOM     14  C   UNL     1      -2.113  13.946  22.074  0.00  0.00    +0.000 A 
ATOM     15  C   UNL     1      -3.200  14.159  22.932  0.00  0.00    +0.000 A 
ATOM     16  C   UNL     1      -4.482  13.789  22.538  0.00  0.00    +0.000 A 
ATOM     17  F   UNL     1      -5.514  13.991  23.368  0.00  0.00    +0.000 F 
ATOM     18  C   UNL     1      -4.706  13.213  21.298  0.00  0.00    +0.000 A 
ATOM     19  C   UNL     1      -3.623  13.006  20.452  0.00  0.00    +0.000 A 
ATOM     20  F   UNL     1      -3.844  12.453  19.251  0.00  0.00    +0.000 F 
ENDBRANCH  12  13
ENDBRANCH   9  12
ENDBRANCH   3   7
BRANCH   6  21
ATOM     21  C   UNL     1       2.797   6.992  19.714  0.00  0.00    +0.000 C 
BRANCH  21  22
ATOM     22  C   UNL     1       2.207   5.634  19.409  0.00  0.00    +0.000 A 
ATOM     23  C   UNL     1       1.620   4.870  20.431  0.00  0.00    +0.000 A 
ATOM     24  C   UNL     1       1.080   3.610  20.155  0.00  0.00    +0.000 A 
ATOM     25  C   UNL     1       1.122   3.113  18.858  0.00  0.00    +0.000 A 
ATOM     26  F   UNL     1       0.613   1.902  18.598  0.00  0.00    +0.000 F 
ATOM     27  C   UNL     1       1.679   3.857  17.828  0.00  0.00    +0.000 A 
ATOM     28  C   UNL     1       2.214   5.117  18.100  0.00  0.00    +0.000 A 
ENDBRANCH  21  22
ENDBRANCH   6  21
TORSDOF 6
ENDMDL
MODEL 5
REMARK VINA RESULT:      -7.2      1.569      8.264
REMARK  Name = 
REMARK  7 active torsions:
REMARK  status: ('A' for Active; 'I' for Inactive)
REMARK    1  A    between atoms: C_1  and  C_2
REMARK    2  A    between atoms: C_3  and  C_4
REMARK    3  A    between atoms: N_6  and  C_7
REMARK    4  A    between atoms: N_6  and  C_9
REMARK    5  A    between atoms: C_9  and  C_10
REMARK    6  A    between atoms: N_20  and  C_21
REMARK    7  A    between atoms: C_21  and  C_22
REMARK                            x       y       z     vdW  Elec       q    Type
REMARK                         _______ _______ _______ _____ _____    ______ ____
ROOT
ATOM      1  C   UNL     1       1.527  11.895  20.216  0.00  0.00    +0.000 C 
ATOM      2  C   UNL     1       0.470  11.311  19.350  0.00  0.00    +0.000 A 
ATOM      3  C   UNL     1       0.419  10.132  18.608  0.00  0.00    +0.000 A 
ATOM      4  N   UNL     1      -0.788  10.060  17.935  0.00  0.00    +0.000 NA
ATOM      5  C   UNL     1      -1.438  11.157  18.227  0.00  0.00    +0.000 A 
ATOM      6  N   UNL     1      -0.742  11.930  19.115  0.00  0.00    +0.000 N 
ENDROOT
BRANCH   3   7
ATOM      7  C   UNL     1       1.436   9.064  18.513  0.00  0.00    +0.000 C 
ATOM      8  O   UNL     1       2.047   8.856  17.464  0.00  0.00    +0.000 OA
ATOM      9  N   UNL     1       1.655   8.306  19.671  0.00  0.00    +0.000 N 
BRANCH   9  10
ATOM     10  C   UNL     1       0.926   8.310  20.812  0.00  0.00    +0.000 C 
ATOM     11  N   UNL     1       0.230   8.338  21.738  0.00  0.00    +0.000 NA
ENDBRANCH   9  10
BRANCH   9  12
ATOM     12  C   UNL     1       2.664   7.254  19.625  0.00  0.00    +0.000 C 
BRANCH  12  13
ATOM     13  C   UNL     1       2.149   5.836  19.467  0.00  0.00    +0.000 A 
ATOM     14  C   UNL     1       1.484   5.111  20.467  0.00  0.00    +0.000 A 
ATOM     15  C   UNL     1       1.061   3.799  20.222  0.00  0.00    +0.000 A 
ATOM     16  C   UNL     1       1.297   3.209  18.985  0.00  0.00    +0.000 A 
ATOM     17  F   UNL     1       0.894   1.952  18.763  0.00  0.00    +0.000 F 
ATOM     18  C   UNL     1       1.946   3.905  17.978  0.00  0.00    +0.000 A 
ATOM     19  C   UNL     1       2.363   5.208  18.228  0.00  0.00    +0.000 A 
ATOM     20  F   UNL     1       2.985   5.880  17.249  0.00  0.00    +0.000 F 
ENDBRANCH  12  13
ENDBRANCH   9  12
ENDBRANCH   3   7
BRANCH   6  21
ATOM     21  C   UNL     1      -1.223  13.201  19.640  0.00  0.00    +0.000 C 
BRANCH  21  22
ATOM     22  C   UNL     1      -2.135  13.015  20.832  0.00  0.00    +0.000 A 
ATOM     23  C   UNL     1      -1.647  12.436  22.014  0.00  0.00    +0.000 A 
ATOM     24  C   UNL     1      -2.487  12.255  23.116  0.00  0.00    +0.000 A 
ATOM     25  C   UNL     1      -3.816  12.656  23.041  0.00  0.00    +0.000 A 
ATOM     26  F   UNL     1      -4.622  12.472  24.093  0.00  0.00    +0.000 F 
ATOM     27  C   UNL     1      -4.317  13.247  21.890  0.00  0.00    +0.000 A 
ATOM     28  C   UNL     1      -3.477  13.434  20.791  0.00  0.00    +0.000 A 
ENDBRANCH  21  22
ENDBRANCH   6  21
TORSDOF 6
ENDMDL
MODEL 6
REMARK VINA RESULT:      -7.2      1.088      1.341
REMARK  Name = 
REMARK  7 active torsions:
REMARK  status: ('A' for Active; 'I' for Inactive)
REMARK    1  A    between atoms: C_1  and  C_2
REMARK    2  A    between atoms: C_3  and  C_4
REMARK    3  A    between atoms: N_6  and  C_7
REMARK    4  A    between atoms: N_6  and  C_9
REMARK    5  A    between atoms: C_9  and  C_10
REMARK    6  A    between atoms: N_20  and  C_21
REMARK    7  A    between atoms: C_21  and  C_22
REMARK                            x       y       z     vdW  Elec       q    Type
REMARK                         _______ _______ _______ _____ _____    ______ ____
ROOT
ATOM      1  C   UNL     1       0.491   8.661  21.378  0.00  0.00    +0.000 C 
ATOM      2  C   UNL     1       0.954   8.932  19.992  0.00  0.00    +0.000 A 
ATOM      3  C   UNL     1       0.549   9.868  19.040  0.00  0.00    +0.000 A 
ATOM      4  N   UNL     1       1.275   9.687  17.876  0.00  0.00    +0.000 NA
ATOM      5  C   UNL     1       2.069   8.671  18.091  0.00  0.00    +0.000 A 
ATOM      6  N   UNL     1       1.948   8.203  19.370  0.00  0.00    +0.000 N 
ENDROOT
BRANCH   3   7
ATOM      7  C   UNL     1      -0.470  10.930  19.174  0.00  0.00    +0.000 C 
ATOM      8  O   UNL     1      -1.578  10.821  18.649  0.00  0.00    +0.000 OA
ATOM      9  N   UNL     1      -0.099  12.058  19.918  0.00  0.00    +0.000 N 
BRANCH   9  10
ATOM     10  C   UNL     1       1.133  12.378  20.379  0.00  0.00    +0.000 C 
ATOM     11  N   UNL     1       2.147  12.691  20.846  0.00  0.00    +0.000 NA
ENDBRANCH   9  10
BRANCH   9  12
ATOM     12  C   UNL     1      -1.082  13.122  20.090  0.00  0.00    +0.000 C 
BRANCH  12  13
ATOM     13  C   UNL     1      -1.768  13.189  21.441  0.00  0.00    +0.000 A 
ATOM     14  C   UNL     1      -2.830  12.364  21.841  0.00  0.00    +0.000 A 
ATOM     15  C   UNL     1      -3.403  12.518  23.109  0.00  0.00    +0.000 A 
ATOM     16  C   UNL     1      -2.920  13.490  23.979  0.00  0.00    +0.000 A 
ATOM     17  F   UNL     1      -3.479  13.633  25.188  0.00  0.00    +0.000 F 
ATOM     18  C   UNL     1      -1.868  14.313  23.613  0.00  0.00    +0.000 A 
ATOM     19  C   UNL     1      -1.304  14.154  22.352  0.00  0.00    +0.000 A 
ATOM     20  F   UNL     1      -0.282  14.949  22.003  0.00  0.00    +0.000 F 
ENDBRANCH  12  13
ENDBRANCH   9  12
ENDBRANCH   3   7
BRANCH   6  21
ATOM     21  C   UNL     1       2.720   7.090  19.907  0.00  0.00    +0.000 C 
BRANCH  21  22
ATOM     22  C   UNL     1       2.102   5.753  19.568  0.00  0.00    +0.000 A 
ATOM     23  C   UNL     1       2.167   5.254  18.256  0.00  0.00    +0.000 A 
ATOM     24  C   UNL     1       1.591   4.022  17.936  0.00  0.00    +0.000 A 
ATOM     25  C   UNL     1       0.950   3.284  18.924  0.00  0.00    +0.000 A 
ATOM     26  F   UNL     1       0.389   2.109  18.613  0.00  0.00    +0.000 F 
ATOM     27  C   UNL     1       0.888   3.747  20.231  0.00  0.00    +0.000 A 
ATOM     28  C   UNL     1       1.469   4.974  20.554  0.00  0.00    +0.000 A 
ENDBRANCH  21  22
ENDBRANCH   6  21
TORSDOF 6
ENDMDL
MODEL 7
REMARK VINA RESULT:      -7.2      1.422      2.145
REMARK  Name = 
REMARK  7 active torsions:
REMARK  status: ('A' for Active; 'I' for Inactive)
REMARK    1  A    between atoms: C_1  and  C_2
REMARK    2  A    between atoms: C_3  and  C_4
REMARK    3  A    between atoms: N_6  and  C_7
REMARK    4  A    between atoms: N_6  and  C_9
REMARK    5  A    between atoms: C_9  and  C_10
REMARK    6  A    between atoms: N_20  and  C_21
REMARK    7  A    between atoms: C_21  and  C_22
REMARK                            x       y       z     vdW  Elec       q    Type
REMARK                         _______ _______ _______ _____ _____    ______ ____
ROOT
ATOM      1  C   UNL     1       1.730   9.030  17.782  0.00  0.00    +0.000 C 
ATOM      2  C   UNL     1       1.265   8.881  19.186  0.00  0.00    +0.000 A 
ATOM      3  C   UNL     1       0.318   9.580  19.933  0.00  0.00    +0.000 A 
ATOM      4  N   UNL     1       0.278   9.072  21.220  0.00  0.00    +0.000 NA
ATOM      5  C   UNL     1       1.177   8.123  21.270  0.00  0.00    +0.000 A 
ATOM      6  N   UNL     1       1.774   7.935  20.053  0.00  0.00    +0.000 N 
ENDROOT
BRANCH   3   7
ATOM      7  C   UNL     1      -0.559  10.687  19.498  0.00  0.00    +0.000 C 
ATOM      8  O   UNL     1      -1.505  10.489  18.736  0.00  0.00    +0.000 OA
ATOM      9  N   UNL     1      -0.247  11.960  19.991  0.00  0.00    +0.000 N 
BRANCH   9  10
ATOM     10  C   UNL     1       0.861  12.335  20.673  0.00  0.00    +0.000 C 
ATOM     11  N   UNL     1       1.819  12.726  21.197  0.00  0.00    +0.000 NA
ENDBRANCH   9  10
BRANCH   9  12
ATOM     12  C   UNL     1      -1.099  13.078  19.601  0.00  0.00    +0.000 C 
BRANCH  12  13
ATOM     13  C   UNL     1      -2.275  13.375  20.512  0.00  0.00    +0.000 A 
ATOM     14  C   UNL     1      -3.522  12.738  20.441  0.00  0.00    +0.000 A 
ATOM     15  C   UNL     1      -4.548  13.098  21.324  0.00  0.00    +0.000 A 
ATOM     16  C   UNL     1      -4.333  14.089  22.276  0.00  0.00    +0.000 A 
ATOM     17  F   UNL     1      -5.323  14.430  23.112  0.00  0.00    +0.000 F 
ATOM     18  C   UNL     1      -3.109  14.729  22.372  0.00  0.00    +0.000 A 
ATOM     19  C   UNL     1      -2.095  14.366  21.493  0.00  0.00    +0.000 A 
ATOM     20  F   UNL     1      -0.909  14.983  21.593  0.00  0.00    +0.000 F 
ENDBRANCH  12  13
ENDBRANCH   9  12
ENDBRANCH   3   7
BRANCH   6  21
ATOM     21  C   UNL     1       2.800   6.934  19.796  0.00  0.00    +0.000 C 
BRANCH  21  22
ATOM     22  C   UNL     1       2.207   5.584  19.463  0.00  0.00    +0.000 A 
ATOM     23  C   UNL     1       1.628   4.795  20.471  0.00  0.00    +0.000 A 
ATOM     24  C   UNL     1       1.085   3.543  20.169  0.00  0.00    +0.000 A 
ATOM     25  C   UNL     1       1.115   3.078  18.860  0.00  0.00    +0.000 A 
ATOM     26  F   UNL     1       0.604   1.874  18.575  0.00  0.00    +0.000 F 
ATOM     27  C   UNL     1       1.665   3.846  17.844  0.00  0.00    +0.000 A 
ATOM     28  C   UNL     1       2.202   5.099  18.142  0.00  0.00    +0.000 A 
ENDBRANCH  21  22
ENDBRANCH   6  21
TORSDOF 6
ENDMDL
MODEL 8
REMARK VINA RESULT:      -7.1      1.657      2.548
REMARK  Name = 
REMARK  7 active torsions:
REMARK  status: ('A' for Active; 'I' for Inactive)
REMARK    1  A    between atoms: C_1  and  C_2
REMARK    2  A    between atoms: C_3  and  C_4
REMARK    3  A    between atoms: N_6  and  C_7
REMARK    4  A    between atoms: N_6  and  C_9
REMARK    5  A    between atoms: C_9  and  C_10
REMARK    6  A    between atoms: N_20  and  C_21
REMARK    7  A    between atoms: C_21  and  C_22
REMARK                            x       y       z     vdW  Elec       q    Type
REMARK                         _______ _______ _______ _____ _____    ______ ____
ROOT
ATOM      1  C   UNL     1       1.881   9.309  17.926  0.00  0.00    +0.000 C 
ATOM      2  C   UNL     1       1.247   9.034  19.241  0.00  0.00    +0.000 A 
ATOM      3  C   UNL     1       0.216   9.671  19.930  0.00  0.00    +0.000 A 
ATOM      4  N   UNL     1       0.017   9.045  21.148  0.00  0.00    +0.000 NA
ATOM      5  C   UNL     1       0.903   8.086  21.218  0.00  0.00    +0.000 A 
ATOM      6  N   UNL     1       1.645   8.006  20.072  0.00  0.00    +0.000 N 
ENDROOT
BRANCH   3   7
ATOM      7  C   UNL     1      -0.601  10.824  19.496  0.00  0.00    +0.000 C 
ATOM      8  O   UNL     1      -0.848  11.020  18.306  0.00  0.00    +0.000 OA
ATOM      9  N   UNL     1      -1.065  11.675  20.509  0.00  0.00    +0.000 N 
BRANCH   9  10
ATOM     10  C   UNL     1      -0.711  11.676  21.816  0.00  0.00    +0.000 C 
ATOM     11  N   UNL     1      -0.457  11.755  22.944  0.00  0.00    +0.000 NA
ENDBRANCH   9  10
BRANCH   9  12
ATOM     12  C   UNL     1      -1.891  12.815  20.126  0.00  0.00    +0.000 C 
BRANCH  12  13
ATOM     13  C   UNL     1      -3.368  12.713  20.454  0.00  0.00    +0.000 A 
ATOM     14  C   UNL     1      -3.936  13.040  21.694  0.00  0.00    +0.000 A 
ATOM     15  C   UNL     1      -5.314  12.897  21.897  0.00  0.00    +0.000 A 
ATOM     16  C   UNL     1      -6.126  12.430  20.869  0.00  0.00    +0.000 A 
ATOM     17  F   UNL     1      -7.442  12.290  21.076  0.00  0.00    +0.000 F 
ATOM     18  C   UNL     1      -5.592  12.106  19.633  0.00  0.00    +0.000 A 
ATOM     19  C   UNL     1      -4.223  12.252  19.438  0.00  0.00    +0.000 A 
ATOM     20  F   UNL     1      -3.710  11.943  18.238  0.00  0.00    +0.000 F 
ENDBRANCH  12  13
ENDBRANCH   9  12
ENDBRANCH   3   7
BRANCH   6  21
ATOM     21  C   UNL     1       2.695   7.021  19.849  0.00  0.00    +0.000 C 
BRANCH  21  22
ATOM     22  C   UNL     1       2.135   5.659  19.507  0.00  0.00    +0.000 A 
ATOM     23  C   UNL     1       1.635   4.823  20.519  0.00  0.00    +0.000 A 
ATOM     24  C   UNL     1       1.123   3.561  20.208  0.00  0.00    +0.000 A 
ATOM     25  C   UNL     1       1.105   3.131  18.887  0.00  0.00    +0.000 A 
ATOM     26  F   UNL     1       0.624   1.917  18.593  0.00  0.00    +0.000 F 
ATOM     27  C   UNL     1       1.576   3.946  17.867  0.00  0.00    +0.000 A 
ATOM     28  C   UNL     1       2.082   5.210  18.175  0.00  0.00    +0.000 A 
ENDBRANCH  21  22
ENDBRANCH   6  21
TORSDOF 6
ENDMDL
MODEL 9
REMARK VINA RESULT:      -7.1      1.732      2.791
REMARK  Name = 
REMARK  7 active torsions:
REMARK  status: ('A' for Active; 'I' for Inactive)
REMARK    1  A    between atoms: C_1  and  C_2
REMARK    2  A    between atoms: C_3  and  C_4
REMARK    3  A    between atoms: N_6  and  C_7
REMARK    4  A    between atoms: N_6  and  C_9
REMARK    5  A    between atoms: C_9  and  C_10
REMARK    6  A    between atoms: N_20  and  C_21
REMARK    7  A    between atoms: C_21  and  C_22
REMARK                            x       y       z     vdW  Elec       q    Type
REMARK                         _______ _______ _______ _____ _____    ______ ____
ROOT
ATOM      1  C   UNL     1       1.858   9.185  17.872  0.00  0.00    +0.000 C 
ATOM      2  C   UNL     1       1.256   8.969  19.213  0.00  0.00    +0.000 A 
ATOM      3  C   UNL     1       0.244   9.639  19.899  0.00  0.00    +0.000 A 
ATOM      4  N   UNL     1       0.074   9.066  21.148  0.00  0.00    +0.000 NA
ATOM      5  C   UNL     1       0.959   8.107  21.237  0.00  0.00    +0.000 A 
ATOM      6  N   UNL     1       1.672   7.976  20.077  0.00  0.00    +0.000 N 
ENDROOT
BRANCH   3   7
ATOM      7  C   UNL     1      -0.581  10.774  19.437  0.00  0.00    +0.000 C 
ATOM      8  O   UNL     1      -0.824  10.942  18.242  0.00  0.00    +0.000 OA
ATOM      9  N   UNL     1      -1.057  11.643  20.429  0.00  0.00    +0.000 N 
BRANCH   9  10
ATOM     10  C   UNL     1      -0.709  11.675  21.737  0.00  0.00    +0.000 C 
ATOM     11  N   UNL     1      -0.448  11.788  22.861  0.00  0.00    +0.000 NA
ENDBRANCH   9  10
BRANCH   9  12
ATOM     12  C   UNL     1      -1.891  12.767  20.017  0.00  0.00    +0.000 C 
BRANCH  12  13
ATOM     13  C   UNL     1      -3.389  12.529  20.026  0.00  0.00    +0.000 A 
ATOM     14  C   UNL     1      -4.118  11.982  18.960  0.00  0.00    +0.000 A 
ATOM     15  C   UNL     1      -5.504  11.817  19.066  0.00  0.00    +0.000 A 
ATOM     16  C   UNL     1      -6.165  12.195  20.230  0.00  0.00    +0.000 A 
ATOM     17  F   UNL     1      -7.492  12.038  20.319  0.00  0.00    +0.000 F 
ATOM     18  C   UNL     1      -5.468  12.731  21.300  0.00  0.00    +0.000 A 
ATOM     19  C   UNL     1      -4.092  12.891  21.188  0.00  0.00    +0.000 A 
ATOM     20  F   UNL     1      -3.420  13.407  22.228  0.00  0.00    +0.000 F 
ENDBRANCH  12  13
ENDBRANCH   9  12
ENDBRANCH   3   7
BRANCH   6  21
ATOM     21  C   UNL     1       2.714   6.979  19.871  0.00  0.00    +0.000 C 
BRANCH  21  22
ATOM     22  C   UNL     1       2.143   5.625  19.514  0.00  0.00    +0.000 A 
ATOM     23  C   UNL     1       1.585   4.806  20.508  0.00  0.00    +0.000 A 
ATOM     24  C   UNL     1       1.062   3.551  20.185  0.00  0.00    +0.000 A 
ATOM     25  C   UNL     1       1.094   3.112  18.867  0.00  0.00    +0.000 A 
ATOM     26  F   UNL     1       0.603   1.905  18.560  0.00  0.00    +0.000 F 
ATOM     27  C   UNL     1       1.624   3.910  17.863  0.00  0.00    +0.000 A 
ATOM     28  C   UNL     1       2.140   5.167  18.183  0.00  0.00    +0.000 A 
ENDBRANCH  21  22
ENDBRANCH   6  21
TORSDOF 6
ENDMDL
