MODEL 1
REMARK VINA RESULT:      -6.3      0.000      0.000
REMARK  Name = 
REMARK  3 active torsions:
REMARK  status: ('A' for Active; 'I' for Inactive)
REMARK    1  A    between atoms: C_1  and  C_2
REMARK    2  A    between atoms: C_6  and  N_7
REMARK    3  A    between atoms: C_15  and  C_17
REMARK                            x       y       z     vdW  Elec       q    Type
REMARK                         _______ _______ _______ _____ _____    ______ ____
ROOT
ATOM      1  N   UNL     1       0.686   9.414  19.909  0.00  0.00    +0.000 N 
ATOM      2  C   UNL     1       0.818   9.803  21.305  0.00  0.00    +0.000 C 
ATOM      3  C   UNL     1       0.737  11.322  21.274  0.00  0.00    +0.000 C 
ATOM      4  C   UNL     1      -0.191  11.648  20.087  0.00  0.00    +0.000 C 
ATOM      5  C   UNL     1       0.237  12.964  19.390  0.00  0.00    +0.000 C 
ATOM      6  C   UNL     1      -0.065  14.203  20.235  0.00  0.00    +0.000 C 
ATOM      7  C   UNL     1      -1.542  14.221  20.617  0.00  0.00    +0.000 C 
ATOM      8  N   UNL     1      -1.857  12.995  21.348  0.00  0.00    +0.000 N 
ATOM      9  C   UNL     1      -2.277  12.892  22.678  0.00  0.00    +0.000 C 
ATOM     10  O   UNL     1      -2.626  11.818  23.169  0.00  0.00    +0.000 OA
ATOM     11  C   UNL     1      -1.661  11.764  20.559  0.00  0.00    +0.000 C 
ATOM     12  C   UNL     1       0.016  10.450  19.122  0.00  0.00    +0.000 C 
ENDROOT
BRANCH   1  18
ATOM     13  C   UNL     1       3.091   5.255  20.062  0.00  0.00    +0.000 C 
ATOM     14  C   UNL     1       2.784   6.531  19.336  0.00  0.00    +0.000 A 
ATOM     15  C   UNL     1       3.359   6.781  18.100  0.00  0.00    +0.000 A 
ATOM     16  C   UNL     1       3.038   7.967  17.457  0.00  0.00    +0.000 A 
ATOM     17  C   UNL     1       2.150   8.848  18.070  0.00  0.00    +0.000 A 
ATOM     18  C   UNL     1       1.577   8.544  19.304  0.00  0.00    +0.000 A 
ATOM     19  N   UNL     1       1.912   7.391  19.936  0.00  0.00    +0.000 NA
ENDBRANCH   1  18
BRANCH   9  20
ATOM     20  C   UNL     1      -2.322  14.073  23.576  0.00  0.00    +0.000 A 
ATOM     21  C   UNL     1      -1.203  14.655  24.176  0.00  0.00    +0.000 A 
ATOM     22  C   UNL     1      -1.355  15.772  24.997  0.00  0.00    +0.000 A 
ATOM     23  C   UNL     1      -2.636  16.238  25.245  0.00  0.00    +0.000 A 
ATOM     24  N   UNL     1      -3.748  15.663  24.740  0.00  0.00    +0.000 NA
ATOM     25  C   UNL     1      -3.566  14.589  23.926  0.00  0.00    +0.000 A 
ENDBRANCH   9  20
TORSDOF 2
ENDMDL
MODEL 2
REMARK VINA RESULT:      -6.2      9.418     10.934
REMARK  Name = 
REMARK  3 active torsions:
REMARK  status: ('A' for Active; 'I' for Inactive)
REMARK    1  A    between atoms: C_1  and  C_2
REMARK    2  A    between atoms: C_6  and  N_7
REMARK    3  A    between atoms: C_15  and  C_17
REMARK                            x       y       z     vdW  Elec       q    Type
REMARK                         _______ _______ _______ _____ _____    ______ ____
ROOT
ATOM      1  N   UNL     1       8.643   9.187  18.016  0.00  0.00    +0.000 N 
ATOM      2  C   UNL     1       8.193  10.337  17.246  0.00  0.00    +0.000 C 
ATOM      3  C   UNL     1       8.263  11.493  18.232  0.00  0.00    +0.000 C 
ATOM      4  C   UNL     1       9.431  11.144  19.175  0.00  0.00    +0.000 C 
ATOM      5  C   UNL     1       9.158  11.649  20.614  0.00  0.00    +0.000 C 
ATOM      6  C   UNL     1       9.248  13.172  20.729  0.00  0.00    +0.000 C 
ATOM      7  C   UNL     1      10.599  13.652  20.209  0.00  0.00    +0.000 C 
ATOM      8  N   UNL     1      10.754  13.219  18.822  0.00  0.00    +0.000 N 
ATOM      9  C   UNL     1      10.863  14.036  17.691  0.00  0.00    +0.000 C 
ATOM     10  O   UNL     1      11.102  13.575  16.575  0.00  0.00    +0.000 OA
ATOM     11  C   UNL     1      10.755  11.753  18.651  0.00  0.00    +0.000 C 
ATOM     12  C   UNL     1       9.462   9.592  19.158  0.00  0.00    +0.000 C 
ENDROOT
BRANCH   1  18
ATOM     13  C   UNL     1       5.025   6.537  16.284  0.00  0.00    +0.000 C 
ATOM     14  C   UNL     1       6.159   6.677  17.255  0.00  0.00    +0.000 A 
ATOM     15  C   UNL     1       6.466   5.637  18.119  0.00  0.00    +0.000 A 
ATOM     16  C   UNL     1       7.530   5.804  18.992  0.00  0.00    +0.000 A 
ATOM     17  C   UNL     1       8.250   6.996  18.959  0.00  0.00    +0.000 A 
ATOM     18  C   UNL     1       7.921   8.006  18.057  0.00  0.00    +0.000 A 
ATOM     19  N   UNL     1       6.865   7.844  17.220  0.00  0.00    +0.000 NA
ENDBRANCH   1  18
BRANCH   9  20
ATOM     20  C   UNL     1      10.690  15.508  17.774  0.00  0.00    +0.000 A 
ATOM     21  C   UNL     1       9.486  16.149  18.073  0.00  0.00    +0.000 A 
ATOM     22  C   UNL     1       9.435  17.541  18.135  0.00  0.00    +0.000 A 
ATOM     23  C   UNL     1      10.581  18.257  17.832  0.00  0.00    +0.000 A 
ATOM     24  N   UNL     1      11.746  17.678  17.472  0.00  0.00    +0.000 NA
ATOM     25  C   UNL     1      11.771  16.319  17.442  0.00  0.00    +0.000 A 
ENDBRANCH   9  20
TORSDOF 2
ENDMDL
MODEL 3
REMARK VINA RESULT:      -6.1      2.042      2.882
REMARK  Name = 
REMARK  3 active torsions:
REMARK  status: ('A' for Active; 'I' for Inactive)
REMARK    1  A    between atoms: C_1  and  C_2
REMARK    2  A    between atoms: C_6  and  N_7
REMARK    3  A    between atoms: C_15  and  C_17
REMARK                            x       y       z     vdW  Elec       q    Type
REMARK                         _______ _______ _______ _____ _____    ______ ____
ROOT
ATOM      1  N   UNL     1       1.359   9.201  19.720  0.00  0.00    +0.000 N 
ATOM      2  C   UNL     1       0.167   9.702  19.051  0.00  0.00    +0.000 C 
ATOM      3  C   UNL     1      -0.748  10.123  20.191  0.00  0.00    +0.000 C 
ATOM      4  C   UNL     1       0.201  10.582  21.315  0.00  0.00    +0.000 C 
ATOM      5  C   UNL     1      -0.384  10.248  22.711  0.00  0.00    +0.000 C 
ATOM      6  C   UNL     1      -1.578  11.131  23.075  0.00  0.00    +0.000 C 
ATOM      7  C   UNL     1      -1.188  12.601  22.964  0.00  0.00    +0.000 C 
ATOM      8  N   UNL     1      -0.731  12.869  21.602  0.00  0.00    +0.000 N 
ATOM      9  C   UNL     1      -1.325  13.723  20.667  0.00  0.00    +0.000 C 
ATOM     10  O   UNL     1      -0.799  13.965  19.580  0.00  0.00    +0.000 OA
ATOM     11  C   UNL     1       0.470  12.104  21.215  0.00  0.00    +0.000 C 
ATOM     12  C   UNL     1       1.488   9.749  21.070  0.00  0.00    +0.000 C 
ENDROOT
BRANCH   1  18
ATOM     13  C   UNL     1       2.208   4.653  21.024  0.00  0.00    +0.000 C 
ATOM     14  C   UNL     1       2.361   5.743  20.005  0.00  0.00    +0.000 A 
ATOM     15  C   UNL     1       3.002   5.485  18.803  0.00  0.00    +0.000 A 
ATOM     16  C   UNL     1       3.110   6.517  17.885  0.00  0.00    +0.000 A 
ATOM     17  C   UNL     1       2.566   7.761  18.199  0.00  0.00    +0.000 A 
ATOM     18  C   UNL     1       1.909   7.969  19.410  0.00  0.00    +0.000 A 
ATOM     19  N   UNL     1       1.826   6.959  20.314  0.00  0.00    +0.000 NA
ENDBRANCH   1  18
BRANCH   9  20
ATOM     20  C   UNL     1      -2.629  14.381  20.930  0.00  0.00    +0.000 A 
ATOM     21  C   UNL     1      -3.871  13.751  20.825  0.00  0.00    +0.000 A 
ATOM     22  C   UNL     1      -5.038  14.461  21.105  0.00  0.00    +0.000 A 
ATOM     23  C   UNL     1      -4.932  15.805  21.422  0.00  0.00    +0.000 A 
ATOM     24  N   UNL     1      -3.757  16.468  21.468  0.00  0.00    +0.000 NA
ATOM     25  C   UNL     1      -2.635  15.744  21.211  0.00  0.00    +0.000 A 
ENDBRANCH   9  20
TORSDOF 2
ENDMDL
MODEL 4
REMARK VINA RESULT:      -6.1      1.027      1.104
REMARK  Name = 
REMARK  3 active torsions:
REMARK  status: ('A' for Active; 'I' for Inactive)
REMARK    1  A    between atoms: C_1  and  C_2
REMARK    2  A    between atoms: C_6  and  N_7
REMARK    3  A    between atoms: C_15  and  C_17
REMARK                            x       y       z     vdW  Elec       q    Type
REMARK                         _______ _______ _______ _____ _____    ______ ____
ROOT
ATOM      1  N   UNL     1       1.058   9.400  19.441  0.00  0.00    +0.000 N 
ATOM      2  C   UNL     1       0.505   9.494  20.784  0.00  0.00    +0.000 C 
ATOM      3  C   UNL     1       0.848  10.908  21.227  0.00  0.00    +0.000 C 
ATOM      4  C   UNL     1       0.838  11.745  19.933  0.00  0.00    +0.000 C 
ATOM      5  C   UNL     1       1.898  12.874  19.990  0.00  0.00    +0.000 C 
ATOM      6  C   UNL     1       1.517  13.991  20.962  0.00  0.00    +0.000 C 
ATOM      7  C   UNL     1       0.135  14.533  20.612  0.00  0.00    +0.000 C 
ATOM      8  N   UNL     1      -0.831  13.437  20.664  0.00  0.00    +0.000 N 
ATOM      9  C   UNL     1      -1.917  13.311  21.537  0.00  0.00    +0.000 C 
ATOM     10  O   UNL     1      -2.739  12.402  21.427  0.00  0.00    +0.000 OA
ATOM     11  C   UNL     1      -0.563  12.359  19.692  0.00  0.00    +0.000 C 
ATOM     12  C   UNL     1       1.218  10.720  18.832  0.00  0.00    +0.000 C 
ENDROOT
BRANCH   1  18
ATOM     13  C   UNL     1       2.748   4.990  20.336  0.00  0.00    +0.000 C 
ATOM     14  C   UNL     1       2.740   6.203  19.456  0.00  0.00    +0.000 A 
ATOM     15  C   UNL     1       3.502   6.226  18.299  0.00  0.00    +0.000 A 
ATOM     16  C   UNL     1       3.456   7.364  17.507  0.00  0.00    +0.000 A 
ATOM     17  C   UNL     1       2.644   8.425  17.898  0.00  0.00    +0.000 A 
ATOM     18  C   UNL     1       1.874   8.349  19.058  0.00  0.00    +0.000 A 
ATOM     19  N   UNL     1       1.942   7.241  19.839  0.00  0.00    +0.000 NA
ENDBRANCH   1  18
BRANCH   9  20
ATOM     20  C   UNL     1      -2.136  14.268  22.652  0.00  0.00    +0.000 A 
ATOM     21  C   UNL     1      -1.458  14.231  23.872  0.00  0.00    +0.000 A 
ATOM     22  C   UNL     1      -1.733  15.186  24.850  0.00  0.00    +0.000 A 
ATOM     23  C   UNL     1      -2.729  16.115  24.602  0.00  0.00    +0.000 A 
ATOM     24  N   UNL     1      -3.455  16.143  23.464  0.00  0.00    +0.000 NA
ATOM     25  C   UNL     1      -3.148  15.213  22.520  0.00  0.00    +0.000 A 
ENDBRANCH   9  20
TORSDOF 2
ENDMDL
MODEL 5
REMARK VINA RESULT:      -6.1      0.943      1.173
REMARK  Name = 
REMARK  3 active torsions:
REMARK  status: ('A' for Active; 'I' for Inactive)
REMARK    1  A    between atoms: C_1  and  C_2
REMARK    2  A    between atoms: C_6  and  N_7
REMARK    3  A    between atoms: C_15  and  C_17
REMARK                            x       y       z     vdW  Elec       q    Type
REMARK                         _______ _______ _______ _____ _____    ______ ____
ROOT
ATOM      1  N   UNL     1       0.955   9.226  19.612  0.00  0.00    +0.000 N 
ATOM      2  C   UNL     1       0.904   9.608  21.015  0.00  0.00    +0.000 C 
ATOM      3  C   UNL     1       0.993  11.126  20.988  0.00  0.00    +0.000 C 
ATOM      4  C   UNL     1       0.308  11.543  19.672  0.00  0.00    +0.000 C 
ATOM      5  C   UNL     1       0.981  12.800  19.066  0.00  0.00    +0.000 C 
ATOM      6  C   UNL     1       0.684  14.070  19.866  0.00  0.00    +0.000 C 
ATOM      7  C   UNL     1      -0.824  14.250  20.008  0.00  0.00    +0.000 C 
ATOM      8  N   UNL     1      -1.383  13.071  20.666  0.00  0.00    +0.000 N 
ATOM      9  C   UNL     1      -2.019  13.022  21.911  0.00  0.00    +0.000 C 
ATOM     10  O   UNL     1      -2.555  11.996  22.328  0.00  0.00    +0.000 OA
ATOM     11  C   UNL     1      -1.198  11.820  19.905  0.00  0.00    +0.000 C 
ATOM     12  C   UNL     1       0.535  10.323  18.740  0.00  0.00    +0.000 C 
ENDROOT
BRANCH   1  18
ATOM     13  C   UNL     1       2.976   4.905  20.204  0.00  0.00    +0.000 C 
ATOM     14  C   UNL     1       2.857   6.163  19.397  0.00  0.00    +0.000 A 
ATOM     15  C   UNL     1       3.582   6.307  18.224  0.00  0.00    +0.000 A 
ATOM     16  C   UNL     1       3.434   7.481  17.502  0.00  0.00    +0.000 A 
ATOM     17  C   UNL     1       2.559   8.457  17.974  0.00  0.00    +0.000 A 
ATOM     18  C   UNL     1       1.832   8.260  19.146  0.00  0.00    +0.000 A 
ATOM     19  N   UNL     1       1.999   7.118  19.859  0.00  0.00    +0.000 NA
ENDBRANCH   1  18
BRANCH   9  20
ATOM     20  C   UNL     1      -2.078  14.208  22.803  0.00  0.00    +0.000 A 
ATOM     21  C   UNL     1      -3.038  15.218  22.717  0.00  0.00    +0.000 A 
ATOM     22  C   UNL     1      -3.009  16.285  23.613  0.00  0.00    +0.000 A 
ATOM     23  C   UNL     1      -1.977  16.343  24.535  0.00  0.00    +0.000 A 
ATOM     24  N   UNL     1      -0.991  15.423  24.608  0.00  0.00    +0.000 NA
ATOM     25  C   UNL     1      -1.059  14.383  23.735  0.00  0.00    +0.000 A 
ENDBRANCH   9  20
TORSDOF 2
ENDMDL
MODEL 6
REMARK VINA RESULT:      -6.1      3.828      7.180
REMARK  Name = 
REMARK  3 active torsions:
REMARK  status: ('A' for Active; 'I' for Inactive)
REMARK    1  A    between atoms: C_1  and  C_2
REMARK    2  A    between atoms: C_6  and  N_7
REMARK    3  A    between atoms: C_15  and  C_17
REMARK                            x       y       z     vdW  Elec       q    Type
REMARK                         _______ _______ _______ _____ _____    ______ ____
ROOT
ATOM      1  N   UNL     1      -3.799  12.444  19.554  0.00  0.00    +0.000 N 
ATOM      2  C   UNL     1      -3.084  13.252  20.530  0.00  0.00    +0.000 C 
ATOM      3  C   UNL     1      -1.730  12.570  20.654  0.00  0.00    +0.000 C 
ATOM      4  C   UNL     1      -1.459  11.965  19.263  0.00  0.00    +0.000 C 
ATOM      5  C   UNL     1      -0.674  10.634  19.376  0.00  0.00    +0.000 C 
ATOM      6  C   UNL     1       0.781  10.843  19.798  0.00  0.00    +0.000 C 
ATOM      7  C   UNL     1       1.461  11.820  18.844  0.00  0.00    +0.000 C 
ATOM      8  N   UNL     1       0.725  13.082  18.853  0.00  0.00    +0.000 N 
ATOM      9  C   UNL     1       1.193  14.328  19.281  0.00  0.00    +0.000 C 
ATOM     10  O   UNL     1       0.528  15.356  19.144  0.00  0.00    +0.000 OA
ATOM     11  C   UNL     1      -0.668  12.962  18.380  0.00  0.00    +0.000 C 
ATOM     12  C   UNL     1      -2.880  11.693  18.700  0.00  0.00    +0.000 C 
ENDROOT
BRANCH   1  18
ATOM     13  C   UNL     1      -7.556  12.121  22.535  0.00  0.00    +0.000 C 
ATOM     14  C   UNL     1      -6.934  11.769  21.217  0.00  0.00    +0.000 A 
ATOM     15  C   UNL     1      -7.646  11.026  20.289  0.00  0.00    +0.000 A 
ATOM     16  C   UNL     1      -7.037  10.733  19.078  0.00  0.00    +0.000 A 
ATOM     17  C   UNL     1      -5.748  11.203  18.840  0.00  0.00    +0.000 A 
ATOM     18  C   UNL     1      -5.077  11.968  19.793  0.00  0.00    +0.000 A 
ATOM     19  N   UNL     1      -5.671  12.232  20.985  0.00  0.00    +0.000 NA
ENDBRANCH   1  18
BRANCH   9  20
ATOM     20  C   UNL     1       2.518  14.482  19.933  0.00  0.00    +0.000 A 
ATOM     21  C   UNL     1       3.693  14.833  19.265  0.00  0.00    +0.000 A 
ATOM     22  C   UNL     1       4.886  14.960  19.976  0.00  0.00    +0.000 A 
ATOM     23  C   UNL     1       4.881  14.669  21.330  0.00  0.00    +0.000 A 
ATOM     24  N   UNL     1       3.782  14.261  21.999  0.00  0.00    +0.000 NA
ATOM     25  C   UNL     1       2.629  14.167  21.284  0.00  0.00    +0.000 A 
ENDBRANCH   9  20
TORSDOF 2
ENDMDL
MODEL 7
REMARK VINA RESULT:      -6.0      3.890      7.231
REMARK  Name = 
REMARK  3 active torsions:
REMARK  status: ('A' for Active; 'I' for Inactive)
REMARK    1  A    between atoms: C_1  and  C_2
REMARK    2  A    between atoms: C_6  and  N_7
REMARK    3  A    between atoms: C_15  and  C_17
REMARK                            x       y       z     vdW  Elec       q    Type
REMARK                         _______ _______ _______ _____ _____    ______ ____
ROOT
ATOM      1  N   UNL     1      -3.712  12.385  19.376  0.00  0.00    +0.000 N 
ATOM      2  C   UNL     1      -3.001  13.165  20.378  0.00  0.00    +0.000 C 
ATOM      3  C   UNL     1      -1.636  12.498  20.465  0.00  0.00    +0.000 C 
ATOM      4  C   UNL     1      -1.368  11.953  19.048  0.00  0.00    +0.000 C 
ATOM      5  C   UNL     1      -0.563  10.630  19.102  0.00  0.00    +0.000 C 
ATOM      6  C   UNL     1       0.892  10.844  19.521  0.00  0.00    +0.000 C 
ATOM      7  C   UNL     1       1.551  11.867  18.602  0.00  0.00    +0.000 C 
ATOM      8  N   UNL     1       0.796  13.117  18.667  0.00  0.00    +0.000 N 
ATOM      9  C   UNL     1       1.249  14.352  19.141  0.00  0.00    +0.000 C 
ATOM     10  O   UNL     1       0.569  15.374  19.050  0.00  0.00    +0.000 OA
ATOM     11  C   UNL     1      -0.599  12.995  18.200  0.00  0.00    +0.000 C 
ATOM     12  C   UNL     1      -2.789  11.682  18.486  0.00  0.00    +0.000 C 
ENDROOT
BRANCH   1  18
ATOM     13  C   UNL     1      -7.614  12.239  22.180  0.00  0.00    +0.000 C 
ATOM     14  C   UNL     1      -6.905  11.764  20.947  0.00  0.00    +0.000 A 
ATOM     15  C   UNL     1      -7.534  10.884  20.080  0.00  0.00    +0.000 A 
ATOM     16  C   UNL     1      -6.847  10.480  18.946  0.00  0.00    +0.000 A 
ATOM     17  C   UNL     1      -5.566  10.979  18.719  0.00  0.00    +0.000 A 
ATOM     18  C   UNL     1      -4.981  11.881  19.606  0.00  0.00    +0.000 A 
ATOM     19  N   UNL     1      -5.651  12.255  20.726  0.00  0.00    +0.000 NA
ENDBRANCH   1  18
BRANCH   9  20
ATOM     20  C   UNL     1       2.578  14.499  19.788  0.00  0.00    +0.000 A 
ATOM     21  C   UNL     1       2.839  14.228  21.133  0.00  0.00    +0.000 A 
ATOM     22  C   UNL     1       4.128  14.390  21.638  0.00  0.00    +0.000 A 
ATOM     23  C   UNL     1       5.110  14.881  20.794  0.00  0.00    +0.000 A 
ATOM     24  N   UNL     1       4.884  15.219  19.507  0.00  0.00    +0.000 NA
ATOM     25  C   UNL     1       3.622  15.029  19.036  0.00  0.00    +0.000 A 
ENDBRANCH   9  20
TORSDOF 2
ENDMDL
MODEL 8
REMARK VINA RESULT:      -6.0      0.784      1.119
REMARK  Name = 
REMARK  3 active torsions:
REMARK  status: ('A' for Active; 'I' for Inactive)
REMARK    1  A    between atoms: C_1  and  C_2
REMARK    2  A    between atoms: C_6  and  N_7
REMARK    3  A    between atoms: C_15  and  C_17
REMARK                            x       y       z     vdW  Elec       q    Type
REMARK                         _______ _______ _______ _____ _____    ______ ____
ROOT
ATOM      1  N   UNL     1       0.277   9.774  20.073  0.00  0.00    +0.000 N 
ATOM      2  C   UNL     1       0.492  10.216  21.443  0.00  0.00    +0.000 C 
ATOM      3  C   UNL     1       0.313  11.725  21.377  0.00  0.00    +0.000 C 
ATOM      4  C   UNL     1      -0.722  11.956  20.259  0.00  0.00    +0.000 C 
ATOM      5  C   UNL     1      -0.434  13.272  19.494  0.00  0.00    +0.000 C 
ATOM      6  C   UNL     1      -0.747  14.516  20.327  0.00  0.00    +0.000 C 
ATOM      7  C   UNL     1      -2.187  14.457  20.824  0.00  0.00    +0.000 C 
ATOM      8  N   UNL     1      -2.367  13.239  21.612  0.00  0.00    +0.000 N 
ATOM      9  C   UNL     1      -2.675  13.154  22.973  0.00  0.00    +0.000 C 
ATOM     10  O   UNL     1      -2.915  12.077  23.520  0.00  0.00    +0.000 OA
ATOM     11  C   UNL     1      -2.156  11.997  20.844  0.00  0.00    +0.000 C 
ATOM     12  C   UNL     1      -0.516  10.741  19.315  0.00  0.00    +0.000 C 
ENDROOT
BRANCH   1  18
ATOM     13  C   UNL     1       2.808   5.688  20.075  0.00  0.00    +0.000 C 
ATOM     14  C   UNL     1       2.438   6.964  19.381  0.00  0.00    +0.000 A 
ATOM     15  C   UNL     1       2.960   7.250  18.129  0.00  0.00    +0.000 A 
ATOM     16  C   UNL     1       2.582   8.436  17.517  0.00  0.00    +0.000 A 
ATOM     17  C   UNL     1       1.690   9.280  18.175  0.00  0.00    +0.000 A 
ATOM     18  C   UNL     1       1.171   8.940  19.423  0.00  0.00    +0.000 A 
ATOM     19  N   UNL     1       1.563   7.789  20.025  0.00  0.00    +0.000 NA
ENDBRANCH   1  18
BRANCH   9  20
ATOM     20  C   UNL     1      -2.723  14.359  23.839  0.00  0.00    +0.000 A 
ATOM     21  C   UNL     1      -3.873  15.112  24.085  0.00  0.00    +0.000 A 
ATOM     22  C   UNL     1      -3.811  16.223  24.925  0.00  0.00    +0.000 A 
ATOM     23  C   UNL     1      -2.581  16.587  25.447  0.00  0.00    +0.000 A 
ATOM     24  N   UNL     1      -1.434  15.926  25.180  0.00  0.00    +0.000 NA
ATOM     25  C   UNL     1      -1.530  14.834  24.375  0.00  0.00    +0.000 A 
ENDBRANCH   9  20
TORSDOF 2
ENDMDL
MODEL 9
REMARK VINA RESULT:      -6.0      2.013      2.759
REMARK  Name = 
REMARK  3 active torsions:
REMARK  status: ('A' for Active; 'I' for Inactive)
REMARK    1  A    between atoms: C_1  and  C_2
REMARK    2  A    between atoms: C_6  and  N_7
REMARK    3  A    between atoms: C_15  and  C_17
REMARK                            x       y       z     vdW  Elec       q    Type
REMARK                         _______ _______ _______ _____ _____    ______ ____
ROOT
ATOM      1  N   UNL     1       0.898  10.465  19.743  0.00  0.00    +0.000 N 
ATOM      2  C   UNL     1      -0.255  11.057  19.081  0.00  0.00    +0.000 C 
ATOM      3  C   UNL     1      -1.242  11.308  20.211  0.00  0.00    +0.000 C 
ATOM      4  C   UNL     1      -0.368  11.599  21.447  0.00  0.00    +0.000 C 
ATOM      5  C   UNL     1      -1.035  11.065  22.740  0.00  0.00    +0.000 C 
ATOM      6  C   UNL     1      -2.258  11.886  23.153  0.00  0.00    +0.000 C 
ATOM      7  C   UNL     1      -1.875  13.357  23.282  0.00  0.00    +0.000 C 
ATOM      8  N   UNL     1      -1.338  13.820  22.004  0.00  0.00    +0.000 N 
ATOM      9  C   UNL     1      -1.880  14.800  21.167  0.00  0.00    +0.000 C 
ATOM     10  O   UNL     1      -1.290  15.199  20.162  0.00  0.00    +0.000 OA
ATOM     11  C   UNL     1      -0.108  13.119  21.585  0.00  0.00    +0.000 C 
ATOM     12  C   UNL     1       0.939  10.811  21.164  0.00  0.00    +0.000 C 
ENDROOT
BRANCH   1  18
ATOM     13  C   UNL     1       2.028   5.870  20.591  0.00  0.00    +0.000 C 
ATOM     14  C   UNL     1       2.064   7.047  19.663  0.00  0.00    +0.000 A 
ATOM     15  C   UNL     1       2.630   6.922  18.404  0.00  0.00    +0.000 A 
ATOM     16  C   UNL     1       2.632   8.031  17.573  0.00  0.00    +0.000 A 
ATOM     17  C   UNL     1       2.058   9.216  18.028  0.00  0.00    +0.000 A 
ATOM     18  C   UNL     1       1.478   9.291  19.293  0.00  0.00    +0.000 A 
ATOM     19  N   UNL     1       1.500   8.206  20.109  0.00  0.00    +0.000 NA
ENDBRANCH   1  18
BRANCH   9  20
ATOM     20  C   UNL     1      -3.205  15.414  21.441  0.00  0.00    +0.000 A 
ATOM     21  C   UNL     1      -3.406  16.540  22.242  0.00  0.00    +0.000 A 
ATOM     22  C   UNL     1      -4.694  17.042  22.426  0.00  0.00    +0.000 A 
ATOM     23  C   UNL     1      -5.755  16.361  21.852  0.00  0.00    +0.000 A 
ATOM     24  N   UNL     1      -5.610  15.231  21.128  0.00  0.00    +0.000 NA
ATOM     25  C   UNL     1      -4.340  14.779  20.947  0.00  0.00    +0.000 A 
ENDBRANCH   9  20
TORSDOF 2
ENDMDL
