MODEL 1
REMARK VINA RESULT:      -7.0      0.000      0.000
REMARK  Name = 
REMARK  11 active torsions:
REMARK  status: ('A' for Active; 'I' for Inactive)
REMARK    1  A    between atoms: C_1  and  O_2
REMARK    2  A    between atoms: O_2  and  C_3
REMARK    3  A    between atoms: C_6  and  C_7
REMARK    4  A    between atoms: C_7  and  C_8
REMARK    5  A    between atoms: C_8  and  N_9
REMARK    6  A    between atoms: C_8  and  C_10
REMARK    7  A    between atoms: N_12  and  C_13
REMARK    8  A    between atoms: C_17  and  N_18
REMARK    9  A    between atoms: N_23  and  C_24
REMARK   10  A    between atoms: N_23  and  C_25
REMARK   11  A    between atoms: C_30  and  O_31
REMARK                            x       y       z     vdW  Elec       q    Type
REMARK                         _______ _______ _______ _____ _____    ______ ____
ROOT
ATOM      1  C   UNL     1      -5.231  11.624  18.209  0.00  0.00    +0.000 C 
ATOM      2  C   UNL     1      -5.921  12.538  17.178  0.00  0.00    +0.000 C 
ATOM      3  C   UNL     1      -6.663  13.756  17.735  0.00  0.00    +0.000 C 
ATOM      4  C   UNL     1      -7.395  13.531  19.062  0.00  0.00    +0.000 C 
ATOM      5  C   UNL     1      -6.560  12.752  20.101  0.00  0.00    +0.000 C 
ATOM      6  C   UNL     1      -6.117  11.413  19.465  0.00  0.00    +0.000 C 
ENDROOT
BRANCH   5   7
ATOM      7  N   UNL     1      -5.495  13.534  20.729  0.00  0.00    +0.000 N 
ATOM      8  C   UNL     1      -4.899  14.665  20.236  0.00  0.00    +0.000 A 
ATOM      9  N   UNL     1      -4.070  15.214  21.091  0.00  0.00    +0.000 NA
ATOM     10  C   UNL     1      -4.140  14.431  22.224  0.00  0.00    +0.000 A 
ATOM     11  C   UNL     1      -3.508  14.528  23.493  0.00  0.00    +0.000 A 
ATOM     12  N   UNL     1      -2.751  15.605  23.939  0.00  0.00    +0.000 N 
ATOM     13  C   UNL     1      -2.504  16.757  23.085  0.00  0.00    +0.000 C 
ATOM     14  C   UNL     1      -1.805  15.394  25.024  0.00  0.00    +0.000 C 
ATOM     15  N   UNL     1      -3.720  13.473  24.339  0.00  0.00    +0.000 NA
ATOM     16  C   UNL     1      -4.566  12.483  23.987  0.00  0.00    +0.000 A 
ATOM     17  N   UNL     1      -5.265  12.355  22.848  0.00  0.00    +0.000 NA
ATOM     18  C   UNL     1      -4.994  13.358  21.998  0.00  0.00    +0.000 A 
ENDBRANCH   5   7
BRANCH   1  21
ATOM     19  C   UNL     1      -2.807  11.186  18.345  0.00  0.00    +0.000 C 
ATOM     20  O   UNL     1      -2.970  10.054  17.900  0.00  0.00    +0.000 OA
ATOM     21  N   UNL     1      -3.875  12.060  18.547  0.00  0.00    +0.000 N 
ATOM     22  H   UNL     1      -3.651  13.048  18.613  0.00  0.00    +0.000 HD
BRANCH  19  23
ATOM     23  C   UNL     1      -1.408  11.768  18.658  0.00  0.00    +0.000 C 
BRANCH  23  24
ATOM     24  N   UNL     1      -1.475  13.236  18.823  0.00  0.00    +0.000 NA
ATOM     25  H   UNL     1      -0.822  13.675  18.174  0.00  0.00    +0.000 HD
ATOM     26  H   UNL     1      -1.151  13.511  19.752  0.00  0.00    +0.000 HD
ENDBRANCH  23  24
BRANCH  23  27
ATOM     27  C   UNL     1      -0.838  11.057  19.907  0.00  0.00    +0.000 C 
BRANCH  27  31
ATOM     28  C   UNL     1       2.055   7.950  19.070  0.00  0.00    +0.000 A 
ATOM     29  C   UNL     1       1.531   8.096  20.358  0.00  0.00    +0.000 A 
ATOM     30  C   UNL     1       0.592   9.095  20.633  0.00  0.00    +0.000 A 
ATOM     31  C   UNL     1       0.181   9.978  19.626  0.00  0.00    +0.000 A 
ATOM     32  C   UNL     1       0.724   9.838  18.343  0.00  0.00    +0.000 A 
ATOM     33  C   UNL     1       1.651   8.830  18.069  0.00  0.00    +0.000 A 
BRANCH  28  35
ATOM     34  C   UNL     1       3.720   6.966  17.704  0.00  0.00    +0.000 C 
ATOM     35  O   UNL     1       2.983   6.957  18.924  0.00  0.00    +0.000 OA
ENDBRANCH  28  35
ENDBRANCH  27  31
ENDBRANCH  23  27
ENDBRANCH  19  23
ENDBRANCH   1  21
BRANCH   6  36
ATOM     36  O   UNL     1      -7.290  10.633  19.131  0.00  0.00    +0.000 OA
ATOM     37  H   UNL     1      -7.044   9.703  18.993  0.00  0.00    +0.000 HD
ENDBRANCH   6  36
TORSDOF 8
ENDMDL
MODEL 2
REMARK VINA RESULT:      -7.0      6.393      9.821
REMARK  Name = 
REMARK  11 active torsions:
REMARK  status: ('A' for Active; 'I' for Inactive)
REMARK    1  A    between atoms: C_1  and  O_2
REMARK    2  A    between atoms: O_2  and  C_3
REMARK    3  A    between atoms: C_6  and  C_7
REMARK    4  A    between atoms: C_7  and  C_8
REMARK    5  A    between atoms: C_8  and  N_9
REMARK    6  A    between atoms: C_8  and  C_10
REMARK    7  A    between atoms: N_12  and  C_13
REMARK    8  A    between atoms: C_17  and  N_18
REMARK    9  A    between atoms: N_23  and  C_24
REMARK   10  A    between atoms: N_23  and  C_25
REMARK   11  A    between atoms: C_30  and  O_31
REMARK                            x       y       z     vdW  Elec       q    Type
REMARK                         _______ _______ _______ _____ _____    ______ ____
ROOT
ATOM      1  C   UNL     1       4.163   3.937  19.536  0.00  0.00    +0.000 C 
ATOM      2  C   UNL     1       3.869   3.225  18.201  0.00  0.00    +0.000 C 
ATOM      3  C   UNL     1       2.580   3.630  17.482  0.00  0.00    +0.000 C 
ATOM      4  C   UNL     1       1.382   3.920  18.392  0.00  0.00    +0.000 C 
ATOM      5  C   UNL     1       1.736   4.787  19.619  0.00  0.00    +0.000 C 
ATOM      6  C   UNL     1       2.880   4.089  20.394  0.00  0.00    +0.000 C 
ENDROOT
BRANCH   5   7
ATOM      7  N   UNL     1       1.952   6.202  19.317  0.00  0.00    +0.000 N 
ATOM      8  C   UNL     1       2.467   6.732  18.163  0.00  0.00    +0.000 A 
ATOM      9  N   UNL     1       2.412   8.042  18.139  0.00  0.00    +0.000 NA
ATOM     10  C   UNL     1       1.800   8.405  19.321  0.00  0.00    +0.000 A 
ATOM     11  C   UNL     1       1.432   9.668  19.857  0.00  0.00    +0.000 A 
ATOM     12  N   UNL     1       1.474  10.879  19.177  0.00  0.00    +0.000 N 
ATOM     13  C   UNL     1       1.959  10.956  17.807  0.00  0.00    +0.000 C 
ATOM     14  C   UNL     1       1.520  12.113  19.946  0.00  0.00    +0.000 C 
ATOM     15  N   UNL     1       0.957   9.648  21.142  0.00  0.00    +0.000 NA
ATOM     16  C   UNL     1       0.770   8.470  21.775  0.00  0.00    +0.000 A 
ATOM     17  N   UNL     1       1.012   7.233  21.314  0.00  0.00    +0.000 NA
ATOM     18  C   UNL     1       1.544   7.270  20.082  0.00  0.00    +0.000 A 
ENDBRANCH   5   7
BRANCH   1  21
ATOM     19  C   UNL     1       6.193   5.188  18.904  0.00  0.00    +0.000 C 
ATOM     20  O   UNL     1       6.777   4.141  18.643  0.00  0.00    +0.000 OA
ATOM     21  N   UNL     1       4.877   5.203  19.367  0.00  0.00    +0.000 N 
ATOM     22  H   UNL     1       4.367   6.075  19.265  0.00  0.00    +0.000 HD
BRANCH  19  23
ATOM     23  C   UNL     1       6.832   6.580  18.683  0.00  0.00    +0.000 C 
BRANCH  23  24
ATOM     24  N   UNL     1       8.305   6.504  18.790  0.00  0.00    +0.000 NA
ATOM     25  H   UNL     1       8.629   5.650  18.338  0.00  0.00    +0.000 HD
ATOM     26  H   UNL     1       8.593   6.413  19.766  0.00  0.00    +0.000 HD
ENDBRANCH  23  24
BRANCH  23  27
ATOM     27  C   UNL     1       6.365   7.134  17.317  0.00  0.00    +0.000 C 
BRANCH  27  31
ATOM     28  C   UNL     1       6.145   4.204  14.141  0.00  0.00    +0.000 A 
ATOM     29  C   UNL     1       7.387   4.656  14.597  0.00  0.00    +0.000 A 
ATOM     30  C   UNL     1       7.465   5.599  15.627  0.00  0.00    +0.000 A 
ATOM     31  C   UNL     1       6.297   6.120  16.199  0.00  0.00    +0.000 A 
ATOM     32  C   UNL     1       5.056   5.678  15.724  0.00  0.00    +0.000 A 
ATOM     33  C   UNL     1       4.984   4.726  14.705  0.00  0.00    +0.000 A 
BRANCH  28  35
ATOM     34  C   UNL     1       5.110   3.357  12.188  0.00  0.00    +0.000 C 
ATOM     35  O   UNL     1       6.191   3.302  13.115  0.00  0.00    +0.000 OA
ENDBRANCH  28  35
ENDBRANCH  27  31
ENDBRANCH  23  27
ENDBRANCH  19  23
ENDBRANCH   1  21
BRANCH   6  36
ATOM     36  O   UNL     1       2.422   2.795  20.855  0.00  0.00    +0.000 OA
ATOM     37  H   UNL     1       2.939   2.515  21.629  0.00  0.00    +0.000 HD
ENDBRANCH   6  36
TORSDOF 8
ENDMDL
MODEL 3
REMARK VINA RESULT:      -6.9      6.047     11.251
REMARK  Name = 
REMARK  11 active torsions:
REMARK  status: ('A' for Active; 'I' for Inactive)
REMARK    1  A    between atoms: C_1  and  O_2
REMARK    2  A    between atoms: O_2  and  C_3
REMARK    3  A    between atoms: C_6  and  C_7
REMARK    4  A    between atoms: C_7  and  C_8
REMARK    5  A    between atoms: C_8  and  N_9
REMARK    6  A    between atoms: C_8  and  C_10
REMARK    7  A    between atoms: N_12  and  C_13
REMARK    8  A    between atoms: C_17  and  N_18
REMARK    9  A    between atoms: N_23  and  C_24
REMARK   10  A    between atoms: N_23  and  C_25
REMARK   11  A    between atoms: C_30  and  O_31
REMARK                            x       y       z     vdW  Elec       q    Type
REMARK                         _______ _______ _______ _____ _____    ______ ____
ROOT
ATOM      1  C   UNL     1       1.618   3.991  19.157  0.00  0.00    +0.000 C 
ATOM      2  C   UNL     1       1.609   3.149  20.448  0.00  0.00    +0.000 C 
ATOM      3  C   UNL     1       2.918   2.445  20.812  0.00  0.00    +0.000 C 
ATOM      4  C   UNL     1       3.720   1.893  19.629  0.00  0.00    +0.000 C 
ATOM      5  C   UNL     1       3.824   2.875  18.443  0.00  0.00    +0.000 C 
ATOM      6  C   UNL     1       2.391   3.277  18.017  0.00  0.00    +0.000 C 
ENDROOT
BRANCH   5   7
ATOM      7  N   UNL     1       4.752   3.985  18.657  0.00  0.00    +0.000 N 
ATOM      8  C   UNL     1       5.534   4.208  19.760  0.00  0.00    +0.000 A 
ATOM      9  N   UNL     1       6.360   5.214  19.600  0.00  0.00    +0.000 NA
ATOM     10  C   UNL     1       6.144   5.664  18.315  0.00  0.00    +0.000 A 
ATOM     11  C   UNL     1       6.749   6.698  17.551  0.00  0.00    +0.000 A 
ATOM     12  N   UNL     1       7.879   7.420  17.918  0.00  0.00    +0.000 N 
ATOM     13  C   UNL     1       8.539   7.187  19.193  0.00  0.00    +0.000 C 
ATOM     14  C   UNL     1       8.114   8.715  17.300  0.00  0.00    +0.000 C 
ATOM     15  N   UNL     1       6.171   6.949  16.335  0.00  0.00    +0.000 NA
ATOM     16  C   UNL     1       5.164   6.168  15.892  0.00  0.00    +0.000 A 
ATOM     17  N   UNL     1       4.590   5.124  16.510  0.00  0.00    +0.000 NA
ATOM     18  C   UNL     1       5.117   4.933  17.730  0.00  0.00    +0.000 A 
ENDBRANCH   5   7
BRANCH   1  21
ATOM     19  C   UNL     1       1.896   6.310  18.361  0.00  0.00    +0.000 C 
ATOM     20  O   UNL     1       1.369   6.023  17.290  0.00  0.00    +0.000 OA
ATOM     21  N   UNL     1       2.079   5.365  19.370  0.00  0.00    +0.000 N 
ATOM     22  H   UNL     1       2.224   5.721  20.309  0.00  0.00    +0.000 HD
BRANCH  19  23
ATOM     23  C   UNL     1       2.344   7.749  18.714  0.00  0.00    +0.000 C 
BRANCH  23  24
ATOM     24  N   UNL     1       3.507   8.153  17.894  0.00  0.00    +0.000 NA
ATOM     25  H   UNL     1       3.827   7.352  17.352  0.00  0.00    +0.000 HD
ATOM     26  H   UNL     1       4.298   8.405  18.489  0.00  0.00    +0.000 HD
ENDBRANCH  23  24
BRANCH  23  27
ATOM     27  C   UNL     1       1.139   8.703  18.543  0.00  0.00    +0.000 C 
BRANCH  27  31
ATOM     28  C   UNL     1      -0.231  10.608  22.179  0.00  0.00    +0.000 A 
ATOM     29  C   UNL     1      -0.463  11.209  20.938  0.00  0.00    +0.000 A 
ATOM     30  C   UNL     1      -0.027  10.596  19.760  0.00  0.00    +0.000 A 
ATOM     31  C   UNL     1       0.668   9.380  19.808  0.00  0.00    +0.000 A 
ATOM     32  C   UNL     1       0.913   8.793  21.056  0.00  0.00    +0.000 A 
ATOM     33  C   UNL     1       0.464   9.402  22.229  0.00  0.00    +0.000 A 
BRANCH  28  35
ATOM     34  C   UNL     1      -2.054  11.680  23.241  0.00  0.00    +0.000 C 
ATOM     35  O   UNL     1      -0.679  11.309  23.263  0.00  0.00    +0.000 OA
ENDBRANCH  28  35
ENDBRANCH  27  31
ENDBRANCH  23  27
ENDBRANCH  19  23
ENDBRANCH   1  21
BRANCH   6  36
ATOM     36  O   UNL     1       1.674   2.096  17.583  0.00  0.00    +0.000 OA
ATOM     37  H   UNL     1       2.286   1.476  17.151  0.00  0.00    +0.000 HD
ENDBRANCH   6  36
TORSDOF 8
ENDMDL
MODEL 4
REMARK VINA RESULT:      -6.7      1.362      1.559
REMARK  Name = 
REMARK  11 active torsions:
REMARK  status: ('A' for Active; 'I' for Inactive)
REMARK    1  A    between atoms: C_1  and  O_2
REMARK    2  A    between atoms: O_2  and  C_3
REMARK    3  A    between atoms: C_6  and  C_7
REMARK    4  A    between atoms: C_7  and  C_8
REMARK    5  A    between atoms: C_8  and  N_9
REMARK    6  A    between atoms: C_8  and  C_10
REMARK    7  A    between atoms: N_12  and  C_13
REMARK    8  A    between atoms: C_17  and  N_18
REMARK    9  A    between atoms: N_23  and  C_24
REMARK   10  A    between atoms: N_23  and  C_25
REMARK   11  A    between atoms: C_30  and  O_31
REMARK                            x       y       z     vdW  Elec       q    Type
REMARK                         _______ _______ _______ _____ _____    ______ ____
ROOT
ATOM      1  C   UNL     1      -5.419  12.109  19.170  0.00  0.00    +0.000 C 
ATOM      2  C   UNL     1      -6.056  12.938  18.038  0.00  0.00    +0.000 C 
ATOM      3  C   UNL     1      -6.994  14.070  18.467  0.00  0.00    +0.000 C 
ATOM      4  C   UNL     1      -7.872  13.772  19.687  0.00  0.00    +0.000 C 
ATOM      5  C   UNL     1      -7.108  13.093  20.844  0.00  0.00    +0.000 C 
ATOM      6  C   UNL     1      -6.440  11.808  20.298  0.00  0.00    +0.000 C 
ENDROOT
BRANCH   5   7
ATOM      7  N   UNL     1      -6.229  13.990  21.595  0.00  0.00    +0.000 N 
ATOM      8  C   UNL     1      -6.250  15.359  21.595  0.00  0.00    +0.000 A 
ATOM      9  N   UNL     1      -5.425  15.878  22.473  0.00  0.00    +0.000 NA
ATOM     10  C   UNL     1      -4.849  14.802  23.115  0.00  0.00    +0.000 A 
ATOM     11  C   UNL     1      -3.908  14.714  24.176  0.00  0.00    +0.000 A 
ATOM     12  N   UNL     1      -3.460  15.778  24.950  0.00  0.00    +0.000 N 
ATOM     13  C   UNL     1      -3.913  17.137  24.695  0.00  0.00    +0.000 C 
ATOM     14  C   UNL     1      -2.199  15.645  25.662  0.00  0.00    +0.000 C 
ATOM     15  N   UNL     1      -3.458  13.453  24.463  0.00  0.00    +0.000 NA
ATOM     16  C   UNL     1      -3.983  12.386  23.824  0.00  0.00    +0.000 A 
ATOM     17  N   UNL     1      -4.930  12.373  22.873  0.00  0.00    +0.000 NA
ATOM     18  C   UNL     1      -5.311  13.619  22.550  0.00  0.00    +0.000 A 
ENDBRANCH   5   7
BRANCH   1  21
ATOM     19  C   UNL     1      -2.954  12.169  19.259  0.00  0.00    +0.000 C 
ATOM     20  O   UNL     1      -2.887  11.224  18.479  0.00  0.00    +0.000 OA
ATOM     21  N   UNL     1      -4.177  12.692  19.681  0.00  0.00    +0.000 N 
ATOM     22  H   UNL     1      -4.165  13.634  20.059  0.00  0.00    +0.000 HD
BRANCH  19  23
ATOM     23  C   UNL     1      -1.702  12.904  19.792  0.00  0.00    +0.000 C 
BRANCH  23  24
ATOM     24  N   UNL     1      -1.938  14.363  19.861  0.00  0.00    +0.000 NA
ATOM     25  H   UNL     1      -2.914  14.553  19.636  0.00  0.00    +0.000 HD
ATOM     26  H   UNL     1      -1.400  14.851  19.143  0.00  0.00    +0.000 HD
ENDBRANCH  23  24
BRANCH  23  27
ATOM     27  C   UNL     1      -1.314  12.302  21.162  0.00  0.00    +0.000 C 
BRANCH  27  31
ATOM     28  C   UNL     1       0.889   8.583  20.951  0.00  0.00    +0.000 A 
ATOM     29  C   UNL     1       0.145   8.897  22.092  0.00  0.00    +0.000 A 
ATOM     30  C   UNL     1      -0.573  10.095  22.164  0.00  0.00    +0.000 A 
ATOM     31  C   UNL     1      -0.537  11.008  21.102  0.00  0.00    +0.000 A 
ATOM     32  C   UNL     1       0.225  10.696  19.969  0.00  0.00    +0.000 A 
ATOM     33  C   UNL     1       0.929   9.492  19.896  0.00  0.00    +0.000 A 
BRANCH  28  35
ATOM     34  C   UNL     1       2.244   7.015  19.807  0.00  0.00    +0.000 C 
ATOM     35  O   UNL     1       1.569   7.399  21.002  0.00  0.00    +0.000 OA
ENDBRANCH  28  35
ENDBRANCH  27  31
ENDBRANCH  23  27
ENDBRANCH  19  23
ENDBRANCH   1  21
BRANCH   6  36
ATOM     36  O   UNL     1      -7.466  10.903  19.824  0.00  0.00    +0.000 OA
ATOM     37  H   UNL     1      -8.246  11.406  19.533  0.00  0.00    +0.000 HD
ENDBRANCH   6  36
TORSDOF 8
ENDMDL
MODEL 5
REMARK VINA RESULT:      -6.7      1.997      2.439
REMARK  Name = 
REMARK  11 active torsions:
REMARK  status: ('A' for Active; 'I' for Inactive)
REMARK    1  A    between atoms: C_1  and  O_2
REMARK    2  A    between atoms: O_2  and  C_3
REMARK    3  A    between atoms: C_6  and  C_7
REMARK    4  A    between atoms: C_7  and  C_8
REMARK    5  A    between atoms: C_8  and  N_9
REMARK    6  A    between atoms: C_8  and  C_10
REMARK    7  A    between atoms: N_12  and  C_13
REMARK    8  A    between atoms: C_17  and  N_18
REMARK    9  A    between atoms: N_23  and  C_24
REMARK   10  A    between atoms: N_23  and  C_25
REMARK   11  A    between atoms: C_30  and  O_31
REMARK                            x       y       z     vdW  Elec       q    Type
REMARK                         _______ _______ _______ _____ _____    ______ ____
ROOT
ATOM      1  C   UNL     1      -5.932  11.456  18.664  0.00  0.00    +0.000 C 
ATOM      2  C   UNL     1      -6.681  12.367  17.672  0.00  0.00    +0.000 C 
ATOM      3  C   UNL     1      -7.231  13.680  18.235  0.00  0.00    +0.000 C 
ATOM      4  C   UNL     1      -7.785  13.604  19.662  0.00  0.00    +0.000 C 
ATOM      5  C   UNL     1      -6.880  12.815  20.633  0.00  0.00    +0.000 C 
ATOM      6  C   UNL     1      -6.646  11.404  20.040  0.00  0.00    +0.000 C 
ENDROOT
BRANCH   5   7
ATOM      7  N   UNL     1      -5.675  13.531  21.052  0.00  0.00    +0.000 N 
ATOM      8  C   UNL     1      -5.024  14.524  20.369  0.00  0.00    +0.000 A 
ATOM      9  N   UNL     1      -4.051  15.062  21.065  0.00  0.00    +0.000 NA
ATOM     10  C   UNL     1      -4.074  14.419  22.285  0.00  0.00    +0.000 A 
ATOM     11  C   UNL     1      -3.295  14.578  23.463  0.00  0.00    +0.000 A 
ATOM     12  N   UNL     1      -2.384  15.600  23.699  0.00  0.00    +0.000 N 
ATOM     13  C   UNL     1      -2.116  16.616  22.692  0.00  0.00    +0.000 C 
ATOM     14  C   UNL     1      -1.349  15.399  24.701  0.00  0.00    +0.000 C 
ATOM     15  N   UNL     1      -3.519  13.652  24.447  0.00  0.00    +0.000 NA
ATOM     16  C   UNL     1      -4.499  12.735  24.303  0.00  0.00    +0.000 A 
ATOM     17  N   UNL     1      -5.332  12.569  23.264  0.00  0.00    +0.000 NA
ATOM     18  C   UNL     1      -5.055  13.435  22.276  0.00  0.00    +0.000 A 
ENDBRANCH   5   7
BRANCH   1  21
ATOM     19  C   UNL     1      -3.580  11.073  18.023  0.00  0.00    +0.000 C 
ATOM     20  O   UNL     1      -3.918  10.172  17.261  0.00  0.00    +0.000 OA
ATOM     21  N   UNL     1      -4.510  11.783  18.784  0.00  0.00    +0.000 N 
ATOM     22  H   UNL     1      -4.215  12.687  19.137  0.00  0.00    +0.000 HD
BRANCH  19  23
ATOM     23  C   UNL     1      -2.114  11.547  18.160  0.00  0.00    +0.000 C 
BRANCH  23  24
ATOM     24  N   UNL     1      -1.692  12.303  16.962  0.00  0.00    +0.000 NA
ATOM     25  H   UNL     1      -2.514  12.709  16.517  0.00  0.00    +0.000 HD
ATOM     26  H   UNL     1      -1.292  11.678  16.260  0.00  0.00    +0.000 HD
ENDBRANCH  23  24
BRANCH  23  27
ATOM     27  C   UNL     1      -1.974  12.371  19.461  0.00  0.00    +0.000 C 
BRANCH  27  31
ATOM     28  C   UNL     1      -0.100  10.342  22.792  0.00  0.00    +0.000 A 
ATOM     29  C   UNL     1       0.458  10.259  21.512  0.00  0.00    +0.000 A 
ATOM     30  C   UNL     1      -0.141  10.917  20.433  0.00  0.00    +0.000 A 
ATOM     31  C   UNL     1      -1.321  11.650  20.616  0.00  0.00    +0.000 A 
ATOM     32  C   UNL     1      -1.885  11.713  21.896  0.00  0.00    +0.000 A 
ATOM     33  C   UNL     1      -1.276  11.066  22.974  0.00  0.00    +0.000 A 
BRANCH  28  35
ATOM     34  C   UNL     1       1.827   9.111  23.401  0.00  0.00    +0.000 C 
ATOM     35  O   UNL     1       0.555   9.640  23.763  0.00  0.00    +0.000 OA
ENDBRANCH  28  35
ENDBRANCH  27  31
ENDBRANCH  23  27
ENDBRANCH  19  23
ENDBRANCH   1  21
BRANCH   6  36
ATOM     36  O   UNL     1      -7.916  10.719  19.926  0.00  0.00    +0.000 OA
ATOM     37  H   UNL     1      -8.024  10.364  19.027  0.00  0.00    +0.000 HD
ENDBRANCH   6  36
TORSDOF 8
ENDMDL
MODEL 6
REMARK VINA RESULT:      -6.5      2.103      2.527
REMARK  Name = 
REMARK  11 active torsions:
REMARK  status: ('A' for Active; 'I' for Inactive)
REMARK    1  A    between atoms: C_1  and  O_2
REMARK    2  A    between atoms: O_2  and  C_3
REMARK    3  A    between atoms: C_6  and  C_7
REMARK    4  A    between atoms: C_7  and  C_8
REMARK    5  A    between atoms: C_8  and  N_9
REMARK    6  A    between atoms: C_8  and  C_10
REMARK    7  A    between atoms: N_12  and  C_13
REMARK    8  A    between atoms: C_17  and  N_18
REMARK    9  A    between atoms: N_23  and  C_24
REMARK   10  A    between atoms: N_23  and  C_25
REMARK   11  A    between atoms: C_30  and  O_31
REMARK                            x       y       z     vdW  Elec       q    Type
REMARK                         _______ _______ _______ _____ _____    ______ ____
ROOT
ATOM      1  C   UNL     1      -4.756  12.170  19.695  0.00  0.00    +0.000 C 
ATOM      2  C   UNL     1      -5.726  12.954  18.790  0.00  0.00    +0.000 C 
ATOM      3  C   UNL     1      -5.960  14.423  19.153  0.00  0.00    +0.000 C 
ATOM      4  C   UNL     1      -6.008  14.731  20.653  0.00  0.00    +0.000 C 
ATOM      5  C   UNL     1      -4.891  14.037  21.461  0.00  0.00    +0.000 C 
ATOM      6  C   UNL     1      -4.970  12.515  21.192  0.00  0.00    +0.000 C 
ENDROOT
BRANCH   5   7
ATOM      7  N   UNL     1      -3.566  14.637  21.298  0.00  0.00    +0.000 N 
ATOM      8  C   UNL     1      -3.276  15.869  20.775  0.00  0.00    +0.000 A 
ATOM      9  N   UNL     1      -2.006  16.179  20.886  0.00  0.00    +0.000 NA
ATOM     10  C   UNL     1      -1.426  15.117  21.545  0.00  0.00    +0.000 A 
ATOM     11  C   UNL     1      -0.096  14.875  21.984  0.00  0.00    +0.000 A 
ATOM     12  N   UNL     1       0.940  15.803  21.976  0.00  0.00    +0.000 N 
ATOM     13  C   UNL     1       0.741  17.147  21.456  0.00  0.00    +0.000 C 
ATOM     14  C   UNL     1       2.312  15.321  22.005  0.00  0.00    +0.000 C 
ATOM     15  N   UNL     1       0.141  13.626  22.493  0.00  0.00    +0.000 NA
ATOM     16  C   UNL     1      -0.879  12.755  22.646  0.00  0.00    +0.000 A 
ATOM     17  N   UNL     1      -2.173  12.930  22.337  0.00  0.00    +0.000 NA
ATOM     18  C   UNL     1      -2.379  14.131  21.773  0.00  0.00    +0.000 A 
ENDBRANCH   5   7
BRANCH   1  21
ATOM     19  C   UNL     1      -2.769  11.283  18.532  0.00  0.00    +0.000 C 
ATOM     20  O   UNL     1      -3.388  10.274  18.209  0.00  0.00    +0.000 OA
ATOM     21  N   UNL     1      -3.356  12.299  19.286  0.00  0.00    +0.000 N 
ATOM     22  H   UNL     1      -2.910  13.210  19.251  0.00  0.00    +0.000 HD
BRANCH  19  23
ATOM     23  C   UNL     1      -1.313  11.550  18.082  0.00  0.00    +0.000 C 
BRANCH  23  24
ATOM     24  N   UNL     1      -1.200  12.870  17.424  0.00  0.00    +0.000 NA
ATOM     25  H   UNL     1      -1.967  12.979  16.761  0.00  0.00    +0.000 HD
ATOM     26  H   UNL     1      -0.351  12.921  16.859  0.00  0.00    +0.000 HD
ENDBRANCH  23  24
BRANCH  23  27
ATOM     27  C   UNL     1      -0.379  11.418  19.308  0.00  0.00    +0.000 C 
BRANCH  27  31
ATOM     28  C   UNL     1       2.041   7.834  19.459  0.00  0.00    +0.000 A 
ATOM     29  C   UNL     1       1.919   8.551  18.266  0.00  0.00    +0.000 A 
ATOM     30  C   UNL     1       1.143   9.713  18.211  0.00  0.00    +0.000 A 
ATOM     31  C   UNL     1       0.458  10.161  19.349  0.00  0.00    +0.000 A 
ATOM     32  C   UNL     1       0.569   9.428  20.537  0.00  0.00    +0.000 A 
ATOM     33  C   UNL     1       1.357   8.276  20.590  0.00  0.00    +0.000 A 
BRANCH  28  35
ATOM     34  C   UNL     1       2.977   6.148  18.087  0.00  0.00    +0.000 C 
ATOM     35  O   UNL     1       2.804   6.703  19.388  0.00  0.00    +0.000 OA
ENDBRANCH  28  35
ENDBRANCH  27  31
ENDBRANCH  23  27
ENDBRANCH  19  23
ENDBRANCH   1  21
BRANCH   6  36
ATOM     36  O   UNL     1      -6.251  12.017  21.648  0.00  0.00    +0.000 OA
ATOM     37  H   UNL     1      -6.197  11.061  21.815  0.00  0.00    +0.000 HD
ENDBRANCH   6  36
TORSDOF 8
ENDMDL
MODEL 7
REMARK VINA RESULT:      -6.5      2.341      2.871
REMARK  Name = 
REMARK  11 active torsions:
REMARK  status: ('A' for Active; 'I' for Inactive)
REMARK    1  A    between atoms: C_1  and  O_2
REMARK    2  A    between atoms: O_2  and  C_3
REMARK    3  A    between atoms: C_6  and  C_7
REMARK    4  A    between atoms: C_7  and  C_8
REMARK    5  A    between atoms: C_8  and  N_9
REMARK    6  A    between atoms: C_8  and  C_10
REMARK    7  A    between atoms: N_12  and  C_13
REMARK    8  A    between atoms: C_17  and  N_18
REMARK    9  A    between atoms: N_23  and  C_24
REMARK   10  A    between atoms: N_23  and  C_25
REMARK   11  A    between atoms: C_30  and  O_31
REMARK                            x       y       z     vdW  Elec       q    Type
REMARK                         _______ _______ _______ _____ _____    ______ ____
ROOT
ATOM      1  C   UNL     1      -5.957  11.373  18.681  0.00  0.00    +0.000 C 
ATOM      2  C   UNL     1      -6.787  12.213  17.691  0.00  0.00    +0.000 C 
ATOM      3  C   UNL     1      -7.405  13.502  18.241  0.00  0.00    +0.000 C 
ATOM      4  C   UNL     1      -7.916  13.422  19.684  0.00  0.00    +0.000 C 
ATOM      5  C   UNL     1      -6.940  12.713  20.646  0.00  0.00    +0.000 C 
ATOM      6  C   UNL     1      -6.631  11.307  20.076  0.00  0.00    +0.000 C 
ENDROOT
BRANCH   5   7
ATOM      7  N   UNL     1      -5.772  13.512  21.018  0.00  0.00    +0.000 N 
ATOM      8  C   UNL     1      -5.306  14.637  20.392  0.00  0.00    +0.000 A 
ATOM      9  N   UNL     1      -4.318  15.205  21.040  0.00  0.00    +0.000 NA
ATOM     10  C   UNL     1      -4.136  14.441  22.173  0.00  0.00    +0.000 A 
ATOM     11  C   UNL     1      -3.248  14.563  23.276  0.00  0.00    +0.000 A 
ATOM     12  N   UNL     1      -2.422  15.651  23.533  0.00  0.00    +0.000 N 
ATOM     13  C   UNL     1      -2.374  16.789  22.628  0.00  0.00    +0.000 C 
ATOM     14  C   UNL     1      -1.264  15.464  24.392  0.00  0.00    +0.000 C 
ATOM     15  N   UNL     1      -3.263  13.520  24.164  0.00  0.00    +0.000 NA
ATOM     16  C   UNL     1      -4.156  12.520  24.016  0.00  0.00    +0.000 A 
ATOM     17  N   UNL     1      -5.082  12.370  23.057  0.00  0.00    +0.000 NA
ATOM     18  C   UNL     1      -5.009  13.359  22.152  0.00  0.00    +0.000 A 
ENDBRANCH   5   7
BRANCH   1  21
ATOM     19  C   UNL     1      -3.561  10.928  18.294  0.00  0.00    +0.000 C 
ATOM     20  O   UNL     1      -3.824   9.821  17.835  0.00  0.00    +0.000 OA
ATOM     21  N   UNL     1      -4.556  11.791  18.756  0.00  0.00    +0.000 N 
ATOM     22  H   UNL     1      -4.313  12.774  18.824  0.00  0.00    +0.000 HD
BRANCH  19  23
ATOM     23  C   UNL     1      -2.122  11.494  18.342  0.00  0.00    +0.000 C 
BRANCH  23  24
ATOM     24  N   UNL     1      -1.774  12.155  17.066  0.00  0.00    +0.000 NA
ATOM     25  H   UNL     1      -1.814  11.468  16.313  0.00  0.00    +0.000 HD
ATOM     26  H   UNL     1      -0.806  12.479  17.078  0.00  0.00    +0.000 HD
ENDBRANCH  23  24
BRANCH  23  27
ATOM     27  C   UNL     1      -1.999  12.445  19.555  0.00  0.00    +0.000 C 
BRANCH  27  31
ATOM     28  C   UNL     1       2.055  13.340  20.774  0.00  0.00    +0.000 A 
ATOM     29  C   UNL     1       0.978  13.997  21.376  0.00  0.00    +0.000 A 
ATOM     30  C   UNL     1      -0.335  13.709  20.989  0.00  0.00    +0.000 A 
ATOM     31  C   UNL     1      -0.586  12.773  19.977  0.00  0.00    +0.000 A 
ATOM     32  C   UNL     1       0.499  12.132  19.366  0.00  0.00    +0.000 A 
ATOM     33  C   UNL     1       1.807  12.413  19.765  0.00  0.00    +0.000 A 
BRANCH  28  35
ATOM     34  C   UNL     1       3.332  14.878  22.043  0.00  0.00    +0.000 C 
ATOM     35  O   UNL     1       3.292  13.721  21.213  0.00  0.00    +0.000 OA
ENDBRANCH  28  35
ENDBRANCH  27  31
ENDBRANCH  23  27
ENDBRANCH  19  23
ENDBRANCH   1  21
BRANCH   6  36
ATOM     36  O   UNL     1      -7.858  10.541  20.010  0.00  0.00    +0.000 OA
ATOM     37  H   UNL     1      -7.880  10.017  19.191  0.00  0.00    +0.000 HD
ENDBRANCH   6  36
TORSDOF 8
ENDMDL
MODEL 8
REMARK VINA RESULT:      -6.5      6.369     10.171
REMARK  Name = 
REMARK  11 active torsions:
REMARK  status: ('A' for Active; 'I' for Inactive)
REMARK    1  A    between atoms: C_1  and  O_2
REMARK    2  A    between atoms: O_2  and  C_3
REMARK    3  A    between atoms: C_6  and  C_7
REMARK    4  A    between atoms: C_7  and  C_8
REMARK    5  A    between atoms: C_8  and  N_9
REMARK    6  A    between atoms: C_8  and  C_10
REMARK    7  A    between atoms: N_12  and  C_13
REMARK    8  A    between atoms: C_17  and  N_18
REMARK    9  A    between atoms: N_23  and  C_24
REMARK   10  A    between atoms: N_23  and  C_25
REMARK   11  A    between atoms: C_30  and  O_31
REMARK                            x       y       z     vdW  Elec       q    Type
REMARK                         _______ _______ _______ _____ _____    ______ ____
ROOT
ATOM      1  C   UNL     1       3.843   3.510  18.576  0.00  0.00    +0.000 C 
ATOM      2  C   UNL     1       2.625   2.845  17.904  0.00  0.00    +0.000 C 
ATOM      3  C   UNL     1       1.252   3.420  18.261  0.00  0.00    +0.000 C 
ATOM      4  C   UNL     1       1.083   3.868  19.717  0.00  0.00    +0.000 C 
ATOM      5  C   UNL     1       2.282   4.678  20.255  0.00  0.00    +0.000 C 
ATOM      6  C   UNL     1       3.565   3.832  20.067  0.00  0.00    +0.000 C 
ENDROOT
BRANCH   5   7
ATOM      7  N   UNL     1       2.355   6.052  19.757  0.00  0.00    +0.000 N 
ATOM      8  C   UNL     1       2.927   6.477  18.587  0.00  0.00    +0.000 A 
ATOM      9  N   UNL     1       2.714   7.751  18.354  0.00  0.00    +0.000 NA
ATOM     10  C   UNL     1       1.934   8.189  19.402  0.00  0.00    +0.000 A 
ATOM     11  C   UNL     1       1.354   9.453  19.698  0.00  0.00    +0.000 A 
ATOM     12  N   UNL     1       1.323  10.549  18.844  0.00  0.00    +0.000 N 
ATOM     13  C   UNL     1       1.946  10.497  17.530  0.00  0.00    +0.000 C 
ATOM     14  C   UNL     1       1.130  11.874  19.411  0.00  0.00    +0.000 C 
ATOM     15  N   UNL     1       0.744   9.550  20.921  0.00  0.00    +0.000 NA
ATOM     16  C   UNL     1       0.633   8.461  21.710  0.00  0.00    +0.000 A 
ATOM     17  N   UNL     1       1.076   7.217  21.472  0.00  0.00    +0.000 NA
ATOM     18  C   UNL     1       1.735   7.150  20.304  0.00  0.00    +0.000 A 
ENDBRANCH   5   7
BRANCH   1  21
ATOM     19  C   UNL     1       5.721   4.881  17.751  0.00  0.00    +0.000 C 
ATOM     20  O   UNL     1       6.528   4.128  18.288  0.00  0.00    +0.000 OA
ATOM     21  N   UNL     1       4.345   4.670  17.836  0.00  0.00    +0.000 N 
ATOM     22  H   UNL     1       3.768   5.125  17.137  0.00  0.00    +0.000 HD
BRANCH  19  23
ATOM     23  C   UNL     1       6.152   6.087  16.882  0.00  0.00    +0.000 C 
BRANCH  23  24
ATOM     24  N   UNL     1       6.594   7.214  17.731  0.00  0.00    +0.000 NA
ATOM     25  H   UNL     1       5.960   7.304  18.523  0.00  0.00    +0.000 HD
ATOM     26  H   UNL     1       6.517   8.099  17.227  0.00  0.00    +0.000 HD
ENDBRANCH  23  24
BRANCH  23  27
ATOM     27  C   UNL     1       7.247   5.624  15.894  0.00  0.00    +0.000 C 
BRANCH  27  31
ATOM     28  C   UNL     1       5.815   3.582  12.358  0.00  0.00    +0.000 A 
ATOM     29  C   UNL     1       5.018   3.647  13.504  0.00  0.00    +0.000 A 
ATOM     30  C   UNL     1       5.473   4.310  14.648  0.00  0.00    +0.000 A 
ATOM     31  C   UNL     1       6.745   4.898  14.668  0.00  0.00    +0.000 A 
ATOM     32  C   UNL     1       7.546   4.813  13.522  0.00  0.00    +0.000 A 
ATOM     33  C   UNL     1       7.081   4.162  12.377  0.00  0.00    +0.000 A 
BRANCH  28  35
ATOM     34  C   UNL     1       3.887   3.084  11.078  0.00  0.00    +0.000 C 
ATOM     35  O   UNL     1       5.279   2.888  11.310  0.00  0.00    +0.000 OA
ENDBRANCH  28  35
ENDBRANCH  27  31
ENDBRANCH  23  27
ENDBRANCH  19  23
ENDBRANCH   1  21
BRANCH   6  36
ATOM     36  O   UNL     1       3.446   2.611  20.836  0.00  0.00    +0.000 OA
ATOM     37  H   UNL     1       2.832   1.998  20.395  0.00  0.00    +0.000 HD
ENDBRANCH   6  36
TORSDOF 8
ENDMDL
MODEL 9
REMARK VINA RESULT:      -6.4      8.808     12.701
REMARK  Name = 
REMARK  11 active torsions:
REMARK  status: ('A' for Active; 'I' for Inactive)
REMARK    1  A    between atoms: C_1  and  O_2
REMARK    2  A    between atoms: O_2  and  C_3
REMARK    3  A    between atoms: C_6  and  C_7
REMARK    4  A    between atoms: C_7  and  C_8
REMARK    5  A    between atoms: C_8  and  N_9
REMARK    6  A    between atoms: C_8  and  C_10
REMARK    7  A    between atoms: N_12  and  C_13
REMARK    8  A    between atoms: C_17  and  N_18
REMARK    9  A    between atoms: N_23  and  C_24
REMARK   10  A    between atoms: N_23  and  C_25
REMARK   11  A    between atoms: C_30  and  O_31
REMARK                            x       y       z     vdW  Elec       q    Type
REMARK                         _______ _______ _______ _____ _____    ______ ____
ROOT
ATOM      1  C   UNL     1       9.911  13.952  18.180  0.00  0.00    +0.000 C 
ATOM      2  C   UNL     1      10.227  12.642  17.432  0.00  0.00    +0.000 C 
ATOM      3  C   UNL     1      10.703  11.466  18.289  0.00  0.00    +0.000 C 
ATOM      4  C   UNL     1      11.619  11.834  19.461  0.00  0.00    +0.000 C 
ATOM      5  C   UNL     1      11.132  13.060  20.262  0.00  0.00    +0.000 C 
ATOM      6  C   UNL     1      10.963  14.246  19.282  0.00  0.00    +0.000 C 
ENDROOT
BRANCH   5   7
ATOM      7  N   UNL     1       9.987  12.796  21.134  0.00  0.00    +0.000 N 
ATOM      8  C   UNL     1       9.294  11.620  21.255  0.00  0.00    +0.000 A 
ATOM      9  N   UNL     1       8.403  11.655  22.217  0.00  0.00    +0.000 NA
ATOM     10  C   UNL     1       8.530  12.903  22.789  0.00  0.00    +0.000 A 
ATOM     11  C   UNL     1       7.872  13.523  23.885  0.00  0.00    +0.000 A 
ATOM     12  N   UNL     1       7.008  12.892  24.773  0.00  0.00    +0.000 N 
ATOM     13  C   UNL     1       6.665  11.486  24.617  0.00  0.00    +0.000 C 
ATOM     14  C   UNL     1       6.070  13.701  25.534  0.00  0.00    +0.000 C 
ATOM     15  N   UNL     1       8.170  14.845  24.082  0.00  0.00    +0.000 NA
ATOM     16  C   UNL     1       9.112  15.445  23.325  0.00  0.00    +0.000 A 
ATOM     17  N   UNL     1       9.838  14.914  22.329  0.00  0.00    +0.000 NA
ATOM     18  C   UNL     1       9.486  13.639  22.098  0.00  0.00    +0.000 A 
ENDBRANCH   5   7
BRANCH   1  21
ATOM     19  C   UNL     1       7.807  15.188  18.544  0.00  0.00    +0.000 C 
ATOM     20  O   UNL     1       8.283  16.187  18.013  0.00  0.00    +0.000 OA
ATOM     21  N   UNL     1       8.539  14.009  18.687  0.00  0.00    +0.000 N 
ATOM     22  H   UNL     1       8.009  13.157  18.838  0.00  0.00    +0.000 HD
BRANCH  19  23
ATOM     23  C   UNL     1       6.342  15.121  19.039  0.00  0.00    +0.000 C 
BRANCH  23  24
ATOM     24  N   UNL     1       6.031  16.271  19.915  0.00  0.00    +0.000 NA
ATOM     25  H   UNL     1       6.744  16.340  20.640  0.00  0.00    +0.000 HD
ATOM     26  H   UNL     1       5.156  16.116  20.418  0.00  0.00    +0.000 HD
ENDBRANCH  23  24
BRANCH  23  27
ATOM     27  C   UNL     1       5.404  15.039  17.812  0.00  0.00    +0.000 C 
BRANCH  27  31
ATOM     28  C   UNL     1       1.186  15.535  18.640  0.00  0.00    +0.000 A 
ATOM     29  C   UNL     1       1.935  16.603  18.138  0.00  0.00    +0.000 A 
ATOM     30  C   UNL     1       3.297  16.448  17.864  0.00  0.00    +0.000 A 
ATOM     31  C   UNL     1       3.935  15.225  18.111  0.00  0.00    +0.000 A 
ATOM     32  C   UNL     1       3.183  14.164  18.632  0.00  0.00    +0.000 A 
ATOM     33  C   UNL     1       1.819  14.320  18.891  0.00  0.00    +0.000 A 
BRANCH  28  35
ATOM     34  C   UNL     1      -0.401  17.090  19.457  0.00  0.00    +0.000 C 
ATOM     35  O   UNL     1      -0.129  15.810  18.894  0.00  0.00    +0.000 OA
ENDBRANCH  28  35
ENDBRANCH  27  31
ENDBRANCH  23  27
ENDBRANCH  19  23
ENDBRANCH   1  21
BRANCH   6  36
ATOM     36  O   UNL     1      12.246  14.558  18.687  0.00  0.00    +0.000 OA
ATOM     37  H   UNL     1      12.275  15.495  18.431  0.00  0.00    +0.000 HD
ENDBRANCH   6  36
TORSDOF 8
ENDMDL
