MODEL 1
REMARK VINA RESULT:      -7.3      0.000      0.000
REMARK  Name = 
REMARK  5 active torsions:
REMARK  status: ('A' for Active; 'I' for Inactive)
REMARK    1  A    between atoms: C_1  and  N_2
REMARK    2  A    between atoms: N_2  and  C_3
REMARK    3  A    between atoms: C_3  and  C_4
REMARK    4  A    between atoms: C_4  and  C_5
REMARK    5  A    between atoms: C_5  and  C_6
REMARK                            x       y       z     vdW  Elec       q    Type
REMARK                         _______ _______ _______ _____ _____    ______ ____
ROOT
ATOM      1  C   UNL     1       2.747   5.766  18.183  0.00  0.00    +0.000 C 
ATOM      2  C   UNL     1       2.305   4.551  19.020  0.00  0.00    +0.000 A 
ATOM      3  C   UNL     1       1.478   4.690  20.150  0.00  0.00    +0.000 A 
ATOM      4  C   UNL     1       1.128   3.591  20.940  0.00  0.00    +0.000 A 
ATOM      5  C   UNL     1       1.555   2.318  20.588  0.00  0.00    +0.000 A 
ATOM      6  C   UNL     1       2.316   2.146  19.437  0.00  0.00    +0.000 A 
ATOM      7  C   UNL     1       2.696   3.250  18.654  0.00  0.00    +0.000 A 
ATOM      8  C   UNL     1       3.467   3.002  17.388  0.00  0.00    +0.000 C 
ATOM      9  C   UNL     1       4.309   4.167  16.941  0.00  0.00    +0.000 A 
ATOM     10  C   UNL     1       5.451   3.917  16.159  0.00  0.00    +0.000 A 
ATOM     11  C   UNL     1       6.197   4.967  15.636  0.00  0.00    +0.000 A 
ATOM     12  C   UNL     1       5.771   6.272  15.833  0.00  0.00    +0.000 A 
ATOM     13  C   UNL     1       4.630   6.529  16.597  0.00  0.00    +0.000 A 
ATOM     14  C   UNL     1       3.918   5.488  17.226  0.00  0.00    +0.000 A 
ENDROOT
BRANCH   1  15
ATOM     15  C   UNL     1       2.979   7.037  19.064  0.00  0.00    +0.000 C 
BRANCH  15  16
ATOM     16  C   UNL     1       1.945   8.177  18.968  0.00  0.00    +0.000 C 
BRANCH  16  17
ATOM     17  C   UNL     1       2.101   9.113  17.770  0.00  0.00    +0.000 C 
BRANCH  17  19
ATOM     18  C   UNL     1       0.401  10.158  19.119  0.00  0.00    +0.000 C 
ATOM     19  N   UNL     1       1.042  10.126  17.813  0.00  0.00    +0.000 NA
ATOM     20  H   UNL     1       1.435  11.042  17.604  0.00  0.00    +0.000 HD
ENDBRANCH  17  19
ENDBRANCH  16  17
ENDBRANCH  15  16
ENDBRANCH   1  15
TORSDOF 4
ENDMDL
MODEL 2
REMARK VINA RESULT:      -7.3      0.709      4.282
REMARK  Name = 
REMARK  5 active torsions:
REMARK  status: ('A' for Active; 'I' for Inactive)
REMARK    1  A    between atoms: C_1  and  N_2
REMARK    2  A    between atoms: N_2  and  C_3
REMARK    3  A    between atoms: C_3  and  C_4
REMARK    4  A    between atoms: C_4  and  C_5
REMARK    5  A    between atoms: C_5  and  C_6
REMARK                            x       y       z     vdW  Elec       q    Type
REMARK                         _______ _______ _______ _____ _____    ______ ____
ROOT
ATOM      1  C   UNL     1       3.601   5.662  18.947  0.00  0.00    +0.000 C 
ATOM      2  C   UNL     1       4.377   5.587  17.618  0.00  0.00    +0.000 A 
ATOM      3  C   UNL     1       5.081   6.694  17.108  0.00  0.00    +0.000 A 
ATOM      4  C   UNL     1       5.736   6.638  15.873  0.00  0.00    +0.000 A 
ATOM      5  C   UNL     1       5.744   5.457  15.144  0.00  0.00    +0.000 A 
ATOM      6  C   UNL     1       5.113   4.330  15.659  0.00  0.00    +0.000 A 
ATOM      7  C   UNL     1       4.429   4.387  16.886  0.00  0.00    +0.000 A 
ATOM      8  C   UNL     1       3.816   3.125  17.427  0.00  0.00    +0.000 C 
ATOM      9  C   UNL     1       2.664   3.353  18.367  0.00  0.00    +0.000 A 
ATOM     10  C   UNL     1       1.686   2.352  18.495  0.00  0.00    +0.000 A 
ATOM     11  C   UNL     1       0.663   2.473  19.429  0.00  0.00    +0.000 A 
ATOM     12  C   UNL     1       0.648   3.563  20.288  0.00  0.00    +0.000 A 
ATOM     13  C   UNL     1       1.625   4.556  20.177  0.00  0.00    +0.000 A 
ATOM     14  C   UNL     1       2.608   4.508  19.169  0.00  0.00    +0.000 A 
ENDROOT
BRANCH   1  15
ATOM     15  C   UNL     1       2.951   7.066  19.172  0.00  0.00    +0.000 C 
BRANCH  15  16
ATOM     16  C   UNL     1       2.037   7.622  18.061  0.00  0.00    +0.000 C 
BRANCH  16  17
ATOM     17  C   UNL     1       2.159   9.121  17.792  0.00  0.00    +0.000 C 
BRANCH  17  19
ATOM     18  C   UNL     1       0.401  10.001  19.184  0.00  0.00    +0.000 C 
ATOM     19  N   UNL     1       0.822   9.723  17.819  0.00  0.00    +0.000 NA
ATOM     20  H   UNL     1       0.824  10.587  17.280  0.00  0.00    +0.000 HD
ENDBRANCH  17  19
ENDBRANCH  16  17
ENDBRANCH  15  16
ENDBRANCH   1  15
TORSDOF 4
ENDMDL
MODEL 3
REMARK VINA RESULT:      -7.3      1.367      1.402
REMARK  Name = 
REMARK  5 active torsions:
REMARK  status: ('A' for Active; 'I' for Inactive)
REMARK    1  A    between atoms: C_1  and  N_2
REMARK    2  A    between atoms: N_2  and  C_3
REMARK    3  A    between atoms: C_3  and  C_4
REMARK    4  A    between atoms: C_4  and  C_5
REMARK    5  A    between atoms: C_5  and  C_6
REMARK                            x       y       z     vdW  Elec       q    Type
REMARK                         _______ _______ _______ _____ _____    ______ ____
ROOT
ATOM      1  C   UNL     1       3.176   5.880  18.344  0.00  0.00    +0.000 C 
ATOM      2  C   UNL     1       2.764   4.759  19.316  0.00  0.00    +0.000 A 
ATOM      3  C   UNL     1       1.507   4.752  19.951  0.00  0.00    +0.000 A 
ATOM      4  C   UNL     1       1.160   3.763  20.876  0.00  0.00    +0.000 A 
ATOM      5  C   UNL     1       2.044   2.728  21.151  0.00  0.00    +0.000 A 
ATOM      6  C   UNL     1       3.263   2.675  20.485  0.00  0.00    +0.000 A 
ATOM      7  C   UNL     1       3.631   3.681  19.575  0.00  0.00    +0.000 A 
ATOM      8  C   UNL     1       4.933   3.544  18.837  0.00  0.00    +0.000 C 
ATOM      9  C   UNL     1       5.517   4.849  18.368  0.00  0.00    +0.000 A 
ATOM     10  C   UNL     1       6.908   4.944  18.188  0.00  0.00    +0.000 A 
ATOM     11  C   UNL     1       7.479   6.094  17.656  0.00  0.00    +0.000 A 
ATOM     12  C   UNL     1       6.658   7.132  17.236  0.00  0.00    +0.000 A 
ATOM     13  C   UNL     1       5.274   7.040  17.398  0.00  0.00    +0.000 A 
ATOM     14  C   UNL     1       4.681   5.930  18.033  0.00  0.00    +0.000 A 
ENDROOT
BRANCH   1  15
ATOM     15  C   UNL     1       2.604   7.271  18.772  0.00  0.00    +0.000 C 
BRANCH  15  16
ATOM     16  C   UNL     1       1.939   8.139  17.684  0.00  0.00    +0.000 C 
BRANCH  16  17
ATOM     17  C   UNL     1       1.930   9.644  17.952  0.00  0.00    +0.000 C 
BRANCH  17  19
ATOM     18  C   UNL     1      -0.038  10.158  19.242  0.00  0.00    +0.000 C 
ATOM     19  N   UNL     1       0.546  10.129  17.910  0.00  0.00    +0.000 NA
ATOM     20  H   UNL     1       0.523  11.064  17.508  0.00  0.00    +0.000 HD
ENDBRANCH  17  19
ENDBRANCH  16  17
ENDBRANCH  15  16
ENDBRANCH   1  15
TORSDOF 4
ENDMDL
MODEL 4
REMARK VINA RESULT:      -7.3      0.883      4.320
REMARK  Name = 
REMARK  5 active torsions:
REMARK  status: ('A' for Active; 'I' for Inactive)
REMARK    1  A    between atoms: C_1  and  N_2
REMARK    2  A    between atoms: N_2  and  C_3
REMARK    3  A    between atoms: C_3  and  C_4
REMARK    4  A    between atoms: C_4  and  C_5
REMARK    5  A    between atoms: C_5  and  C_6
REMARK                            x       y       z     vdW  Elec       q    Type
REMARK                         _______ _______ _______ _____ _____    ______ ____
ROOT
ATOM      1  C   UNL     1       3.412   5.932  18.369  0.00  0.00    +0.000 C 
ATOM      2  C   UNL     1       4.350   5.463  17.241  0.00  0.00    +0.000 A 
ATOM      3  C   UNL     1       4.775   6.334  16.220  0.00  0.00    +0.000 A 
ATOM      4  C   UNL     1       5.579   5.889  15.167  0.00  0.00    +0.000 A 
ATOM      5  C   UNL     1       6.021   4.573  15.137  0.00  0.00    +0.000 A 
ATOM      6  C   UNL     1       5.671   3.711  16.171  0.00  0.00    +0.000 A 
ATOM      7  C   UNL     1       4.839   4.144  17.218  0.00  0.00    +0.000 A 
ATOM      8  C   UNL     1       4.542   3.191  18.342  0.00  0.00    +0.000 C 
ATOM      9  C   UNL     1       3.255   3.476  19.068  0.00  0.00    +0.000 A 
ATOM     10  C   UNL     1       2.593   2.418  19.714  0.00  0.00    +0.000 A 
ATOM     11  C   UNL     1       1.460   2.654  20.486  0.00  0.00    +0.000 A 
ATOM     12  C   UNL     1       1.021   3.957  20.673  0.00  0.00    +0.000 A 
ATOM     13  C   UNL     1       1.682   5.016  20.046  0.00  0.00    +0.000 A 
ATOM     14  C   UNL     1       2.766   4.791  19.174  0.00  0.00    +0.000 A 
ENDROOT
BRANCH   1  15
ATOM     15  C   UNL     1       2.366   6.981  17.869  0.00  0.00    +0.000 C 
BRANCH  15  16
ATOM     16  C   UNL     1       2.702   8.475  18.055  0.00  0.00    +0.000 C 
BRANCH  16  17
ATOM     17  C   UNL     1       1.515   9.435  17.980  0.00  0.00    +0.000 C 
BRANCH  17  19
ATOM     18  C   UNL     1       1.644  11.751  18.629  0.00  0.00    +0.000 C 
ATOM     19  N   UNL     1       2.001  10.770  17.616  0.00  0.00    +0.000 NA
ATOM     20  H   UNL     1       3.013  10.747  17.505  0.00  0.00    +0.000 HD
ENDBRANCH  17  19
ENDBRANCH  16  17
ENDBRANCH  15  16
ENDBRANCH   1  15
TORSDOF 4
ENDMDL
MODEL 5
REMARK VINA RESULT:      -7.1      1.073      1.122
REMARK  Name = 
REMARK  5 active torsions:
REMARK  status: ('A' for Active; 'I' for Inactive)
REMARK    1  A    between atoms: C_1  and  N_2
REMARK    2  A    between atoms: N_2  and  C_3
REMARK    3  A    between atoms: C_3  and  C_4
REMARK    4  A    between atoms: C_4  and  C_5
REMARK    5  A    between atoms: C_5  and  C_6
REMARK                            x       y       z     vdW  Elec       q    Type
REMARK                         _______ _______ _______ _____ _____    ______ ____
ROOT
ATOM      1  C   UNL     1       2.725   5.785  18.091  0.00  0.00    +0.000 C 
ATOM      2  C   UNL     1       2.317   4.595  18.981  0.00  0.00    +0.000 A 
ATOM      3  C   UNL     1       1.434   4.750  20.066  0.00  0.00    +0.000 A 
ATOM      4  C   UNL     1       1.112   3.678  20.905  0.00  0.00    +0.000 A 
ATOM      5  C   UNL     1       1.627   2.415  20.648  0.00  0.00    +0.000 A 
ATOM      6  C   UNL     1       2.447   2.223  19.541  0.00  0.00    +0.000 A 
ATOM      7  C   UNL     1       2.797   3.301  18.710  0.00  0.00    +0.000 A 
ATOM      8  C   UNL     1       3.637   3.028  17.493  0.00  0.00    +0.000 C 
ATOM      9  C   UNL     1       4.430   4.213  17.013  0.00  0.00    +0.000 A 
ATOM     10  C   UNL     1       5.617   3.987  16.294  0.00  0.00    +0.000 A 
ATOM     11  C   UNL     1       6.325   5.048  15.740  0.00  0.00    +0.000 A 
ATOM     12  C   UNL     1       5.817   6.335  15.842  0.00  0.00    +0.000 A 
ATOM     13  C   UNL     1       4.630   6.566  16.541  0.00  0.00    +0.000 A 
ATOM     14  C   UNL     1       3.952   5.522  17.202  0.00  0.00    +0.000 A 
ENDROOT
BRANCH   1  15
ATOM     15  C   UNL     1       2.845   7.115  18.904  0.00  0.00    +0.000 C 
BRANCH  15  16
ATOM     16  C   UNL     1       2.004   8.321  18.437  0.00  0.00    +0.000 C 
BRANCH  16  17
ATOM     17  C   UNL     1       1.391   9.171  19.550  0.00  0.00    +0.000 C 
BRANCH  17  19
ATOM     18  C   UNL     1       0.014   8.704  21.470  0.00  0.00    +0.000 C 
ATOM     19  N   UNL     1       1.225   8.343  20.749  0.00  0.00    +0.000 NA
ATOM     20  H   UNL     1       1.183   7.361  20.483  0.00  0.00    +0.000 HD
ENDBRANCH  17  19
ENDBRANCH  16  17
ENDBRANCH  15  16
ENDBRANCH   1  15
TORSDOF 4
ENDMDL
MODEL 6
REMARK VINA RESULT:      -7.1      1.193      1.250
REMARK  Name = 
REMARK  5 active torsions:
REMARK  status: ('A' for Active; 'I' for Inactive)
REMARK    1  A    between atoms: C_1  and  N_2
REMARK    2  A    between atoms: N_2  and  C_3
REMARK    3  A    between atoms: C_3  and  C_4
REMARK    4  A    between atoms: C_4  and  C_5
REMARK    5  A    between atoms: C_5  and  C_6
REMARK                            x       y       z     vdW  Elec       q    Type
REMARK                         _______ _______ _______ _____ _____    ______ ____
ROOT
ATOM      1  C   UNL     1       3.080   5.822  17.827  0.00  0.00    +0.000 C 
ATOM      2  C   UNL     1       2.564   4.483  18.388  0.00  0.00    +0.000 A 
ATOM      3  C   UNL     1       1.291   4.367  18.978  0.00  0.00    +0.000 A 
ATOM      4  C   UNL     1       0.851   3.164  19.537  0.00  0.00    +0.000 A 
ATOM      5  C   UNL     1       1.654   2.033  19.474  0.00  0.00    +0.000 A 
ATOM      6  C   UNL     1       2.887   2.105  18.835  0.00  0.00    +0.000 A 
ATOM      7  C   UNL     1       3.348   3.319  18.296  0.00  0.00    +0.000 A 
ATOM      8  C   UNL     1       4.661   3.328  17.563  0.00  0.00    +0.000 C 
ATOM      9  C   UNL     1       5.344   4.668  17.539  0.00  0.00    +0.000 A 
ATOM     10  C   UNL     1       6.743   4.713  17.409  0.00  0.00    +0.000 A 
ATOM     11  C   UNL     1       7.406   5.928  17.275  0.00  0.00    +0.000 A 
ATOM     12  C   UNL     1       6.670   7.103  17.202  0.00  0.00    +0.000 A 
ATOM     13  C   UNL     1       5.278   7.066  17.316  0.00  0.00    +0.000 A 
ATOM     14  C   UNL     1       4.594   5.858  17.559  0.00  0.00    +0.000 A 
ENDROOT
BRANCH   1  15
ATOM     15  C   UNL     1       2.589   7.043  18.671  0.00  0.00    +0.000 C 
BRANCH  15  16
ATOM     16  C   UNL     1       2.053   8.273  17.911  0.00  0.00    +0.000 C 
BRANCH  16  17
ATOM     17  C   UNL     1       1.381   9.342  18.771  0.00  0.00    +0.000 C 
BRANCH  17  19
ATOM     18  C   UNL     1      -0.799  10.330  18.499  0.00  0.00    +0.000 C 
ATOM     19  N   UNL     1       0.526  10.175  17.919  0.00  0.00    +0.000 NA
ATOM     20  H   UNL     1       0.953  11.091  17.796  0.00  0.00    +0.000 HD
ENDBRANCH  17  19
ENDBRANCH  16  17
ENDBRANCH  15  16
ENDBRANCH   1  15
TORSDOF 4
ENDMDL
MODEL 7
REMARK VINA RESULT:      -7.0      1.900      2.001
REMARK  Name = 
REMARK  5 active torsions:
REMARK  status: ('A' for Active; 'I' for Inactive)
REMARK    1  A    between atoms: C_1  and  N_2
REMARK    2  A    between atoms: N_2  and  C_3
REMARK    3  A    between atoms: C_3  and  C_4
REMARK    4  A    between atoms: C_4  and  C_5
REMARK    5  A    between atoms: C_5  and  C_6
REMARK                            x       y       z     vdW  Elec       q    Type
REMARK                         _______ _______ _______ _____ _____    ______ ____
ROOT
ATOM      1  C   UNL     1       3.083   5.373  17.913  0.00  0.00    +0.000 C 
ATOM      2  C   UNL     1       2.636   4.427  19.043  0.00  0.00    +0.000 A 
ATOM      3  C   UNL     1       1.283   4.297  19.410  0.00  0.00    +0.000 A 
ATOM      4  C   UNL     1       0.889   3.481  20.474  0.00  0.00    +0.000 A 
ATOM      5  C   UNL     1       1.834   2.735  21.164  0.00  0.00    +0.000 A 
ATOM      6  C   UNL     1       3.167   2.792  20.776  0.00  0.00    +0.000 A 
ATOM      7  C   UNL     1       3.575   3.633  19.726  0.00  0.00    +0.000 A 
ATOM      8  C   UNL     1       5.019   3.612  19.307  0.00  0.00    +0.000 C 
ATOM      9  C   UNL     1       5.485   4.877  18.639  0.00  0.00    +0.000 A 
ATOM     10  C   UNL     1       6.848   5.216  18.706  0.00  0.00    +0.000 A 
ATOM     11  C   UNL     1       7.341   6.317  18.015  0.00  0.00    +0.000 A 
ATOM     12  C   UNL     1       6.490   7.048  17.198  0.00  0.00    +0.000 A 
ATOM     13  C   UNL     1       5.137   6.710  17.115  0.00  0.00    +0.000 A 
ATOM     14  C   UNL     1       4.593   5.665  17.888  0.00  0.00    +0.000 A 
ENDROOT
BRANCH   1  15
ATOM     15  C   UNL     1       2.218   6.675  17.856  0.00  0.00    +0.000 C 
BRANCH  15  16
ATOM     16  C   UNL     1       2.592   7.827  18.810  0.00  0.00    +0.000 C 
BRANCH  16  17
ATOM     17  C   UNL     1       1.468   8.324  19.719  0.00  0.00    +0.000 C 
BRANCH  17  19
ATOM     18  C   UNL     1       1.190   8.901  22.041  0.00  0.00    +0.000 C 
ATOM     19  N   UNL     1       1.774   7.953  21.105  0.00  0.00    +0.000 NA
ATOM     20  H   UNL     1       1.415   7.020  21.296  0.00  0.00    +0.000 HD
ENDBRANCH  17  19
ENDBRANCH  16  17
ENDBRANCH  15  16
ENDBRANCH   1  15
TORSDOF 4
ENDMDL
MODEL 8
REMARK VINA RESULT:      -7.0      1.528      1.667
REMARK  Name = 
REMARK  5 active torsions:
REMARK  status: ('A' for Active; 'I' for Inactive)
REMARK    1  A    between atoms: C_1  and  N_2
REMARK    2  A    between atoms: N_2  and  C_3
REMARK    3  A    between atoms: C_3  and  C_4
REMARK    4  A    between atoms: C_4  and  C_5
REMARK    5  A    between atoms: C_5  and  C_6
REMARK                            x       y       z     vdW  Elec       q    Type
REMARK                         _______ _______ _______ _____ _____    ______ ____
ROOT
ATOM      1  C   UNL     1       3.108   5.803  17.819  0.00  0.00    +0.000 C 
ATOM      2  C   UNL     1       2.573   4.402  18.172  0.00  0.00    +0.000 A 
ATOM      3  C   UNL     1       1.345   4.223  18.837  0.00  0.00    +0.000 A 
ATOM      4  C   UNL     1       0.892   2.954  19.207  0.00  0.00    +0.000 A 
ATOM      5  C   UNL     1       1.632   1.827  18.874  0.00  0.00    +0.000 A 
ATOM      6  C   UNL     1       2.814   1.973  18.157  0.00  0.00    +0.000 A 
ATOM      7  C   UNL     1       3.291   3.248  17.807  0.00  0.00    +0.000 A 
ATOM      8  C   UNL     1       4.542   3.347  16.979  0.00  0.00    +0.000 C 
ATOM      9  C   UNL     1       5.285   4.645  17.138  0.00  0.00    +0.000 A 
ATOM     10  C   UNL     1       6.671   4.666  16.900  0.00  0.00    +0.000 A 
ATOM     11  C   UNL     1       7.379   5.863  16.930  0.00  0.00    +0.000 A 
ATOM     12  C   UNL     1       6.698   7.055  17.132  0.00  0.00    +0.000 A 
ATOM     13  C   UNL     1       5.319   7.044  17.355  0.00  0.00    +0.000 A 
ATOM     14  C   UNL     1       4.597   5.836  17.435  0.00  0.00    +0.000 A 
ENDROOT
BRANCH   1  15
ATOM     15  C   UNL     1       2.744   6.865  18.907  0.00  0.00    +0.000 C 
BRANCH  15  16
ATOM     16  C   UNL     1       2.038   8.155  18.443  0.00  0.00    +0.000 C 
BRANCH  16  17
ATOM     17  C   UNL     1       1.434   9.015  19.553  0.00  0.00    +0.000 C 
BRANCH  17  19
ATOM     18  C   UNL     1       0.454   8.587  21.711  0.00  0.00    +0.000 C 
ATOM     19  N   UNL     1       1.582   8.317  20.834  0.00  0.00    +0.000 NA
ATOM     20  H   UNL     1       1.655   7.314  20.672  0.00  0.00    +0.000 HD
ENDBRANCH  17  19
ENDBRANCH  16  17
ENDBRANCH  15  16
ENDBRANCH   1  15
TORSDOF 4
ENDMDL
MODEL 9
REMARK VINA RESULT:      -7.0      1.115      4.362
REMARK  Name = 
REMARK  5 active torsions:
REMARK  status: ('A' for Active; 'I' for Inactive)
REMARK    1  A    between atoms: C_1  and  N_2
REMARK    2  A    between atoms: N_2  and  C_3
REMARK    3  A    between atoms: C_3  and  C_4
REMARK    4  A    between atoms: C_4  and  C_5
REMARK    5  A    between atoms: C_5  and  C_6
REMARK                            x       y       z     vdW  Elec       q    Type
REMARK                         _______ _______ _______ _____ _____    ______ ____
ROOT
ATOM      1  C   UNL     1       3.453   6.148  18.961  0.00  0.00    +0.000 C 
ATOM      2  C   UNL     1       4.709   5.882  18.110  0.00  0.00    +0.000 A 
ATOM      3  C   UNL     1       5.211   6.840  17.210  0.00  0.00    +0.000 A 
ATOM      4  C   UNL     1       6.317   6.572  16.398  0.00  0.00    +0.000 A 
ATOM      5  C   UNL     1       6.979   5.356  16.504  0.00  0.00    +0.000 A 
ATOM      6  C   UNL     1       6.543   4.419  17.435  0.00  0.00    +0.000 A 
ATOM      7  C   UNL     1       5.414   4.671  18.235  0.00  0.00    +0.000 A 
ATOM      8  C   UNL     1       5.022   3.651  19.267  0.00  0.00    +0.000 C 
ATOM      9  C   UNL     1       3.566   3.686  19.646  0.00  0.00    +0.000 A 
ATOM     10  C   UNL     1       2.963   2.511  20.128  0.00  0.00    +0.000 A 
ATOM     11  C   UNL     1       1.651   2.523  20.590  0.00  0.00    +0.000 A 
ATOM     12  C   UNL     1       0.955   3.723  20.637  0.00  0.00    +0.000 A 
ATOM     13  C   UNL     1       1.553   4.898  20.173  0.00  0.00    +0.000 A 
ATOM     14  C   UNL     1       2.841   4.891  19.602  0.00  0.00    +0.000 A 
ENDROOT
BRANCH   1  15
ATOM     15  C   UNL     1       2.394   7.009  18.197  0.00  0.00    +0.000 C 
BRANCH  15  16
ATOM     16  C   UNL     1       1.995   8.367  18.810  0.00  0.00    +0.000 C 
BRANCH  16  17
ATOM     17  C   UNL     1       1.851   9.523  17.821  0.00  0.00    +0.000 C 
BRANCH  17  19
ATOM     18  C   UNL     1       0.048  10.283  19.225  0.00  0.00    +0.000 C 
ATOM     19  N   UNL     1       0.470  10.016  17.859  0.00  0.00    +0.000 NA
ATOM     20  H   UNL     1       0.396  10.868  17.307  0.00  0.00    +0.000 HD
ENDBRANCH  17  19
ENDBRANCH  16  17
ENDBRANCH  15  16
ENDBRANCH   1  15
TORSDOF 4
ENDMDL
