MODEL 1
REMARK VINA RESULT:      -7.4      0.000      0.000
REMARK  Name = 
REMARK  3 active torsions:
REMARK  status: ('A' for Active; 'I' for Inactive)
REMARK    1  A    between atoms: O_1  and  C_2
REMARK    2  A    between atoms: C_2  and  C_3
REMARK    3  A    between atoms: C_3  and  N_4
REMARK                            x       y       z     vdW  Elec       q    Type
REMARK                         _______ _______ _______ _____ _____    ______ ____
ROOT
ATOM      1  N   UNL     1       2.660   3.253  18.923  0.00  0.00    +0.000 N 
ATOM      2  C   UNL     1       1.877   3.108  20.023  0.00  0.00    +0.000 A 
ATOM      3  C   UNL     1       1.366   4.177  20.727  0.00  0.00    +0.000 A 
ATOM      4  C   UNL     1       1.667   5.449  20.307  0.00  0.00    +0.000 A 
ATOM      5  C   UNL     1       2.516   5.630  19.221  0.00  0.00    +0.000 A 
ATOM      6  C   UNL     1       2.784   6.938  18.838  0.00  0.00    +0.000 A 
ATOM      7  C   UNL     1       3.604   7.193  17.752  0.00  0.00    +0.000 A 
ATOM      8  C   UNL     1       4.227   6.156  17.059  0.00  0.00    +0.000 A 
ATOM      9  C   UNL     1       5.045   6.518  15.975  0.00  0.00    +0.000 A 
ATOM     10  C   UNL     1       5.748   5.567  15.251  0.00  0.00    +0.000 A 
ATOM     11  C   UNL     1       5.688   4.247  15.648  0.00  0.00    +0.000 A 
ATOM     12  C   UNL     1       4.887   3.882  16.738  0.00  0.00    +0.000 A 
ATOM     13  C   UNL     1       4.048   4.797  17.451  0.00  0.00    +0.000 A 
ATOM     14  C   UNL     1       3.093   4.514  18.516  0.00  0.00    +0.000 A 
ENDROOT
BRANCH   1  15
ATOM     15  C   UNL     1       2.978   2.018  18.128  0.00  0.00    +0.000 C 
BRANCH  15  16
ATOM     16  C   UNL     1       3.948   1.020  18.770  0.00  0.00    +0.000 C 
BRANCH  16  17
ATOM     17  O   UNL     1       4.914   1.716  19.543  0.00  0.00    +0.000 OA
ATOM     18  H   UNL     1       5.536   1.060  19.915  0.00  0.00    +0.000 HD
ENDBRANCH  16  17
ENDBRANCH  15  16
ENDBRANCH   1  15
TORSDOF 3
ENDMDL
MODEL 2
REMARK VINA RESULT:      -6.8      1.016      1.063
REMARK  Name = 
REMARK  3 active torsions:
REMARK  status: ('A' for Active; 'I' for Inactive)
REMARK    1  A    between atoms: O_1  and  C_2
REMARK    2  A    between atoms: C_2  and  C_3
REMARK    3  A    between atoms: C_3  and  N_4
REMARK                            x       y       z     vdW  Elec       q    Type
REMARK                         _______ _______ _______ _____ _____    ______ ____
ROOT
ATOM      1  N   UNL     1       3.410   3.958  19.778  0.00  0.00    +0.000 N 
ATOM      2  C   UNL     1       2.561   4.026  20.835  0.00  0.00    +0.000 A 
ATOM      3  C   UNL     1       1.760   5.119  21.085  0.00  0.00    +0.000 A 
ATOM      4  C   UNL     1       1.826   6.195  20.236  0.00  0.00    +0.000 A 
ATOM      5  C   UNL     1       2.730   6.180  19.180  0.00  0.00    +0.000 A 
ATOM      6  C   UNL     1       2.753   7.294  18.350  0.00  0.00    +0.000 A 
ATOM      7  C   UNL     1       3.613   7.340  17.267  0.00  0.00    +0.000 A 
ATOM      8  C   UNL     1       4.515   6.306  17.017  0.00  0.00    +0.000 A 
ATOM      9  C   UNL     1       5.350   6.449  15.895  0.00  0.00    +0.000 A 
ATOM     10  C   UNL     1       6.315   5.501  15.588  0.00  0.00    +0.000 A 
ATOM     11  C   UNL     1       6.495   4.431  16.439  0.00  0.00    +0.000 A 
ATOM     12  C   UNL     1       5.676   4.292  17.568  0.00  0.00    +0.000 A 
ATOM     13  C   UNL     1       4.588   5.170  17.876  0.00  0.00    +0.000 A 
ATOM     14  C   UNL     1       3.605   5.060  18.947  0.00  0.00    +0.000 A 
ENDROOT
BRANCH   1  15
ATOM     15  C   UNL     1       4.069   2.637  19.499  0.00  0.00    +0.000 C 
BRANCH  15  16
ATOM     16  C   UNL     1       3.294   1.656  18.613  0.00  0.00    +0.000 C 
BRANCH  16  17
ATOM     17  O   UNL     1       4.126   0.561  18.263  0.00  0.00    +0.000 OA
ATOM     18  H   UNL     1       3.632  -0.264  18.435  0.00  0.00    +0.000 HD
ENDBRANCH  16  17
ENDBRANCH  15  16
ENDBRANCH   1  15
TORSDOF 3
ENDMDL
MODEL 3
REMARK VINA RESULT:      -6.8      2.470      5.573
REMARK  Name = 
REMARK  3 active torsions:
REMARK  status: ('A' for Active; 'I' for Inactive)
REMARK    1  A    between atoms: O_1  and  C_2
REMARK    2  A    between atoms: C_2  and  C_3
REMARK    3  A    between atoms: C_3  and  N_4
REMARK                            x       y       z     vdW  Elec       q    Type
REMARK                         _______ _______ _______ _____ _____    ______ ____
ROOT
ATOM      1  N   UNL     1       3.527   6.624  17.790  0.00  0.00    +0.000 N 
ATOM      2  C   UNL     1       4.420   7.226  16.963  0.00  0.00    +0.000 A 
ATOM      3  C   UNL     1       5.253   6.524  16.119  0.00  0.00    +0.000 A 
ATOM      4  C   UNL     1       5.188   5.153  16.116  0.00  0.00    +0.000 A 
ATOM      5  C   UNL     1       4.326   4.506  16.995  0.00  0.00    +0.000 A 
ATOM      6  C   UNL     1       4.299   3.118  16.948  0.00  0.00    +0.000 A 
ATOM      7  C   UNL     1       3.450   2.407  17.780  0.00  0.00    +0.000 A 
ATOM      8  C   UNL     1       2.653   3.056  18.721  0.00  0.00    +0.000 A 
ATOM      9  C   UNL     1       1.830   2.247  19.523  0.00  0.00    +0.000 A 
ATOM     10  C   UNL     1       1.036   2.789  20.523  0.00  0.00    +0.000 A 
ATOM     11  C   UNL     1       1.109   4.144  20.771  0.00  0.00    +0.000 A 
ATOM     12  C   UNL     1       1.939   4.954  19.986  0.00  0.00    +0.000 A 
ATOM     13  C   UNL     1       2.692   4.474  18.867  0.00  0.00    +0.000 A 
ATOM     14  C   UNL     1       3.493   5.236  17.915  0.00  0.00    +0.000 A 
ENDROOT
BRANCH   1  15
ATOM     15  C   UNL     1       2.537   7.502  18.502  0.00  0.00    +0.000 C 
BRANCH  15  16
ATOM     16  C   UNL     1       2.124   8.792  17.785  0.00  0.00    +0.000 C 
BRANCH  16  17
ATOM     17  O   UNL     1       1.330   9.591  18.650  0.00  0.00    +0.000 OA
ATOM     18  H   UNL     1       0.422   9.229  18.651  0.00  0.00    +0.000 HD
ENDBRANCH  16  17
ENDBRANCH  15  16
ENDBRANCH   1  15
TORSDOF 3
ENDMDL
MODEL 4
REMARK VINA RESULT:      -6.8      2.100      3.662
REMARK  Name = 
REMARK  3 active torsions:
REMARK  status: ('A' for Active; 'I' for Inactive)
REMARK    1  A    between atoms: O_1  and  C_2
REMARK    2  A    between atoms: C_2  and  C_3
REMARK    3  A    between atoms: C_3  and  N_4
REMARK                            x       y       z     vdW  Elec       q    Type
REMARK                         _______ _______ _______ _____ _____    ______ ____
ROOT
ATOM      1  N   UNL     1       2.177   5.269  19.753  0.00  0.00    +0.000 N 
ATOM      2  C   UNL     1       1.253   4.738  20.595  0.00  0.00    +0.000 A 
ATOM      3  C   UNL     1       0.922   3.400  20.598  0.00  0.00    +0.000 A 
ATOM      4  C   UNL     1       1.543   2.563  19.705  0.00  0.00    +0.000 A 
ATOM      5  C   UNL     1       2.448   3.088  18.790  0.00  0.00    +0.000 A 
ATOM      6  C   UNL     1       3.050   2.196  17.911  0.00  0.00    +0.000 A 
ATOM      7  C   UNL     1       3.976   2.644  16.986  0.00  0.00    +0.000 A 
ATOM      8  C   UNL     1       4.283   3.999  16.870  0.00  0.00    +0.000 A 
ATOM      9  C   UNL     1       5.232   4.355  15.896  0.00  0.00    +0.000 A 
ATOM     10  C   UNL     1       5.570   5.681  15.667  0.00  0.00    +0.000 A 
ATOM     11  C   UNL     1       4.911   6.669  16.369  0.00  0.00    +0.000 A 
ATOM     12  C   UNL     1       3.952   6.321  17.330  0.00  0.00    +0.000 A 
ATOM     13  C   UNL     1       3.644   4.971  17.695  0.00  0.00    +0.000 A 
ATOM     14  C   UNL     1       2.757   4.494  18.750  0.00  0.00    +0.000 A 
ENDROOT
BRANCH   1  15
ATOM     15  C   UNL     1       2.597   6.692  19.990  0.00  0.00    +0.000 C 
BRANCH  15  16
ATOM     16  C   UNL     1       1.511   7.656  20.477  0.00  0.00    +0.000 C 
BRANCH  16  17
ATOM     17  O   UNL     1       1.872   8.190  21.743  0.00  0.00    +0.000 OA
ATOM     18  H   UNL     1       1.760   9.160  21.707  0.00  0.00    +0.000 HD
ENDBRANCH  16  17
ENDBRANCH  15  16
ENDBRANCH   1  15
TORSDOF 3
ENDMDL
MODEL 5
REMARK VINA RESULT:      -6.5      1.455      1.656
REMARK  Name = 
REMARK  3 active torsions:
REMARK  status: ('A' for Active; 'I' for Inactive)
REMARK    1  A    between atoms: O_1  and  C_2
REMARK    2  A    between atoms: C_2  and  C_3
REMARK    3  A    between atoms: C_3  and  N_4
REMARK                            x       y       z     vdW  Elec       q    Type
REMARK                         _______ _______ _______ _____ _____    ______ ____
ROOT
ATOM      1  N   UNL     1       2.654   4.221  19.046  0.00  0.00    +0.000 N 
ATOM      2  C   UNL     1       1.919   4.561  20.136  0.00  0.00    +0.000 A 
ATOM      3  C   UNL     1       1.692   5.868  20.509  0.00  0.00    +0.000 A 
ATOM      4  C   UNL     1       2.237   6.877  19.755  0.00  0.00    +0.000 A 
ATOM      5  C   UNL     1       3.045   6.559  18.669  0.00  0.00    +0.000 A 
ATOM      6  C   UNL     1       3.569   7.618  17.938  0.00  0.00    +0.000 A 
ATOM      7  C   UNL     1       4.365   7.377  16.832  0.00  0.00    +0.000 A 
ATOM      8  C   UNL     1       4.710   6.079  16.460  0.00  0.00    +0.000 A 
ATOM      9  C   UNL     1       5.527   5.939  15.325  0.00  0.00    +0.000 A 
ATOM     10  C   UNL     1       5.967   4.693  14.901  0.00  0.00    +0.000 A 
ATOM     11  C   UNL     1       5.644   3.581  15.649  0.00  0.00    +0.000 A 
ATOM     12  C   UNL     1       4.843   3.716  16.790  0.00  0.00    +0.000 A 
ATOM     13  C   UNL     1       4.262   4.954  17.214  0.00  0.00    +0.000 A 
ATOM     14  C   UNL     1       3.327   5.194  18.307  0.00  0.00    +0.000 A 
ENDROOT
BRANCH   1  15
ATOM     15  C   UNL     1       2.654   2.778  18.629  0.00  0.00    +0.000 C 
BRANCH  15  16
ATOM     16  C   UNL     1       1.550   1.894  19.219  0.00  0.00    +0.000 C 
BRANCH  16  17
ATOM     17  O   UNL     1       0.401   1.937  18.386  0.00  0.00    +0.000 OA
ATOM     18  H   UNL     1      -0.390   1.961  18.960  0.00  0.00    +0.000 HD
ENDBRANCH  16  17
ENDBRANCH  15  16
ENDBRANCH   1  15
TORSDOF 3
ENDMDL
MODEL 6
REMARK VINA RESULT:      -6.5      1.941      4.508
REMARK  Name = 
REMARK  3 active torsions:
REMARK  status: ('A' for Active; 'I' for Inactive)
REMARK    1  A    between atoms: O_1  and  C_2
REMARK    2  A    between atoms: C_2  and  C_3
REMARK    3  A    between atoms: C_3  and  N_4
REMARK                            x       y       z     vdW  Elec       q    Type
REMARK                         _______ _______ _______ _____ _____    ______ ____
ROOT
ATOM      1  N   UNL     1       4.878   5.489  17.841  0.00  0.00    +0.000 N 
ATOM      2  C   UNL     1       5.041   6.495  16.944  0.00  0.00    +0.000 A 
ATOM      3  C   UNL     1       4.241   7.617  16.922  0.00  0.00    +0.000 A 
ATOM      4  C   UNL     1       3.227   7.726  17.840  0.00  0.00    +0.000 A 
ATOM      5  C   UNL     1       2.997   6.685  18.732  0.00  0.00    +0.000 A 
ATOM      6  C   UNL     1       1.960   6.847  19.642  0.00  0.00    +0.000 A 
ATOM      7  C   UNL     1       1.686   5.860  20.573  0.00  0.00    +0.000 A 
ATOM      8  C   UNL     1       2.397   4.661  20.584  0.00  0.00    +0.000 A 
ATOM      9  C   UNL     1       2.041   3.720  21.566  0.00  0.00    +0.000 A 
ATOM     10  C   UNL     1       2.654   2.477  21.631  0.00  0.00    +0.000 A 
ATOM     11  C   UNL     1       3.586   2.141  20.671  0.00  0.00    +0.000 A 
ATOM     12  C   UNL     1       3.934   3.069  19.681  0.00  0.00    +0.000 A 
ATOM     13  C   UNL     1       3.425   4.407  19.629  0.00  0.00    +0.000 A 
ATOM     14  C   UNL     1       3.798   5.487  18.723  0.00  0.00    +0.000 A 
ENDROOT
BRANCH   1  15
ATOM     15  C   UNL     1       5.938   4.426  17.895  0.00  0.00    +0.000 C 
BRANCH  15  16
ATOM     16  C   UNL     1       7.223   4.698  17.104  0.00  0.00    +0.000 C 
BRANCH  16  17
ATOM     17  O   UNL     1       8.310   4.004  17.697  0.00  0.00    +0.000 OA
ATOM     18  H   UNL     1       8.845   3.608  16.981  0.00  0.00    +0.000 HD
ENDBRANCH  16  17
ENDBRANCH  15  16
ENDBRANCH   1  15
TORSDOF 3
ENDMDL
MODEL 7
REMARK VINA RESULT:      -6.4      1.310      1.342
REMARK  Name = 
REMARK  3 active torsions:
REMARK  status: ('A' for Active; 'I' for Inactive)
REMARK    1  A    between atoms: O_1  and  C_2
REMARK    2  A    between atoms: C_2  and  C_3
REMARK    3  A    between atoms: C_3  and  N_4
REMARK                            x       y       z     vdW  Elec       q    Type
REMARK                         _______ _______ _______ _____ _____    ______ ____
ROOT
ATOM      1  N   UNL     1       3.441   3.524  19.800  0.00  0.00    +0.000 N 
ATOM      2  C   UNL     1       2.384   3.345  20.633  0.00  0.00    +0.000 A 
ATOM      3  C   UNL     1       1.390   4.286  20.796  0.00  0.00    +0.000 A 
ATOM      4  C   UNL     1       1.471   5.463  20.095  0.00  0.00    +0.000 A 
ATOM      5  C   UNL     1       2.572   5.700  19.280  0.00  0.00    +0.000 A 
ATOM      6  C   UNL     1       2.602   6.906  18.591  0.00  0.00    +0.000 A 
ATOM      7  C   UNL     1       3.658   7.201  17.746  0.00  0.00    +0.000 A 
ATOM      8  C   UNL     1       4.740   6.332  17.612  0.00  0.00    +0.000 A 
ATOM      9  C   UNL     1       5.765   6.725  16.734  0.00  0.00    +0.000 A 
ATOM     10  C   UNL     1       6.907   5.955  16.567  0.00  0.00    +0.000 A 
ATOM     11  C   UNL     1       7.062   4.816  17.328  0.00  0.00    +0.000 A 
ATOM     12  C   UNL     1       6.051   4.428  18.217  0.00  0.00    +0.000 A 
ATOM     13  C   UNL     1       4.800   5.113  18.349  0.00  0.00    +0.000 A 
ATOM     14  C   UNL     1       3.639   4.741  19.148  0.00  0.00    +0.000 A 
ENDROOT
BRANCH   1  15
ATOM     15  C   UNL     1       4.340   2.345  19.554  0.00  0.00    +0.000 C 
BRANCH  15  16
ATOM     16  C   UNL     1       4.927   1.660  20.792  0.00  0.00    +0.000 C 
BRANCH  16  17
ATOM     17  O   UNL     1       5.635   0.491  20.406  0.00  0.00    +0.000 OA
ATOM     18  H   UNL     1       5.172  -0.283  20.782  0.00  0.00    +0.000 HD
ENDBRANCH  16  17
ENDBRANCH  15  16
ENDBRANCH   1  15
TORSDOF 3
ENDMDL
MODEL 8
REMARK VINA RESULT:      -6.3      1.254      4.097
REMARK  Name = 
REMARK  3 active torsions:
REMARK  status: ('A' for Active; 'I' for Inactive)
REMARK    1  A    between atoms: O_1  and  C_2
REMARK    2  A    between atoms: C_2  and  C_3
REMARK    3  A    between atoms: C_3  and  N_4
REMARK                            x       y       z     vdW  Elec       q    Type
REMARK                         _______ _______ _______ _____ _____    ______ ____
ROOT
ATOM      1  N   UNL     1       4.449   3.814  17.696  0.00  0.00    +0.000 N 
ATOM      2  C   UNL     1       5.203   3.445  16.628  0.00  0.00    +0.000 A 
ATOM      3  C   UNL     1       5.625   4.334  15.664  0.00  0.00    +0.000 A 
ATOM      4  C   UNL     1       5.263   5.654  15.777  0.00  0.00    +0.000 A 
ATOM      5  C   UNL     1       4.442   6.051  16.826  0.00  0.00    +0.000 A 
ATOM      6  C   UNL     1       4.109   7.398  16.894  0.00  0.00    +0.000 A 
ATOM      7  C   UNL     1       3.311   7.869  17.923  0.00  0.00    +0.000 A 
ATOM      8  C   UNL     1       2.775   7.003  18.874  0.00  0.00    +0.000 A 
ATOM      9  C   UNL     1       1.973   7.578  19.876  0.00  0.00    +0.000 A 
ATOM     10  C   UNL     1       1.352   6.797  20.840  0.00  0.00    +0.000 A 
ATOM     11  C   UNL     1       1.478   5.425  20.772  0.00  0.00    +0.000 A 
ATOM     12  C   UNL     1       2.263   4.846  19.766  0.00  0.00    +0.000 A 
ATOM     13  C   UNL     1       3.022   5.600  18.814  0.00  0.00    +0.000 A 
ATOM     14  C   UNL     1       3.956   5.114  17.806  0.00  0.00    +0.000 A 
ENDROOT
BRANCH   1  15
ATOM     15  C   UNL     1       4.232   2.797  18.779  0.00  0.00    +0.000 C 
BRANCH  15  16
ATOM     16  C   UNL     1       3.566   1.481  18.362  0.00  0.00    +0.000 C 
BRANCH  16  17
ATOM     17  O   UNL     1       2.246   1.733  17.905  0.00  0.00    +0.000 OA
ATOM     18  H   UNL     1       1.974   0.987  17.334  0.00  0.00    +0.000 HD
ENDBRANCH  16  17
ENDBRANCH  15  16
ENDBRANCH   1  15
TORSDOF 3
ENDMDL
MODEL 9
REMARK VINA RESULT:      -6.3      2.369      5.052
REMARK  Name = 
REMARK  3 active torsions:
REMARK  status: ('A' for Active; 'I' for Inactive)
REMARK    1  A    between atoms: O_1  and  C_2
REMARK    2  A    between atoms: C_2  and  C_3
REMARK    3  A    between atoms: C_3  and  N_4
REMARK                            x       y       z     vdW  Elec       q    Type
REMARK                         _______ _______ _______ _____ _____    ______ ____
ROOT
ATOM      1  N   UNL     1       5.940   4.756  18.222  0.00  0.00    +0.000 N 
ATOM      2  C   UNL     1       6.881   4.683  17.247  0.00  0.00    +0.000 A 
ATOM      3  C   UNL     1       6.604   4.254  15.967  0.00  0.00    +0.000 A 
ATOM      4  C   UNL     1       5.321   3.872  15.660  0.00  0.00    +0.000 A 
ATOM      5  C   UNL     1       4.349   3.877  16.654  0.00  0.00    +0.000 A 
ATOM      6  C   UNL     1       3.068   3.484  16.289  0.00  0.00    +0.000 A 
ATOM      7  C   UNL     1       2.045   3.484  17.221  0.00  0.00    +0.000 A 
ATOM      8  C   UNL     1       2.283   3.817  18.554  0.00  0.00    +0.000 A 
ATOM      9  C   UNL     1       1.180   3.781  19.425  0.00  0.00    +0.000 A 
ATOM     10  C   UNL     1       1.320   4.047  20.779  0.00  0.00    +0.000 A 
ATOM     11  C   UNL     1       2.581   4.288  21.285  0.00  0.00    +0.000 A 
ATOM     12  C   UNL     1       3.686   4.308  20.425  0.00  0.00    +0.000 A 
ATOM     13  C   UNL     1       3.593   4.158  19.004  0.00  0.00    +0.000 A 
ATOM     14  C   UNL     1       4.649   4.276  18.005  0.00  0.00    +0.000 A 
ENDROOT
BRANCH   1  15
ATOM     15  C   UNL     1       6.321   5.434  19.507  0.00  0.00    +0.000 C 
BRANCH  15  16
ATOM     16  C   UNL     1       7.808   5.749  19.702  0.00  0.00    +0.000 C 
BRANCH  16  17
ATOM     17  O   UNL     1       8.226   5.323  20.990  0.00  0.00    +0.000 OA
ATOM     18  H   UNL     1       9.199   5.234  20.980  0.00  0.00    +0.000 HD
ENDBRANCH  16  17
ENDBRANCH  15  16
ENDBRANCH   1  15
TORSDOF 3
ENDMDL
