MODEL 1
REMARK VINA RESULT:      -8.0      0.000      0.000
REMARK  Name = 
REMARK  2 active torsions:
REMARK  status: ('A' for Active; 'I' for Inactive)
REMARK    1  A    between atoms: C_15  and  O_16
REMARK    2  A    between atoms: C_18  and  O_19
REMARK                            x       y       z     vdW  Elec       q    Type
REMARK                         _______ _______ _______ _____ _____    ______ ____
ROOT
ATOM      1  O   UNL     1       6.250   4.498  19.831  0.00  0.00    +0.000 OA
ATOM      2  C   UNL     1       5.492   4.163  18.923  0.00  0.00    +0.000 C 
ATOM      3  O   UNL     1       4.291   3.445  19.194  0.00  0.00    +0.000 OA
ATOM      4  C   UNL     1       3.996   3.019  20.639  0.00  0.00    +0.000 C 
ATOM      5  C   UNL     1       2.516   2.387  20.964  0.00  0.00    +0.000 C 
ATOM      6  C   UNL     1       1.250   3.349  21.123  0.00  0.00    +0.000 C 
ATOM      7  C   UNL     1       1.585   4.498  20.246  0.00  0.00    +0.000 C 
ATOM      8  C   UNL     1       1.118   5.936  20.014  0.00  0.00    +0.000 C 
ATOM      9  C   UNL     1       2.466   6.575  19.615  0.00  0.00    +0.000 C 
ATOM     10  C   UNL     1       2.759   7.500  18.424  0.00  0.00    +0.000 C 
ATOM     11  C   UNL     1       3.785   6.622  17.725  0.00  0.00    +0.000 C 
ATOM     12  C   UNL     1       4.691   6.728  16.595  0.00  0.00    +0.000 C 
ATOM     13  C   UNL     1       5.057   5.170  16.379  0.00  0.00    +0.000 A 
ATOM     14  C   UNL     1       5.297   5.068  14.997  0.00  0.00    +0.000 A 
ATOM     15  C   UNL     1       6.629   5.038  14.648  0.00  0.00    +0.000 A 
ATOM     16  C   UNL     1       7.587   4.756  15.617  0.00  0.00    +0.000 A 
ATOM     17  C   UNL     1       7.207   4.450  16.953  0.00  0.00    +0.000 A 
ATOM     18  C   UNL     1       5.883   4.516  17.381  0.00  0.00    +0.000 A 
ENDROOT
BRANCH  15  19
ATOM     19  O   UNL     1       7.017   5.467  13.414  0.00  0.00    +0.000 OA
ATOM     20  H   UNL     1       7.427   6.350  13.494  0.00  0.00    +0.000 HD
ENDBRANCH  15  19
BRANCH  17  21
ATOM     21  O   UNL     1       8.212   4.148  17.836  0.00  0.00    +0.000 OA
ATOM     22  H   UNL     1       8.533   4.959  18.258  0.00  0.00    +0.000 HD
ENDBRANCH  17  21
TORSDOF 2
ENDMDL
MODEL 2
REMARK VINA RESULT:      -6.4      2.126      6.147
REMARK  Name = 
REMARK  2 active torsions:
REMARK  status: ('A' for Active; 'I' for Inactive)
REMARK    1  A    between atoms: C_15  and  O_16
REMARK    2  A    between atoms: C_18  and  O_19
REMARK                            x       y       z     vdW  Elec       q    Type
REMARK                         _______ _______ _______ _____ _____    ______ ____
ROOT
ATOM      1  O   UNL     1       2.380   3.299  16.441  0.00  0.00    +0.000 OA
ATOM      2  C   UNL     1       3.136   3.359  17.408  0.00  0.00    +0.000 C 
ATOM      3  O   UNL     1       4.536   3.561  17.238  0.00  0.00    +0.000 OA
ATOM      4  C   UNL     1       5.105   3.620  15.813  0.00  0.00    +0.000 C 
ATOM      5  C   UNL     1       6.675   4.066  15.633  0.00  0.00    +0.000 C 
ATOM      6  C   UNL     1       7.087   5.608  15.726  0.00  0.00    +0.000 C 
ATOM      7  C   UNL     1       6.071   6.175  16.647  0.00  0.00    +0.000 C 
ATOM      8  C   UNL     1       5.542   7.549  17.061  0.00  0.00    +0.000 C 
ATOM      9  C   UNL     1       4.068   7.178  17.332  0.00  0.00    +0.000 C 
ATOM     10  C   UNL     1       3.207   7.549  18.549  0.00  0.00    +0.000 C 
ATOM     11  C   UNL     1       2.904   6.138  19.028  0.00  0.00    +0.000 C 
ATOM     12  C   UNL     1       2.067   5.505  20.033  0.00  0.00    +0.000 C 
ATOM     13  C   UNL     1       2.727   4.032  20.065  0.00  0.00    +0.000 A 
ATOM     14  C   UNL     1       2.530   3.602  21.389  0.00  0.00    +0.000 A 
ATOM     15  C   UNL     1       1.482   2.723  21.556  0.00  0.00    +0.000 A 
ATOM     16  C   UNL     1       0.952   2.069  20.448  0.00  0.00    +0.000 A 
ATOM     17  C   UNL     1       1.509   2.257  19.153  0.00  0.00    +0.000 A 
ATOM     18  C   UNL     1       2.531   3.170  18.910  0.00  0.00    +0.000 A 
ENDROOT
BRANCH  15  19
ATOM     19  O   UNL     1       0.850   2.642  22.759  0.00  0.00    +0.000 OA
ATOM     20  H   UNL     1       0.233   3.395  22.852  0.00  0.00    +0.000 HD
ENDBRANCH  15  19
BRANCH  17  21
ATOM     21  O   UNL     1       0.949   1.545  18.122  0.00  0.00    +0.000 OA
ATOM     22  H   UNL     1       1.646   1.120  17.600  0.00  0.00    +0.000 HD
ENDBRANCH  17  21
TORSDOF 2
ENDMDL
MODEL 3
REMARK VINA RESULT:      -6.0      7.861     10.059
REMARK  Name = 
REMARK  2 active torsions:
REMARK  status: ('A' for Active; 'I' for Inactive)
REMARK    1  A    between atoms: C_15  and  O_16
REMARK    2  A    between atoms: C_18  and  O_19
REMARK                            x       y       z     vdW  Elec       q    Type
REMARK                         _______ _______ _______ _____ _____    ______ ____
ROOT
ATOM      1  O   UNL     1      -1.669  13.357  19.586  0.00  0.00    +0.000 OA
ATOM      2  C   UNL     1      -0.578  13.408  20.151  0.00  0.00    +0.000 C 
ATOM      3  O   UNL     1      -0.318  12.640  21.321  0.00  0.00    +0.000 OA
ATOM      4  C   UNL     1      -1.455  11.801  21.922  0.00  0.00    +0.000 C 
ATOM      5  C   UNL     1      -1.082  10.761  23.136  0.00  0.00    +0.000 C 
ATOM      6  C   UNL     1      -0.391   9.357  22.806  0.00  0.00    +0.000 C 
ATOM      7  C   UNL     1       0.379   9.641  21.570  0.00  0.00    +0.000 C 
ATOM      8  C   UNL     1       1.072   8.864  20.449  0.00  0.00    +0.000 C 
ATOM      9  C   UNL     1       0.830   9.843  19.280  0.00  0.00    +0.000 C 
ATOM     10  C   UNL     1       1.845  10.351  18.245  0.00  0.00    +0.000 C 
ATOM     11  C   UNL     1       1.746  11.834  18.565  0.00  0.00    +0.000 C 
ATOM     12  C   UNL     1       2.247  13.083  18.018  0.00  0.00    +0.000 C 
ATOM     13  C   UNL     1       1.960  14.072  19.262  0.00  0.00    +0.000 A 
ATOM     14  C   UNL     1       2.978  15.038  19.167  0.00  0.00    +0.000 A 
ATOM     15  C   UNL     1       2.581  16.235  18.613  0.00  0.00    +0.000 A 
ATOM     16  C   UNL     1       1.226  16.536  18.527  0.00  0.00    +0.000 A 
ATOM     17  C   UNL     1       0.246  15.647  19.047  0.00  0.00    +0.000 A 
ATOM     18  C   UNL     1       0.578  14.400  19.570  0.00  0.00    +0.000 A 
ENDROOT
BRANCH  15  19
ATOM     19  O   UNL     1       3.494  17.027  17.985  0.00  0.00    +0.000 OA
ATOM     20  H   UNL     1       4.220  16.472  17.638  0.00  0.00    +0.000 HD
ENDBRANCH  15  19
BRANCH  17  21
ATOM     21  O   UNL     1      -1.066  16.038  18.954  0.00  0.00    +0.000 OA
ATOM     22  H   UNL     1      -1.158  16.718  18.270  0.00  0.00    +0.000 HD
ENDBRANCH  17  21
TORSDOF 2
ENDMDL
MODEL 4
REMARK VINA RESULT:      -5.9      9.803     11.104
REMARK  Name = 
REMARK  2 active torsions:
REMARK  status: ('A' for Active; 'I' for Inactive)
REMARK    1  A    between atoms: C_15  and  O_16
REMARK    2  A    between atoms: C_18  and  O_19
REMARK                            x       y       z     vdW  Elec       q    Type
REMARK                         _______ _______ _______ _____ _____    ______ ____
ROOT
ATOM      1  O   UNL     1       7.227  14.956  19.937  0.00  0.00    +0.000 OA
ATOM      2  C   UNL     1       8.370  14.865  20.379  0.00  0.00    +0.000 C 
ATOM      3  O   UNL     1       8.775  15.602  21.529  0.00  0.00    +0.000 OA
ATOM      4  C   UNL     1       7.781  16.583  22.165  0.00  0.00    +0.000 C 
ATOM      5  C   UNL     1       8.185  17.259  23.606  0.00  0.00    +0.000 C 
ATOM      6  C   UNL     1       8.028  16.420  24.958  0.00  0.00    +0.000 C 
ATOM      7  C   UNL     1       8.226  15.019  24.512  0.00  0.00    +0.000 C 
ATOM      8  C   UNL     1       7.982  13.604  25.040  0.00  0.00    +0.000 C 
ATOM      9  C   UNL     1       7.677  12.889  23.706  0.00  0.00    +0.000 C 
ATOM     10  C   UNL     1       8.250  11.559  23.192  0.00  0.00    +0.000 C 
ATOM     11  C   UNL     1       8.912  12.091  21.930  0.00  0.00    +0.000 C 
ATOM     12  C   UNL     1       9.584  11.547  20.764  0.00  0.00    +0.000 C 
ATOM     13  C   UNL     1      10.295  12.881  20.198  0.00  0.00    +0.000 A 
ATOM     14  C   UNL     1      11.465  12.405  19.579  0.00  0.00    +0.000 A 
ATOM     15  C   UNL     1      11.391  12.319  18.206  0.00  0.00    +0.000 A 
ATOM     16  C   UNL     1      10.386  13.000  17.528  0.00  0.00    +0.000 A 
ATOM     17  C   UNL     1       9.462  13.825  18.227  0.00  0.00    +0.000 A 
ATOM     18  C   UNL     1       9.450  13.912  19.617  0.00  0.00    +0.000 A 
ENDROOT
BRANCH  15  19
ATOM     19  O   UNL     1      12.174  11.424  17.540  0.00  0.00    +0.000 OA
ATOM     20  H   UNL     1      12.338  11.750  16.633  0.00  0.00    +0.000 HD
ENDBRANCH  15  19
BRANCH  17  21
ATOM     21  O   UNL     1       8.526  14.490  17.477  0.00  0.00    +0.000 OA
ATOM     22  H   UNL     1       8.791  15.416  17.367  0.00  0.00    +0.000 HD
ENDBRANCH  17  21
TORSDOF 2
ENDMDL
MODEL 5
REMARK VINA RESULT:      -5.8      7.873     11.001
REMARK  Name = 
REMARK  2 active torsions:
REMARK  status: ('A' for Active; 'I' for Inactive)
REMARK    1  A    between atoms: C_15  and  O_16
REMARK    2  A    between atoms: C_18  and  O_19
REMARK                            x       y       z     vdW  Elec       q    Type
REMARK                         _______ _______ _______ _____ _____    ______ ____
ROOT
ATOM      1  O   UNL     1       1.228  13.417  20.888  0.00  0.00    +0.000 OA
ATOM      2  C   UNL     1       0.218  12.808  20.544  0.00  0.00    +0.000 C 
ATOM      3  O   UNL     1       0.280  11.768  19.572  0.00  0.00    +0.000 OA
ATOM      4  C   UNL     1       1.625  11.473  18.893  0.00  0.00    +0.000 C 
ATOM      5  C   UNL     1       1.726  10.139  17.941  0.00  0.00    +0.000 C 
ATOM      6  C   UNL     1       1.885   8.691  18.602  0.00  0.00    +0.000 C 
ATOM      7  C   UNL     1       1.196   8.838  19.907  0.00  0.00    +0.000 C 
ATOM      8  C   UNL     1       1.106   8.098  21.243  0.00  0.00    +0.000 C 
ATOM      9  C   UNL     1       0.920   9.306  22.186  0.00  0.00    +0.000 C 
ATOM     10  C   UNL     1      -0.111   9.478  23.312  0.00  0.00    +0.000 C 
ATOM     11  C   UNL     1      -0.815  10.709  22.763  0.00  0.00    +0.000 C 
ATOM     12  C   UNL     1      -1.832  11.647  23.207  0.00  0.00    +0.000 C 
ATOM     13  C   UNL     1      -2.208  12.344  21.799  0.00  0.00    +0.000 A 
ATOM     14  C   UNL     1      -3.563  12.691  21.946  0.00  0.00    +0.000 A 
ATOM     15  C   UNL     1      -3.785  14.021  22.230  0.00  0.00    +0.000 A 
ATOM     16  C   UNL     1      -2.774  14.949  22.007  0.00  0.00    +0.000 A 
ATOM     17  C   UNL     1      -1.529  14.553  21.444  0.00  0.00    +0.000 A 
ATOM     18  C   UNL     1      -1.223  13.219  21.184  0.00  0.00    +0.000 A 
ENDROOT
BRANCH  15  19
ATOM     19  O   UNL     1      -4.912  14.391  22.900  0.00  0.00    +0.000 OA
ATOM     20  H   UNL     1      -5.362  15.104  22.406  0.00  0.00    +0.000 HD
ENDBRANCH  15  19
BRANCH  17  21
ATOM     21  O   UNL     1      -0.601  15.538  21.223  0.00  0.00    +0.000 OA
ATOM     22  H   UNL     1      -0.145  15.751  22.051  0.00  0.00    +0.000 HD
ENDBRANCH  17  21
TORSDOF 2
ENDMDL
MODEL 6
REMARK VINA RESULT:      -5.7      9.850     12.003
REMARK  Name = 
REMARK  2 active torsions:
REMARK  status: ('A' for Active; 'I' for Inactive)
REMARK    1  A    between atoms: C_15  and  O_16
REMARK    2  A    between atoms: C_18  and  O_19
REMARK                            x       y       z     vdW  Elec       q    Type
REMARK                         _______ _______ _______ _____ _____    ______ ____
ROOT
ATOM      1  O   UNL     1       7.174  13.251  17.045  0.00  0.00    +0.000 OA
ATOM      2  C   UNL     1       7.538  13.716  18.123  0.00  0.00    +0.000 C 
ATOM      3  O   UNL     1       8.557  13.083  18.892  0.00  0.00    +0.000 OA
ATOM      4  C   UNL     1       9.141  11.755  18.392  0.00  0.00    +0.000 C 
ATOM      5  C   UNL     1      10.455  11.153  19.171  0.00  0.00    +0.000 C 
ATOM      6  C   UNL     1      11.907  11.756  18.879  0.00  0.00    +0.000 C 
ATOM      7  C   UNL     1      11.621  13.165  18.513  0.00  0.00    +0.000 C 
ATOM      8  C   UNL     1      12.333  14.341  17.842  0.00  0.00    +0.000 C 
ATOM      9  C   UNL     1      11.123  15.006  17.153  0.00  0.00    +0.000 C 
ATOM     10  C   UNL     1      10.733  16.493  17.152  0.00  0.00    +0.000 C 
ATOM     11  C   UNL     1       9.370  16.351  17.812  0.00  0.00    +0.000 C 
ATOM     12  C   UNL     1       8.232  17.203  18.110  0.00  0.00    +0.000 C 
ATOM     13  C   UNL     1       7.456  16.275  19.180  0.00  0.00    +0.000 A 
ATOM     14  C   UNL     1       6.815  17.199  20.025  0.00  0.00    +0.000 A 
ATOM     15  C   UNL     1       5.472  17.370  19.771  0.00  0.00    +0.000 A 
ATOM     16  C   UNL     1       4.792  16.429  19.004  0.00  0.00    +0.000 A 
ATOM     17  C   UNL     1       5.453  15.266  18.521  0.00  0.00    +0.000 A 
ATOM     18  C   UNL     1       6.819  15.061  18.699  0.00  0.00    +0.000 A 
ENDROOT
BRANCH  15  19
ATOM     19  O   UNL     1       4.863  18.543  20.102  0.00  0.00    +0.000 OA
ATOM     20  H   UNL     1       4.633  18.531  21.052  0.00  0.00    +0.000 HD
ENDBRANCH  15  19
BRANCH  17  21
ATOM     21  O   UNL     1       4.700  14.370  17.805  0.00  0.00    +0.000 OA
ATOM     22  H   UNL     1       4.996  13.468  17.994  0.00  0.00    +0.000 HD
ENDBRANCH  17  21
TORSDOF 2
ENDMDL
MODEL 7
REMARK VINA RESULT:      -5.7      7.765      9.993
REMARK  Name = 
REMARK  2 active torsions:
REMARK  status: ('A' for Active; 'I' for Inactive)
REMARK    1  A    between atoms: C_15  and  O_16
REMARK    2  A    between atoms: C_18  and  O_19
REMARK                            x       y       z     vdW  Elec       q    Type
REMARK                         _______ _______ _______ _____ _____    ______ ____
ROOT
ATOM      1  O   UNL     1      -0.561  10.726  23.435  0.00  0.00    +0.000 OA
ATOM      2  C   UNL     1      -1.000  11.178  22.379  0.00  0.00    +0.000 C 
ATOM      3  O   UNL     1      -2.206  11.936  22.347  0.00  0.00    +0.000 OA
ATOM      4  C   UNL     1      -3.001  12.113  23.649  0.00  0.00    +0.000 C 
ATOM      5  C   UNL     1      -4.264  13.163  23.638  0.00  0.00    +0.000 C 
ATOM      6  C   UNL     1      -4.000  14.737  23.733  0.00  0.00    +0.000 C 
ATOM      7  C   UNL     1      -2.668  14.896  23.099  0.00  0.00    +0.000 C 
ATOM      8  C   UNL     1      -1.561  15.947  23.009  0.00  0.00    +0.000 C 
ATOM      9  C   UNL     1      -0.335  15.013  22.928  0.00  0.00    +0.000 C 
ATOM     10  C   UNL     1       0.846  15.084  21.947  0.00  0.00    +0.000 C 
ATOM     11  C   UNL     1       0.662  13.721  21.299  0.00  0.00    +0.000 C 
ATOM     12  C   UNL     1       1.376  12.879  20.356  0.00  0.00    +0.000 C 
ATOM     13  C   UNL     1       0.211  11.828  19.974  0.00  0.00    +0.000 A 
ATOM     14  C   UNL     1       0.505  11.464  18.648  0.00  0.00    +0.000 A 
ATOM     15  C   UNL     1       1.127  10.242  18.515  0.00  0.00    +0.000 A 
ATOM     16  C   UNL     1       1.099   9.338  19.571  0.00  0.00    +0.000 A 
ATOM     17  C   UNL     1       0.395   9.637  20.770  0.00  0.00    +0.000 A 
ATOM     18  C   UNL     1      -0.208  10.873  20.988  0.00  0.00    +0.000 A 
ENDROOT
BRANCH  15  19
ATOM     19  O   UNL     1       1.922  10.000  17.435  0.00  0.00    +0.000 OA
ATOM     20  H   UNL     1       2.542   9.275  17.645  0.00  0.00    +0.000 HD
ENDBRANCH  15  19
BRANCH  17  21
ATOM     21  O   UNL     1       0.387   8.675  21.748  0.00  0.00    +0.000 OA
ATOM     22  H   UNL     1       0.343   9.094  22.621  0.00  0.00    +0.000 HD
ENDBRANCH  17  21
TORSDOF 2
ENDMDL
MODEL 8
REMARK VINA RESULT:      -5.7     10.437     11.547
REMARK  Name = 
REMARK  2 active torsions:
REMARK  status: ('A' for Active; 'I' for Inactive)
REMARK    1  A    between atoms: C_15  and  O_16
REMARK    2  A    between atoms: C_18  and  O_19
REMARK                            x       y       z     vdW  Elec       q    Type
REMARK                         _______ _______ _______ _____ _____    ______ ____
ROOT
ATOM      1  O   UNL     1       8.648  15.832  21.047  0.00  0.00    +0.000 OA
ATOM      2  C   UNL     1       9.613  15.188  21.452  0.00  0.00    +0.000 C 
ATOM      3  O   UNL     1      10.115  15.366  22.773  0.00  0.00    +0.000 OA
ATOM      4  C   UNL     1       9.481  16.442  23.665  0.00  0.00    +0.000 C 
ATOM      5  C   UNL     1       9.924  16.486  25.246  0.00  0.00    +0.000 C 
ATOM      6  C   UNL     1       9.303  15.440  26.283  0.00  0.00    +0.000 C 
ATOM      7  C   UNL     1       9.025  14.251  25.439  0.00  0.00    +0.000 C 
ATOM      8  C   UNL     1       8.214  12.956  25.517  0.00  0.00    +0.000 C 
ATOM      9  C   UNL     1       7.836  12.809  24.028  0.00  0.00    +0.000 C 
ATOM     10  C   UNL     1       7.939  11.556  23.144  0.00  0.00    +0.000 C 
ATOM     11  C   UNL     1       8.900  12.112  22.106  0.00  0.00    +0.000 C 
ATOM     12  C   UNL     1       9.465  11.690  20.836  0.00  0.00    +0.000 C 
ATOM     13  C   UNL     1      10.681  12.744  20.701  0.00  0.00    +0.000 A 
ATOM     14  C   UNL     1      11.660  12.040  19.979  0.00  0.00    +0.000 A 
ATOM     15  C   UNL     1      11.731  12.367  18.642  0.00  0.00    +0.000 A 
ATOM     16  C   UNL     1      11.139  13.542  18.190  0.00  0.00    +0.000 A 
ATOM     17  C   UNL     1      10.504  14.436  19.097  0.00  0.00    +0.000 A 
ATOM     18  C   UNL     1      10.353  14.138  20.449  0.00  0.00    +0.000 A 
ENDROOT
BRANCH  15  19
ATOM     19  O   UNL     1      12.206  11.458  17.746  0.00  0.00    +0.000 OA
ATOM     20  H   UNL     1      12.403  10.620  18.209  0.00  0.00    +0.000 HD
ENDBRANCH  15  19
BRANCH  17  21
ATOM     21  O   UNL     1       9.979  15.589  18.573  0.00  0.00    +0.000 OA
ATOM     22  H   UNL     1       9.036  15.466  18.389  0.00  0.00    +0.000 HD
ENDBRANCH  17  21
TORSDOF 2
ENDMDL
MODEL 9
REMARK VINA RESULT:      -5.7      8.179     10.721
REMARK  Name = 
REMARK  2 active torsions:
REMARK  status: ('A' for Active; 'I' for Inactive)
REMARK    1  A    between atoms: C_15  and  O_16
REMARK    2  A    between atoms: C_18  and  O_19
REMARK                            x       y       z     vdW  Elec       q    Type
REMARK                         _______ _______ _______ _____ _____    ______ ____
ROOT
ATOM      1  O   UNL     1      -0.627  11.558  18.192  0.00  0.00    +0.000 OA
ATOM      2  C   UNL     1      -1.561  10.966  18.729  0.00  0.00    +0.000 C 
ATOM      3  O   UNL     1      -1.332  10.003  19.753  0.00  0.00    +0.000 OA
ATOM      4  C   UNL     1       0.115   9.650  20.123  0.00  0.00    +0.000 C 
ATOM      5  C   UNL     1       0.360   8.706  21.444  0.00  0.00    +0.000 C 
ATOM      6  C   UNL     1       0.272   9.337  22.910  0.00  0.00    +0.000 C 
ATOM      7  C   UNL     1      -0.697  10.449  22.742  0.00  0.00    +0.000 C 
ATOM      8  C   UNL     1      -1.145  11.701  23.498  0.00  0.00    +0.000 C 
ATOM      9  C   UNL     1      -1.477  12.612  22.297  0.00  0.00    +0.000 C 
ATOM     10  C   UNL     1      -2.733  13.469  22.078  0.00  0.00    +0.000 C 
ATOM     11  C   UNL     1      -3.213  12.810  20.794  0.00  0.00    +0.000 C 
ATOM     12  C   UNL     1      -4.248  13.032  19.799  0.00  0.00    +0.000 C 
ATOM     13  C   UNL     1      -4.238  11.599  19.055  0.00  0.00    +0.000 A 
ATOM     14  C   UNL     1      -5.566  11.434  18.623  0.00  0.00    +0.000 A 
ATOM     15  C   UNL     1      -5.771  11.701  17.287  0.00  0.00    +0.000 A 
ATOM     16  C   UNL     1      -4.682  11.753  16.423  0.00  0.00    +0.000 A 
ATOM     17  C   UNL     1      -3.365  11.486  16.889  0.00  0.00    +0.000 A 
ATOM     18  C   UNL     1      -3.086  11.262  18.235  0.00  0.00    +0.000 A 
ENDROOT
BRANCH  15  19
ATOM     19  O   UNL     1      -7.000  12.099  16.855  0.00  0.00    +0.000 OA
ATOM     20  H   UNL     1      -7.349  12.784  17.458  0.00  0.00    +0.000 HD
ENDBRANCH  15  19
BRANCH  17  21
ATOM     21  O   UNL     1      -2.354  11.522  15.963  0.00  0.00    +0.000 OA
ATOM     22  H   UNL     1      -1.644  10.918  16.228  0.00  0.00    +0.000 HD
ENDBRANCH  17  21
TORSDOF 2
ENDMDL
