MODEL 1
REMARK VINA RESULT:      -9.0      0.000      0.000
REMARK  Name = 
REMARK  5 active torsions:
REMARK  status: ('A' for Active; 'I' for Inactive)
REMARK    1  A    between atoms: C_1  and  C_2
REMARK    2  A    between atoms: N_4  and  C_5
REMARK    3  A    between atoms: C_9  and  C_10
REMARK    4  A    between atoms: C_14  and  C_15
REMARK    5  A    between atoms: C_24  and  O_25
REMARK                            x       y       z     vdW  Elec       q    Type
REMARK                         _______ _______ _______ _____ _____    ______ ____
ROOT
ATOM      1  C   UNL     1       2.286   6.429  19.897  0.00  0.00    +0.000 A 
ATOM      2  C   UNL     1       3.136   6.910  18.915  0.00  0.00    +0.000 A 
ATOM      3  C   UNL     1       3.707   6.038  17.988  0.00  0.00    +0.000 A 
ATOM      4  C   UNL     1       3.511   4.639  18.045  0.00  0.00    +0.000 A 
ATOM      5  C   UNL     1       4.146   3.688  17.176  0.00  0.00    +0.000 A 
ATOM      6  C   UNL     1       3.778   2.340  17.322  0.00  0.00    +0.000 A 
ATOM      7  C   UNL     1       2.852   1.984  18.286  0.00  0.00    +0.000 A 
ATOM      8  N   UNL     1       2.288   2.849  19.147  0.00  0.00    +0.000 NA
ATOM      9  C   UNL     1       2.621   4.152  19.030  0.00  0.00    +0.000 A 
ATOM     10  C   UNL     1       2.042   5.052  19.931  0.00  0.00    +0.000 A 
ENDROOT
BRANCH   5  11
ATOM     11  C   UNL     1       5.185   4.043  16.162  0.00  0.00    +0.000 A 
ATOM     12  C   UNL     1       6.371   4.703  16.529  0.00  0.00    +0.000 A 
ATOM     13  C   UNL     1       7.345   5.044  15.583  0.00  0.00    +0.000 A 
ATOM     14  C   UNL     1       7.181   4.686  14.248  0.00  0.00    +0.000 A 
ATOM     15  C   UNL     1       6.024   4.021  13.840  0.00  0.00    +0.000 A 
ATOM     16  C   UNL     1       5.019   3.760  14.792  0.00  0.00    +0.000 A 
BRANCH  15  17
ATOM     17  C   UNL     1       5.848   3.538  12.420  0.00  0.00    +0.000 C 
ATOM     18  F   UNL     1       6.005   2.193  12.278  0.00  0.00    +0.000 F 
ATOM     19  F   UNL     1       4.608   3.821  11.930  0.00  0.00    +0.000 F 
ATOM     20  F   UNL     1       6.729   4.113  11.555  0.00  0.00    +0.000 F 
ENDBRANCH  15  17
ENDBRANCH   5  11
BRANCH   1  24
ATOM     21  C   UNL     1       0.629   9.191  21.866  0.00  0.00    +0.000 C 
ATOM     22  C   UNL     1       1.177   8.539  20.628  0.00  0.00    +0.000 C 
ATOM     23  O   UNL     1       1.158   9.138  19.556  0.00  0.00    +0.000 OA
ATOM     24  N   UNL     1       1.660   7.263  20.851  0.00  0.00    +0.000 N 
ATOM     25  H   UNL     1       1.487   6.819  21.748  0.00  0.00    +0.000 HD
ENDBRANCH   1  24
BRANCH  10  26
ATOM     26  O   UNL     1       1.183   4.556  20.898  0.00  0.00    +0.000 OA
ATOM     27  H   UNL     1       0.923   3.676  20.541  0.00  0.00    +0.000 HD
ENDBRANCH  10  26
TORSDOF 4
ENDMDL
MODEL 2
REMARK VINA RESULT:      -8.8      4.876      7.819
REMARK  Name = 
REMARK  5 active torsions:
REMARK  status: ('A' for Active; 'I' for Inactive)
REMARK    1  A    between atoms: C_1  and  C_2
REMARK    2  A    between atoms: N_4  and  C_5
REMARK    3  A    between atoms: C_9  and  C_10
REMARK    4  A    between atoms: C_14  and  C_15
REMARK    5  A    between atoms: C_24  and  O_25
REMARK                            x       y       z     vdW  Elec       q    Type
REMARK                         _______ _______ _______ _____ _____    ______ ____
ROOT
ATOM      1  C   UNL     1       6.117   3.848  14.353  0.00  0.00    +0.000 A 
ATOM      2  C   UNL     1       4.949   3.564  15.041  0.00  0.00    +0.000 A 
ATOM      3  C   UNL     1       4.605   4.295  16.177  0.00  0.00    +0.000 A 
ATOM      4  C   UNL     1       5.447   5.295  16.719  0.00  0.00    +0.000 A 
ATOM      5  C   UNL     1       5.187   6.013  17.934  0.00  0.00    +0.000 A 
ATOM      6  C   UNL     1       6.091   7.029  18.286  0.00  0.00    +0.000 A 
ATOM      7  C   UNL     1       7.183   7.282  17.476  0.00  0.00    +0.000 A 
ATOM      8  N   UNL     1       7.477   6.585  16.365  0.00  0.00    +0.000 NA
ATOM      9  C   UNL     1       6.625   5.604  15.999  0.00  0.00    +0.000 A 
ATOM     10  C   UNL     1       6.933   4.871  14.849  0.00  0.00    +0.000 A 
ENDROOT
BRANCH   5  11
ATOM     11  C   UNL     1       4.041   5.723  18.850  0.00  0.00    +0.000 A 
ATOM     12  C   UNL     1       3.048   6.685  19.107  0.00  0.00    +0.000 A 
ATOM     13  C   UNL     1       1.976   6.423  19.969  0.00  0.00    +0.000 A 
ATOM     14  C   UNL     1       1.840   5.168  20.557  0.00  0.00    +0.000 A 
ATOM     15  C   UNL     1       2.797   4.180  20.322  0.00  0.00    +0.000 A 
ATOM     16  C   UNL     1       3.911   4.490  19.518  0.00  0.00    +0.000 A 
BRANCH  15  17
ATOM     17  C   UNL     1       2.641   2.781  20.869  0.00  0.00    +0.000 C 
ATOM     18  F   UNL     1       1.896   2.720  22.007  0.00  0.00    +0.000 F 
ATOM     19  F   UNL     1       2.031   1.946  19.981  0.00  0.00    +0.000 F 
ATOM     20  F   UNL     1       3.833   2.196  21.169  0.00  0.00    +0.000 F 
ENDBRANCH  15  17
ENDBRANCH   5  11
BRANCH   1  24
ATOM     21  C   UNL     1       6.421   2.115  11.014  0.00  0.00    +0.000 C 
ATOM     22  C   UNL     1       5.734   2.946  12.061  0.00  0.00    +0.000 C 
ATOM     23  O   UNL     1       4.597   3.368  11.866  0.00  0.00    +0.000 OA
ATOM     24  N   UNL     1       6.511   3.159  13.185  0.00  0.00    +0.000 N 
ATOM     25  H   UNL     1       7.489   2.884  13.168  0.00  0.00    +0.000 HD
ENDBRANCH   1  24
BRANCH  10  26
ATOM     26  O   UNL     1       8.098   5.179  14.165  0.00  0.00    +0.000 OA
ATOM     27  H   UNL     1       8.807   4.941  14.805  0.00  0.00    +0.000 HD
ENDBRANCH  10  26
TORSDOF 4
ENDMDL
MODEL 3
REMARK VINA RESULT:      -8.6      5.177      8.004
REMARK  Name = 
REMARK  5 active torsions:
REMARK  status: ('A' for Active; 'I' for Inactive)
REMARK    1  A    between atoms: C_1  and  C_2
REMARK    2  A    between atoms: N_4  and  C_5
REMARK    3  A    between atoms: C_9  and  C_10
REMARK    4  A    between atoms: C_14  and  C_15
REMARK    5  A    between atoms: C_24  and  O_25
REMARK                            x       y       z     vdW  Elec       q    Type
REMARK                         _______ _______ _______ _____ _____    ______ ____
ROOT
ATOM      1  C   UNL     1       5.654   5.141  15.314  0.00  0.00    +0.000 A 
ATOM      2  C   UNL     1       5.174   6.431  15.465  0.00  0.00    +0.000 A 
ATOM      3  C   UNL     1       4.399   6.770  16.573  0.00  0.00    +0.000 A 
ATOM      4  C   UNL     1       4.007   5.817  17.543  0.00  0.00    +0.000 A 
ATOM      5  C   UNL     1       3.137   6.088  18.651  0.00  0.00    +0.000 A 
ATOM      6  C   UNL     1       2.913   5.043  19.564  0.00  0.00    +0.000 A 
ATOM      7  C   UNL     1       3.514   3.815  19.356  0.00  0.00    +0.000 A 
ATOM      8  N   UNL     1       4.286   3.522  18.295  0.00  0.00    +0.000 NA
ATOM      9  C   UNL     1       4.521   4.507  17.402  0.00  0.00    +0.000 A 
ATOM     10  C   UNL     1       5.317   4.201  16.294  0.00  0.00    +0.000 A 
ENDROOT
BRANCH   5  11
ATOM     11  C   UNL     1       2.438   7.392  18.868  0.00  0.00    +0.000 A 
ATOM     12  C   UNL     1       2.374   8.366  17.856  0.00  0.00    +0.000 A 
ATOM     13  C   UNL     1       1.728   9.592  18.055  0.00  0.00    +0.000 A 
ATOM     14  C   UNL     1       1.079   9.855  19.259  0.00  0.00    +0.000 A 
ATOM     15  C   UNL     1       1.108   8.912  20.288  0.00  0.00    +0.000 A 
ATOM     16  C   UNL     1       1.833   7.721  20.098  0.00  0.00    +0.000 A 
BRANCH  15  17
ATOM     17  C   UNL     1       0.344   9.122  21.574  0.00  0.00    +0.000 C 
ATOM     18  F   UNL     1       1.126   9.075  22.687  0.00  0.00    +0.000 F 
ATOM     19  F   UNL     1      -0.281  10.333  21.610  0.00  0.00    +0.000 F 
ATOM     20  F   UNL     1      -0.634   8.193  21.762  0.00  0.00    +0.000 F 
ENDBRANCH  15  17
ENDBRANCH   5  11
BRANCH   1  24
ATOM     21  C   UNL     1       7.154   3.720  12.155  0.00  0.00    +0.000 C 
ATOM     22  C   UNL     1       6.036   4.062  13.099  0.00  0.00    +0.000 C 
ATOM     23  O   UNL     1       4.881   3.743  12.829  0.00  0.00    +0.000 OA
ATOM     24  N   UNL     1       6.461   4.741  14.225  0.00  0.00    +0.000 N 
ATOM     25  H   UNL     1       7.419   5.078  14.267  0.00  0.00    +0.000 HD
ENDBRANCH   1  24
BRANCH  10  26
ATOM     26  O   UNL     1       5.800   2.909  16.166  0.00  0.00    +0.000 OA
ATOM     27  H   UNL     1       5.848   2.591  17.096  0.00  0.00    +0.000 HD
ENDBRANCH  10  26
TORSDOF 4
ENDMDL
MODEL 4
REMARK VINA RESULT:      -8.6      5.481      8.321
REMARK  Name = 
REMARK  5 active torsions:
REMARK  status: ('A' for Active; 'I' for Inactive)
REMARK    1  A    between atoms: C_1  and  C_2
REMARK    2  A    between atoms: N_4  and  C_5
REMARK    3  A    between atoms: C_9  and  C_10
REMARK    4  A    between atoms: C_14  and  C_15
REMARK    5  A    between atoms: C_24  and  O_25
REMARK                            x       y       z     vdW  Elec       q    Type
REMARK                         _______ _______ _______ _____ _____    ______ ____
ROOT
ATOM      1  C   UNL     1       4.756   5.280  16.528  0.00  0.00    +0.000 A 
ATOM      2  C   UNL     1       4.398   6.608  16.693  0.00  0.00    +0.000 A 
ATOM      3  C   UNL     1       3.640   7.002  17.795  0.00  0.00    +0.000 A 
ATOM      4  C   UNL     1       3.145   6.076  18.743  0.00  0.00    +0.000 A 
ATOM      5  C   UNL     1       2.286   6.412  19.843  0.00  0.00    +0.000 A 
ATOM      6  C   UNL     1       1.951   5.379  20.736  0.00  0.00    +0.000 A 
ATOM      7  C   UNL     1       2.437   4.103  20.517  0.00  0.00    +0.000 A 
ATOM      8  N   UNL     1       3.195   3.754  19.463  0.00  0.00    +0.000 NA
ATOM      9  C   UNL     1       3.536   4.725  18.590  0.00  0.00    +0.000 A 
ATOM     10  C   UNL     1       4.317   4.362  17.488  0.00  0.00    +0.000 A 
ENDROOT
BRANCH   5  11
ATOM     11  C   UNL     1       1.710   7.772  20.071  0.00  0.00    +0.000 A 
ATOM     12  C   UNL     1       1.657   8.727  19.040  0.00  0.00    +0.000 A 
ATOM     13  C   UNL     1       1.125  10.005  19.248  0.00  0.00    +0.000 A 
ATOM     14  C   UNL     1       0.581  10.345  20.484  0.00  0.00    +0.000 A 
ATOM     15  C   UNL     1       0.602   9.425  21.533  0.00  0.00    +0.000 A 
ATOM     16  C   UNL     1       1.216   8.174  21.328  0.00  0.00    +0.000 A 
BRANCH  15  17
ATOM     17  C   UNL     1      -0.056   9.722  22.860  0.00  0.00    +0.000 C 
ATOM     18  F   UNL     1      -0.410  11.027  23.013  0.00  0.00    +0.000 F 
ATOM     19  F   UNL     1      -1.200   9.003  23.040  0.00  0.00    +0.000 F 
ATOM     20  F   UNL     1       0.741   9.422  23.922  0.00  0.00    +0.000 F 
ENDBRANCH  15  17
ENDBRANCH   5  11
BRANCH   1  24
ATOM     21  C   UNL     1       7.380   4.569  13.910  0.00  0.00    +0.000 C 
ATOM     22  C   UNL     1       6.850   5.174  15.179  0.00  0.00    +0.000 C 
ATOM     23  O   UNL     1       7.568   5.896  15.866  0.00  0.00    +0.000 OA
ATOM     24  N   UNL     1       5.540   4.822  15.445  0.00  0.00    +0.000 N 
ATOM     25  H   UNL     1       5.098   4.102  14.881  0.00  0.00    +0.000 HD
ENDBRANCH   1  24
BRANCH  10  26
ATOM     26  O   UNL     1       4.679   3.032  17.347  0.00  0.00    +0.000 OA
ATOM     27  H   UNL     1       4.686   2.699  18.273  0.00  0.00    +0.000 HD
ENDBRANCH  10  26
TORSDOF 4
ENDMDL
MODEL 5
REMARK VINA RESULT:      -8.1      4.362      7.494
REMARK  Name = 
REMARK  5 active torsions:
REMARK  status: ('A' for Active; 'I' for Inactive)
REMARK    1  A    between atoms: C_1  and  C_2
REMARK    2  A    between atoms: N_4  and  C_5
REMARK    3  A    between atoms: C_9  and  C_10
REMARK    4  A    between atoms: C_14  and  C_15
REMARK    5  A    between atoms: C_24  and  O_25
REMARK                            x       y       z     vdW  Elec       q    Type
REMARK                         _______ _______ _______ _____ _____    ______ ____
ROOT
ATOM      1  C   UNL     1       4.619   5.238  16.638  0.00  0.00    +0.000 A 
ATOM      2  C   UNL     1       4.271   6.557  16.878  0.00  0.00    +0.000 A 
ATOM      3  C   UNL     1       3.530   6.896  18.009  0.00  0.00    +0.000 A 
ATOM      4  C   UNL     1       3.041   5.923  18.913  0.00  0.00    +0.000 A 
ATOM      5  C   UNL     1       2.198   6.205  20.041  0.00  0.00    +0.000 A 
ATOM      6  C   UNL     1       1.867   5.129  20.881  0.00  0.00    +0.000 A 
ATOM      7  C   UNL     1       2.342   3.863  20.588  0.00  0.00    +0.000 A 
ATOM      8  N   UNL     1       3.085   3.566  19.507  0.00  0.00    +0.000 NA
ATOM      9  C   UNL     1       3.421   4.581  18.682  0.00  0.00    +0.000 A 
ATOM     10  C   UNL     1       4.186   4.272  17.553  0.00  0.00    +0.000 A 
ENDROOT
BRANCH   5  11
ATOM     11  C   UNL     1       1.634   7.555  20.348  0.00  0.00    +0.000 A 
ATOM     12  C   UNL     1       1.066   7.842  21.602  0.00  0.00    +0.000 A 
ATOM     13  C   UNL     1       0.530   9.102  21.895  0.00  0.00    +0.000 A 
ATOM     14  C   UNL     1       0.596  10.128  20.955  0.00  0.00    +0.000 A 
ATOM     15  C   UNL     1       1.160   9.890  19.701  0.00  0.00    +0.000 A 
ATOM     16  C   UNL     1       1.619   8.594  19.397  0.00  0.00    +0.000 A 
BRANCH  15  17
ATOM     17  C   UNL     1       1.331  10.997  18.688  0.00  0.00    +0.000 C 
ATOM     18  F   UNL     1       1.987  12.086  19.174  0.00  0.00    +0.000 F 
ATOM     19  F   UNL     1       2.040  10.591  17.597  0.00  0.00    +0.000 F 
ATOM     20  F   UNL     1       0.143  11.458  18.207  0.00  0.00    +0.000 F 
ENDBRANCH  15  17
ENDBRANCH   5  11
BRANCH   1  24
ATOM     21  C   UNL     1       7.203   4.655  13.949  0.00  0.00    +0.000 C 
ATOM     22  C   UNL     1       6.693   5.196  15.255  0.00  0.00    +0.000 C 
ATOM     23  O   UNL     1       7.423   5.879  15.967  0.00  0.00    +0.000 OA
ATOM     24  N   UNL     1       5.386   4.834  15.522  0.00  0.00    +0.000 N 
ATOM     25  H   UNL     1       4.933   4.144  14.928  0.00  0.00    +0.000 HD
ENDBRANCH   1  24
BRANCH  10  26
ATOM     26  O   UNL     1       4.537   2.950  17.336  0.00  0.00    +0.000 OA
ATOM     27  H   UNL     1       3.927   2.668  16.617  0.00  0.00    +0.000 HD
ENDBRANCH  10  26
TORSDOF 4
ENDMDL
MODEL 6
REMARK VINA RESULT:      -8.0      3.410      4.907
REMARK  Name = 
REMARK  5 active torsions:
REMARK  status: ('A' for Active; 'I' for Inactive)
REMARK    1  A    between atoms: C_1  and  C_2
REMARK    2  A    between atoms: N_4  and  C_5
REMARK    3  A    between atoms: C_9  and  C_10
REMARK    4  A    between atoms: C_14  and  C_15
REMARK    5  A    between atoms: C_24  and  O_25
REMARK                            x       y       z     vdW  Elec       q    Type
REMARK                         _______ _______ _______ _____ _____    ______ ____
ROOT
ATOM      1  C   UNL     1       1.347  10.397  18.563  0.00  0.00    +0.000 A 
ATOM      2  C   UNL     1       2.165   9.756  17.648  0.00  0.00    +0.000 A 
ATOM      3  C   UNL     1       2.557   8.435  17.856  0.00  0.00    +0.000 A 
ATOM      4  C   UNL     1       2.207   7.717  19.024  0.00  0.00    +0.000 A 
ATOM      5  C   UNL     1       2.657   6.389  19.333  0.00  0.00    +0.000 A 
ATOM      6  C   UNL     1       2.151   5.794  20.501  0.00  0.00    +0.000 A 
ATOM      7  C   UNL     1       1.270   6.501  21.301  0.00  0.00    +0.000 A 
ATOM      8  N   UNL     1       0.880   7.765  21.061  0.00  0.00    +0.000 NA
ATOM      9  C   UNL     1       1.348   8.362  19.944  0.00  0.00    +0.000 A 
ATOM     10  C   UNL     1       0.951   9.680  19.698  0.00  0.00    +0.000 A 
ENDROOT
BRANCH   5  11
ATOM     11  C   UNL     1       3.646   5.626  18.511  0.00  0.00    +0.000 A 
ATOM     12  C   UNL     1       3.231   4.766  17.478  0.00  0.00    +0.000 A 
ATOM     13  C   UNL     1       4.150   4.044  16.709  0.00  0.00    +0.000 A 
ATOM     14  C   UNL     1       5.518   4.205  16.917  0.00  0.00    +0.000 A 
ATOM     15  C   UNL     1       5.975   5.056  17.925  0.00  0.00    +0.000 A 
ATOM     16  C   UNL     1       5.033   5.709  18.742  0.00  0.00    +0.000 A 
BRANCH  15  17
ATOM     17  C   UNL     1       7.448   5.325  18.125  0.00  0.00    +0.000 C 
ATOM     18  F   UNL     1       7.889   6.448  17.494  0.00  0.00    +0.000 F 
ATOM     19  F   UNL     1       7.767   5.487  19.440  0.00  0.00    +0.000 F 
ATOM     20  F   UNL     1       8.235   4.308  17.675  0.00  0.00    +0.000 F 
ENDBRANCH  15  17
ENDBRANCH   5  11
BRANCH   1  24
ATOM     21  C   UNL     1       0.731  14.120  18.625  0.00  0.00    +0.000 C 
ATOM     22  C   UNL     1       1.492  12.860  18.923  0.00  0.00    +0.000 C 
ATOM     23  O   UNL     1       2.536  12.907  19.569  0.00  0.00    +0.000 OA
ATOM     24  N   UNL     1       0.898  11.727  18.399  0.00  0.00    +0.000 N 
ATOM     25  H   UNL     1       0.116  11.830  17.758  0.00  0.00    +0.000 HD
ENDBRANCH   1  24
BRANCH  10  26
ATOM     26  O   UNL     1       0.120  10.300  20.617  0.00  0.00    +0.000 OA
ATOM     27  H   UNL     1       0.702  10.425  21.400  0.00  0.00    +0.000 HD
ENDBRANCH  10  26
TORSDOF 4
ENDMDL
MODEL 7
REMARK VINA RESULT:      -7.9      3.267      4.732
REMARK  Name = 
REMARK  5 active torsions:
REMARK  status: ('A' for Active; 'I' for Inactive)
REMARK    1  A    between atoms: C_1  and  C_2
REMARK    2  A    between atoms: N_4  and  C_5
REMARK    3  A    between atoms: C_9  and  C_10
REMARK    4  A    between atoms: C_14  and  C_15
REMARK    5  A    between atoms: C_24  and  O_25
REMARK                            x       y       z     vdW  Elec       q    Type
REMARK                         _______ _______ _______ _____ _____    ______ ____
ROOT
ATOM      1  C   UNL     1       1.402  10.291  18.691  0.00  0.00    +0.000 A 
ATOM      2  C   UNL     1       2.199   9.669  17.745  0.00  0.00    +0.000 A 
ATOM      3  C   UNL     1       2.576   8.337  17.906  0.00  0.00    +0.000 A 
ATOM      4  C   UNL     1       2.232   7.587  19.056  0.00  0.00    +0.000 A 
ATOM      5  C   UNL     1       2.668   6.244  19.317  0.00  0.00    +0.000 A 
ATOM      6  C   UNL     1       2.169   5.620  20.472  0.00  0.00    +0.000 A 
ATOM      7  C   UNL     1       1.308   6.312  21.305  0.00  0.00    +0.000 A 
ATOM      8  N   UNL     1       0.932   7.588  21.110  0.00  0.00    +0.000 NA
ATOM      9  C   UNL     1       1.394   8.214  20.007  0.00  0.00    +0.000 A 
ATOM     10  C   UNL     1       1.011   9.544  19.807  0.00  0.00    +0.000 A 
ENDROOT
BRANCH   5  11
ATOM     11  C   UNL     1       3.635   5.495  18.458  0.00  0.00    +0.000 A 
ATOM     12  C   UNL     1       3.194   4.618  17.451  0.00  0.00    +0.000 A 
ATOM     13  C   UNL     1       4.094   3.908  16.647  0.00  0.00    +0.000 A 
ATOM     14  C   UNL     1       5.465   4.098  16.795  0.00  0.00    +0.000 A 
ATOM     15  C   UNL     1       5.949   4.968  17.775  0.00  0.00    +0.000 A 
ATOM     16  C   UNL     1       5.029   5.609  18.627  0.00  0.00    +0.000 A 
BRANCH  15  17
ATOM     17  C   UNL     1       7.423   5.268  17.908  0.00  0.00    +0.000 C 
ATOM     18  F   UNL     1       7.829   5.450  19.195  0.00  0.00    +0.000 F 
ATOM     19  F   UNL     1       8.200   4.265  17.411  0.00  0.00    +0.000 F 
ATOM     20  F   UNL     1       7.794   6.393  17.235  0.00  0.00    +0.000 F 
ENDBRANCH  15  17
ENDBRANCH   5  11
BRANCH   1  24
ATOM     21  C   UNL     1      -0.454  13.546  18.226  0.00  0.00    +0.000 C 
ATOM     22  C   UNL     1      -0.332  12.056  18.380  0.00  0.00    +0.000 C 
ATOM     23  O   UNL     1      -1.334  11.347  18.335  0.00  0.00    +0.000 OA
ATOM     24  N   UNL     1       0.969  11.631  18.574  0.00  0.00    +0.000 N 
ATOM     25  H   UNL     1       1.695  12.323  18.740  0.00  0.00    +0.000 HD
ENDBRANCH   1  24
BRANCH  10  26
ATOM     26  O   UNL     1       0.200  10.146  20.756  0.00  0.00    +0.000 OA
ATOM     27  H   UNL     1      -0.575   9.543  20.807  0.00  0.00    +0.000 HD
ENDBRANCH  10  26
TORSDOF 4
ENDMDL
MODEL 8
REMARK VINA RESULT:      -7.9      4.503      7.542
REMARK  Name = 
REMARK  5 active torsions:
REMARK  status: ('A' for Active; 'I' for Inactive)
REMARK    1  A    between atoms: C_1  and  C_2
REMARK    2  A    between atoms: N_4  and  C_5
REMARK    3  A    between atoms: C_9  and  C_10
REMARK    4  A    between atoms: C_14  and  C_15
REMARK    5  A    between atoms: C_24  and  O_25
REMARK                            x       y       z     vdW  Elec       q    Type
REMARK                         _______ _______ _______ _____ _____    ______ ____
ROOT
ATOM      1  C   UNL     1       5.027   5.677  16.127  0.00  0.00    +0.000 A 
ATOM      2  C   UNL     1       4.559   6.933  16.476  0.00  0.00    +0.000 A 
ATOM      3  C   UNL     1       3.811   7.109  17.639  0.00  0.00    +0.000 A 
ATOM      4  C   UNL     1       3.436   6.027  18.469  0.00  0.00    +0.000 A 
ATOM      5  C   UNL     1       2.592   6.136  19.625  0.00  0.00    +0.000 A 
ATOM      6  C   UNL     1       2.383   4.971  20.381  0.00  0.00    +0.000 A 
ATOM      7  C   UNL     1       2.971   3.783  19.982  0.00  0.00    +0.000 A 
ATOM      8  N   UNL     1       3.717   3.645  18.873  0.00  0.00    +0.000 NA
ATOM      9  C   UNL     1       3.938   4.749  18.127  0.00  0.00    +0.000 A 
ATOM     10  C   UNL     1       4.707   4.606  16.968  0.00  0.00    +0.000 A 
ENDROOT
BRANCH   5  11
ATOM     11  C   UNL     1       1.907   7.397  20.046  0.00  0.00    +0.000 A 
ATOM     12  C   UNL     1       1.307   7.516  21.312  0.00  0.00    +0.000 A 
ATOM     13  C   UNL     1       0.658   8.691  21.711  0.00  0.00    +0.000 A 
ATOM     14  C   UNL     1       0.638   9.800  20.869  0.00  0.00    +0.000 A 
ATOM     15  C   UNL     1       1.230   9.730  19.607  0.00  0.00    +0.000 A 
ATOM     16  C   UNL     1       1.805   8.513  19.193  0.00  0.00    +0.000 A 
BRANCH  15  17
ATOM     17  C   UNL     1       1.307  10.936  18.701  0.00  0.00    +0.000 C 
ATOM     18  F   UNL     1       0.106  11.302  18.175  0.00  0.00    +0.000 F 
ATOM     19  F   UNL     1       1.780  12.038  19.350  0.00  0.00    +0.000 F 
ATOM     20  F   UNL     1       2.139  10.745  17.640  0.00  0.00    +0.000 F 
ENDBRANCH  15  17
ENDBRANCH   5  11
BRANCH   1  24
ATOM     21  C   UNL     1       7.688   4.907  13.564  0.00  0.00    +0.000 C 
ATOM     22  C   UNL     1       7.116   4.996  14.950  0.00  0.00    +0.000 C 
ATOM     23  O   UNL     1       7.801   4.683  15.921  0.00  0.00    +0.000 OA
ATOM     24  N   UNL     1       5.807   5.438  14.973  0.00  0.00    +0.000 N 
ATOM     25  H   UNL     1       5.299   5.524  14.097  0.00  0.00    +0.000 HD
ENDBRANCH   1  24
BRANCH  10  26
ATOM     26  O   UNL     1       5.178   3.344  16.642  0.00  0.00    +0.000 OA
ATOM     27  H   UNL     1       4.484   2.991  16.041  0.00  0.00    +0.000 HD
ENDBRANCH  10  26
TORSDOF 4
ENDMDL
MODEL 9
REMARK VINA RESULT:      -7.9      2.062      3.010
REMARK  Name = 
REMARK  5 active torsions:
REMARK  status: ('A' for Active; 'I' for Inactive)
REMARK    1  A    between atoms: C_1  and  C_2
REMARK    2  A    between atoms: N_4  and  C_5
REMARK    3  A    between atoms: C_9  and  C_10
REMARK    4  A    between atoms: C_14  and  C_15
REMARK    5  A    between atoms: C_24  and  O_25
REMARK                            x       y       z     vdW  Elec       q    Type
REMARK                         _______ _______ _______ _____ _____    ______ ____
ROOT
ATOM      1  C   UNL     1       1.514   9.129  18.954  0.00  0.00    +0.000 A 
ATOM      2  C   UNL     1       2.535   8.953  18.035  0.00  0.00    +0.000 A 
ATOM      3  C   UNL     1       3.267   7.767  18.013  0.00  0.00    +0.000 A 
ATOM      4  C   UNL     1       3.059   6.732  18.954  0.00  0.00    +0.000 A 
ATOM      5  C   UNL     1       3.842   5.531  19.035  0.00  0.00    +0.000 A 
ATOM      6  C   UNL     1       3.449   4.570  19.982  0.00  0.00    +0.000 A 
ATOM      7  C   UNL     1       2.356   4.819  20.794  0.00  0.00    +0.000 A 
ATOM      8  N   UNL     1       1.644   5.959  20.774  0.00  0.00    +0.000 NA
ATOM      9  C   UNL     1       1.997   6.900  19.873  0.00  0.00    +0.000 A 
ATOM     10  C   UNL     1       1.263   8.090  19.857  0.00  0.00    +0.000 A 
ENDROOT
BRANCH   5  11
ATOM     11  C   UNL     1       5.054   5.264  18.202  0.00  0.00    +0.000 A 
ATOM     12  C   UNL     1       6.338   5.213  18.774  0.00  0.00    +0.000 A 
ATOM     13  C   UNL     1       7.479   4.970  18.000  0.00  0.00    +0.000 A 
ATOM     14  C   UNL     1       7.359   4.717  16.636  0.00  0.00    +0.000 A 
ATOM     15  C   UNL     1       6.103   4.746  16.028  0.00  0.00    +0.000 A 
ATOM     16  C   UNL     1       4.978   5.074  16.809  0.00  0.00    +0.000 A 
BRANCH  15  17
ATOM     17  C   UNL     1       5.920   4.390  14.572  0.00  0.00    +0.000 C 
ATOM     18  F   UNL     1       4.657   4.604  14.112  0.00  0.00    +0.000 F 
ATOM     19  F   UNL     1       6.739   5.115  13.758  0.00  0.00    +0.000 F 
ATOM     20  F   UNL     1       6.199   3.083  14.310  0.00  0.00    +0.000 F 
ENDBRANCH  15  17
ENDBRANCH   5  11
BRANCH   1  24
ATOM     21  C   UNL     1      -1.002  11.911  18.528  0.00  0.00    +0.000 C 
ATOM     22  C   UNL     1      -0.431  10.542  18.292  0.00  0.00    +0.000 C 
ATOM     23  O   UNL     1      -0.992   9.764  17.524  0.00  0.00    +0.000 OA
ATOM     24  N   UNL     1       0.722  10.298  19.013  0.00  0.00    +0.000 N 
ATOM     25  H   UNL     1       1.008  10.963  19.727  0.00  0.00    +0.000 HD
ENDBRANCH   1  24
BRANCH  10  26
ATOM     26  O   UNL     1       0.235   8.242  20.773  0.00  0.00    +0.000 OA
ATOM     27  H   UNL     1      -0.038   9.180  20.655  0.00  0.00    +0.000 HD
ENDBRANCH  10  26
TORSDOF 4
ENDMDL
