MODEL 1
REMARK VINA RESULT:      -7.9      0.000      0.000
REMARK  Name = 
REMARK  2 active torsions:
REMARK  status: ('A' for Active; 'I' for Inactive)
REMARK    1  A    between atoms: N_11  and  C_12
REMARK    2  A    between atoms: C_12  and  C_13
REMARK                            x       y       z     vdW  Elec       q    Type
REMARK                         _______ _______ _______ _____ _____    ______ ____
ROOT
ATOM      1  O   UNL     1       2.838   8.385  17.183  0.00  0.00    +0.000 OA
ATOM      2  C   UNL     1       2.208   8.674  18.192  0.00  0.00    +0.000 C 
ATOM      3  C   UNL     1       1.471   9.976  18.305  0.00  0.00    +0.000 C 
ATOM      4  C   UNL     1       0.869   9.962  19.689  0.00  0.00    +0.000 C 
ATOM      5  C   UNL     1       1.235   8.620  20.262  0.00  0.00    +0.000 C 
ATOM      6  O   UNL     1       0.932   8.312  21.406  0.00  0.00    +0.000 OA
ATOM      7  N   UNL     1       1.980   7.949  19.330  0.00  0.00    +0.000 N 
ATOM      8  C   UNL     1       2.483   6.682  19.535  0.00  0.00    +0.000 A 
ATOM      9  N   UNL     1       1.960   5.843  20.492  0.00  0.00    +0.000 NA
ATOM     10  C   UNL     1       2.676   4.748  20.392  0.00  0.00    +0.000 A 
ATOM     11  N   UNL     1       3.632   4.928  19.447  0.00  0.00    +0.000 N 
ATOM     12  N   UNL     1       3.498   6.128  18.855  0.00  0.00    +0.000 NA
ENDROOT
BRANCH  11  13
ATOM     13  C   UNL     1       4.809   4.111  19.202  0.00  0.00    +0.000 C 
BRANCH  13  14
ATOM     14  C   UNL     1       5.452   4.402  17.868  0.00  0.00    +0.000 A 
ATOM     15  C   UNL     1       4.821   3.941  16.695  0.00  0.00    +0.000 A 
ATOM     16  C   UNL     1       5.376   4.190  15.440  0.00  0.00    +0.000 A 
ATOM     17  C   UNL     1       6.567   4.897  15.347  0.00  0.00    +0.000 A 
ATOM     18  F   UNL     1       7.103   5.132  14.142  0.00  0.00    +0.000 F 
ATOM     19  C   UNL     1       7.210   5.367  16.483  0.00  0.00    +0.000 A 
ATOM     20  C   UNL     1       6.655   5.119  17.741  0.00  0.00    +0.000 A 
ATOM     21 CL   UNL     1       7.495   5.744  19.115  0.00  0.00    +0.000 Cl
ENDBRANCH  13  14
ENDBRANCH  11  13
TORSDOF 2
ENDMDL
MODEL 2
REMARK VINA RESULT:      -7.8      4.449      6.792
REMARK  Name = 
REMARK  2 active torsions:
REMARK  status: ('A' for Active; 'I' for Inactive)
REMARK    1  A    between atoms: N_11  and  C_12
REMARK    2  A    between atoms: C_12  and  C_13
REMARK                            x       y       z     vdW  Elec       q    Type
REMARK                         _______ _______ _______ _____ _____    ______ ____
ROOT
ATOM      1  O   UNL     1       4.831   3.331  13.946  0.00  0.00    +0.000 OA
ATOM      2  C   UNL     1       5.835   3.898  13.537  0.00  0.00    +0.000 C 
ATOM      3  C   UNL     1       6.276   3.771  12.110  0.00  0.00    +0.000 C 
ATOM      4  C   UNL     1       7.552   4.573  12.024  0.00  0.00    +0.000 C 
ATOM      5  C   UNL     1       7.729   5.175  13.392  0.00  0.00    +0.000 C 
ATOM      6  O   UNL     1       8.709   5.853  13.668  0.00  0.00    +0.000 OA
ATOM      7  N   UNL     1       6.693   4.751  14.179  0.00  0.00    +0.000 N 
ATOM      8  C   UNL     1       6.549   5.116  15.501  0.00  0.00    +0.000 A 
ATOM      9  N   UNL     1       7.180   6.225  16.016  0.00  0.00    +0.000 NA
ATOM     10  C   UNL     1       6.811   6.255  17.274  0.00  0.00    +0.000 A 
ATOM     11  N   UNL     1       6.027   5.179  17.532  0.00  0.00    +0.000 N 
ATOM     12  N   UNL     1       5.806   4.470  16.411  0.00  0.00    +0.000 NA
ENDROOT
BRANCH  11  13
ATOM     13  C   UNL     1       5.632   4.654  18.829  0.00  0.00    +0.000 C 
BRANCH  13  14
ATOM     14  C   UNL     1       4.234   4.085  18.825  0.00  0.00    +0.000 A 
ATOM     15  C   UNL     1       4.066   2.694  18.986  0.00  0.00    +0.000 A 
ATOM     16  C   UNL     1       2.793   2.125  18.994  0.00  0.00    +0.000 A 
ATOM     17  C   UNL     1       1.679   2.938  18.837  0.00  0.00    +0.000 A 
ATOM     18  F   UNL     1       0.456   2.391  18.839  0.00  0.00    +0.000 F 
ATOM     19  C   UNL     1       1.812   4.310  18.680  0.00  0.00    +0.000 A 
ATOM     20  C   UNL     1       3.086   4.882  18.672  0.00  0.00    +0.000 A 
ATOM     21 CL   UNL     1       3.184   6.597  18.489  0.00  0.00    +0.000 Cl
ENDBRANCH  13  14
ENDBRANCH  11  13
TORSDOF 2
ENDMDL
MODEL 3
REMARK VINA RESULT:      -7.7      1.256      1.636
REMARK  Name = 
REMARK  2 active torsions:
REMARK  status: ('A' for Active; 'I' for Inactive)
REMARK    1  A    between atoms: N_11  and  C_12
REMARK    2  A    between atoms: C_12  and  C_13
REMARK                            x       y       z     vdW  Elec       q    Type
REMARK                         _______ _______ _______ _____ _____    ______ ____
ROOT
ATOM      1  O   UNL     1       2.829   8.304  17.251  0.00  0.00    +0.000 OA
ATOM      2  C   UNL     1       2.193   8.660  18.234  0.00  0.00    +0.000 C 
ATOM      3  C   UNL     1       1.504   9.991  18.276  0.00  0.00    +0.000 C 
ATOM      4  C   UNL     1       0.877  10.061  19.648  0.00  0.00    +0.000 C 
ATOM      5  C   UNL     1       1.182   8.732  20.286  0.00  0.00    +0.000 C 
ATOM      6  O   UNL     1       0.847   8.486  21.436  0.00  0.00    +0.000 OA
ATOM      7  N   UNL     1       1.917   7.994  19.398  0.00  0.00    +0.000 N 
ATOM      8  C   UNL     1       2.369   6.720  19.666  0.00  0.00    +0.000 A 
ATOM      9  N   UNL     1       1.797   5.943  20.648  0.00  0.00    +0.000 NA
ATOM     10  C   UNL     1       2.473   4.819  20.609  0.00  0.00    +0.000 A 
ATOM     11  N   UNL     1       3.452   4.922  19.677  0.00  0.00    +0.000 N 
ATOM     12  N   UNL     1       3.374   6.099  19.031  0.00  0.00    +0.000 NA
ENDROOT
BRANCH  11  13
ATOM     13  C   UNL     1       4.601   4.052  19.490  0.00  0.00    +0.000 C 
BRANCH  13  14
ATOM     14  C   UNL     1       5.255   4.232  18.141  0.00  0.00    +0.000 A 
ATOM     15  C   UNL     1       6.571   4.733  18.086  0.00  0.00    +0.000 A 
ATOM     16  C   UNL     1       7.216   4.911  16.862  0.00  0.00    +0.000 A 
ATOM     17  C   UNL     1       6.552   4.594  15.685  0.00  0.00    +0.000 A 
ATOM     18  F   UNL     1       7.169   4.770  14.510  0.00  0.00    +0.000 F 
ATOM     19  C   UNL     1       5.257   4.095  15.708  0.00  0.00    +0.000 A 
ATOM     20  C   UNL     1       4.609   3.916  16.933  0.00  0.00    +0.000 A 
ATOM     21 CL   UNL     1       3.006   3.276  16.895  0.00  0.00    +0.000 Cl
ENDBRANCH  13  14
ENDBRANCH  11  13
TORSDOF 2
ENDMDL
MODEL 4
REMARK VINA RESULT:      -7.5      3.389      4.613
REMARK  Name = 
REMARK  2 active torsions:
REMARK  status: ('A' for Active; 'I' for Inactive)
REMARK    1  A    between atoms: N_11  and  C_12
REMARK    2  A    between atoms: C_12  and  C_13
REMARK                            x       y       z     vdW  Elec       q    Type
REMARK                         _______ _______ _______ _____ _____    ______ ____
ROOT
ATOM      1  O   UNL     1       0.841  10.187  22.019  0.00  0.00    +0.000 OA
ATOM      2  C   UNL     1       0.154  10.469  21.046  0.00  0.00    +0.000 C 
ATOM      3  C   UNL     1      -0.935  11.497  21.131  0.00  0.00    +0.000 C 
ATOM      4  C   UNL     1      -1.556  11.520  19.755  0.00  0.00    +0.000 C 
ATOM      5  C   UNL     1      -0.738  10.555  18.940  0.00  0.00    +0.000 C 
ATOM      6  O   UNL     1      -1.019  10.308  17.776  0.00  0.00    +0.000 OA
ATOM      7  N   UNL     1       0.224  10.022  19.754  0.00  0.00    +0.000 N 
ATOM      8  C   UNL     1       1.149   9.094  19.323  0.00  0.00    +0.000 A 
ATOM      9  N   UNL     1       1.441   8.933  17.988  0.00  0.00    +0.000 NA
ATOM     10  C   UNL     1       2.349   7.986  17.965  0.00  0.00    +0.000 A 
ATOM     11  N   UNL     1       2.566   7.549  19.231  0.00  0.00    +0.000 N 
ATOM     12  N   UNL     1       1.853   8.272  20.114  0.00  0.00    +0.000 NA
ENDROOT
BRANCH  11  13
ATOM     13  C   UNL     1       3.258   6.342  19.651  0.00  0.00    +0.000 C 
BRANCH  13  14
ATOM     14  C   UNL     1       2.483   5.086  19.334  0.00  0.00    +0.000 A 
ATOM     15  C   UNL     1       1.493   4.653  20.238  0.00  0.00    +0.000 A 
ATOM     16  C   UNL     1       0.749   3.501  19.983  0.00  0.00    +0.000 A 
ATOM     17  C   UNL     1       0.990   2.771  18.828  0.00  0.00    +0.000 A 
ATOM     18  F   UNL     1       0.280   1.662  18.585  0.00  0.00    +0.000 F 
ATOM     19  C   UNL     1       1.956   3.175  17.917  0.00  0.00    +0.000 A 
ATOM     20  C   UNL     1       2.702   4.329  18.170  0.00  0.00    +0.000 A 
ATOM     21 CL   UNL     1       3.877   4.787  16.990  0.00  0.00    +0.000 Cl
ENDBRANCH  13  14
ENDBRANCH  11  13
TORSDOF 2
ENDMDL
MODEL 5
REMARK VINA RESULT:      -7.5      4.262      6.838
REMARK  Name = 
REMARK  2 active torsions:
REMARK  status: ('A' for Active; 'I' for Inactive)
REMARK    1  A    between atoms: N_11  and  C_12
REMARK    2  A    between atoms: C_12  and  C_13
REMARK                            x       y       z     vdW  Elec       q    Type
REMARK                         _______ _______ _______ _____ _____    ______ ____
ROOT
ATOM      1  O   UNL     1       4.908   3.273  14.325  0.00  0.00    +0.000 OA
ATOM      2  C   UNL     1       5.859   3.857  13.824  0.00  0.00    +0.000 C 
ATOM      3  C   UNL     1       6.197   3.695  12.372  0.00  0.00    +0.000 C 
ATOM      4  C   UNL     1       7.435   4.535  12.165  0.00  0.00    +0.000 C 
ATOM      5  C   UNL     1       7.692   5.188  13.497  0.00  0.00    +0.000 C 
ATOM      6  O   UNL     1       8.665   5.906  13.676  0.00  0.00    +0.000 OA
ATOM      7  N   UNL     1       6.732   4.758  14.372  0.00  0.00    +0.000 N 
ATOM      8  C   UNL     1       6.674   5.164  15.688  0.00  0.00    +0.000 A 
ATOM      9  N   UNL     1       7.303   6.310  16.119  0.00  0.00    +0.000 NA
ATOM     10  C   UNL     1       7.027   6.371  17.400  0.00  0.00    +0.000 A 
ATOM     11  N   UNL     1       6.302   5.280  17.751  0.00  0.00    +0.000 N 
ATOM     12  N   UNL     1       6.023   4.526  16.672  0.00  0.00    +0.000 NA
ENDROOT
BRANCH  11  13
ATOM     13  C   UNL     1       6.023   4.787  19.089  0.00  0.00    +0.000 C 
BRANCH  13  14
ATOM     14  C   UNL     1       4.544   4.697  19.380  0.00  0.00    +0.000 A 
ATOM     15  C   UNL     1       3.761   5.865  19.284  0.00  0.00    +0.000 A 
ATOM     16  C   UNL     1       2.390   5.827  19.539  0.00  0.00    +0.000 A 
ATOM     17  C   UNL     1       1.792   4.627  19.894  0.00  0.00    +0.000 A 
ATOM     18  F   UNL     1       0.477   4.591  20.144  0.00  0.00    +0.000 F 
ATOM     19  C   UNL     1       2.536   3.460  19.993  0.00  0.00    +0.000 A 
ATOM     20  C   UNL     1       3.909   3.495  19.738  0.00  0.00    +0.000 A 
ATOM     21 CL   UNL     1       4.776   2.006  19.861  0.00  0.00    +0.000 Cl
ENDBRANCH  13  14
ENDBRANCH  11  13
TORSDOF 2
ENDMDL
MODEL 6
REMARK VINA RESULT:      -7.5      4.484      6.766
REMARK  Name = 
REMARK  2 active torsions:
REMARK  status: ('A' for Active; 'I' for Inactive)
REMARK    1  A    between atoms: N_11  and  C_12
REMARK    2  A    between atoms: C_12  and  C_13
REMARK                            x       y       z     vdW  Elec       q    Type
REMARK                         _______ _______ _______ _____ _____    ______ ____
ROOT
ATOM      1  O   UNL     1       4.710   3.258  13.929  0.00  0.00    +0.000 OA
ATOM      2  C   UNL     1       5.725   3.828  13.552  0.00  0.00    +0.000 C 
ATOM      3  C   UNL     1       6.242   3.657  12.154  0.00  0.00    +0.000 C 
ATOM      4  C   UNL     1       7.507   4.479  12.105  0.00  0.00    +0.000 C 
ATOM      5  C   UNL     1       7.603   5.133  13.458  0.00  0.00    +0.000 C 
ATOM      6  O   UNL     1       8.556   5.837  13.758  0.00  0.00    +0.000 OA
ATOM      7  N   UNL     1       6.534   4.718  14.205  0.00  0.00    +0.000 N 
ATOM      8  C   UNL     1       6.316   5.128  15.503  0.00  0.00    +0.000 A 
ATOM      9  N   UNL     1       6.902   6.266  16.009  0.00  0.00    +0.000 NA
ATOM     10  C   UNL     1       6.467   6.334  17.245  0.00  0.00    +0.000 A 
ATOM     11  N   UNL     1       5.688   5.254  17.502  0.00  0.00    +0.000 N 
ATOM     12  N   UNL     1       5.537   4.501  16.397  0.00  0.00    +0.000 NA
ENDROOT
BRANCH  11  13
ATOM     13  C   UNL     1       5.235   4.768  18.795  0.00  0.00    +0.000 C 
BRANCH  13  14
ATOM     14  C   UNL     1       3.889   4.089  18.722  0.00  0.00    +0.000 A 
ATOM     15  C   UNL     1       2.848   4.718  18.009  0.00  0.00    +0.000 A 
ATOM     16  C   UNL     1       1.589   4.125  17.912  0.00  0.00    +0.000 A 
ATOM     17  C   UNL     1       1.359   2.903  18.527  0.00  0.00    +0.000 A 
ATOM     18  F   UNL     1       0.149   2.335  18.438  0.00  0.00    +0.000 F 
ATOM     19  C   UNL     1       2.365   2.257  19.232  0.00  0.00    +0.000 A 
ATOM     20  C   UNL     1       3.626   2.849  19.331  0.00  0.00    +0.000 A 
ATOM     21 CL   UNL     1       4.839   1.988  20.208  0.00  0.00    +0.000 Cl
ENDBRANCH  13  14
ENDBRANCH  11  13
TORSDOF 2
ENDMDL
MODEL 7
REMARK VINA RESULT:      -7.3      3.502      6.441
REMARK  Name = 
REMARK  2 active torsions:
REMARK  status: ('A' for Active; 'I' for Inactive)
REMARK    1  A    between atoms: N_11  and  C_12
REMARK    2  A    between atoms: C_12  and  C_13
REMARK                            x       y       z     vdW  Elec       q    Type
REMARK                         _______ _______ _______ _____ _____    ______ ____
ROOT
ATOM      1  O   UNL     1       6.736   5.338  19.760  0.00  0.00    +0.000 OA
ATOM      2  C   UNL     1       6.587   5.023  18.587  0.00  0.00    +0.000 C 
ATOM      3  C   UNL     1       7.756   4.655  17.723  0.00  0.00    +0.000 C 
ATOM      4  C   UNL     1       7.163   4.375  16.364  0.00  0.00    +0.000 C 
ATOM      5  C   UNL     1       5.677   4.528  16.546  0.00  0.00    +0.000 C 
ATOM      6  O   UNL     1       4.904   4.411  15.605  0.00  0.00    +0.000 OA
ATOM      7  N   UNL     1       5.443   4.878  17.848  0.00  0.00    +0.000 N 
ATOM      8  C   UNL     1       4.181   5.100  18.356  0.00  0.00    +0.000 A 
ATOM      9  N   UNL     1       3.056   4.610  17.734  0.00  0.00    +0.000 NA
ATOM     10  C   UNL     1       2.063   5.009  18.493  0.00  0.00    +0.000 A 
ATOM     11  N   UNL     1       2.556   5.758  19.511  0.00  0.00    +0.000 N 
ATOM     12  N   UNL     1       3.901   5.788  19.473  0.00  0.00    +0.000 NA
ENDROOT
BRANCH  11  13
ATOM     13  C   UNL     1       1.823   6.629  20.414  0.00  0.00    +0.000 C 
BRANCH  13  14
ATOM     14  C   UNL     1       1.623   8.016  19.851  0.00  0.00    +0.000 A 
ATOM     15  C   UNL     1       2.082   8.291  18.547  0.00  0.00    +0.000 A 
ATOM     16  C   UNL     1       1.914   9.557  17.984  0.00  0.00    +0.000 A 
ATOM     17  C   UNL     1       1.291  10.556  18.719  0.00  0.00    +0.000 A 
ATOM     18  F   UNL     1       1.134  11.772  18.180  0.00  0.00    +0.000 F 
ATOM     19  C   UNL     1       0.825  10.313  20.003  0.00  0.00    +0.000 A 
ATOM     20  C   UNL     1       0.991   9.046  20.568  0.00  0.00    +0.000 A 
ATOM     21 CL   UNL     1       0.375   8.803  22.163  0.00  0.00    +0.000 Cl
ENDBRANCH  13  14
ENDBRANCH  11  13
TORSDOF 2
ENDMDL
MODEL 8
REMARK VINA RESULT:      -7.2      2.791      3.579
REMARK  Name = 
REMARK  2 active torsions:
REMARK  status: ('A' for Active; 'I' for Inactive)
REMARK    1  A    between atoms: N_11  and  C_12
REMARK    2  A    between atoms: C_12  and  C_13
REMARK                            x       y       z     vdW  Elec       q    Type
REMARK                         _______ _______ _______ _____ _____    ______ ____
ROOT
ATOM      1  O   UNL     1      -0.161  11.017  18.873  0.00  0.00    +0.000 OA
ATOM      2  C   UNL     1      -0.206  10.977  20.095  0.00  0.00    +0.000 C 
ATOM      3  C   UNL     1      -0.938  12.022  20.883  0.00  0.00    +0.000 C 
ATOM      4  C   UNL     1      -0.725  11.640  22.328  0.00  0.00    +0.000 C 
ATOM      5  C   UNL     1       0.056  10.354  22.282  0.00  0.00    +0.000 C 
ATOM      6  O   UNL     1       0.434   9.802  23.305  0.00  0.00    +0.000 OA
ATOM      7  N   UNL     1       0.287  10.045  20.969  0.00  0.00    +0.000 N 
ATOM      8  C   UNL     1       0.983   8.925  20.568  0.00  0.00    +0.000 A 
ATOM      9  N   UNL     1       1.147   7.841  21.399  0.00  0.00    +0.000 NA
ATOM     10  C   UNL     1       1.842   6.986  20.687  0.00  0.00    +0.000 A 
ATOM     11  N   UNL     1       2.135   7.544  19.486  0.00  0.00    +0.000 N 
ATOM     12  N   UNL     1       1.558   8.753  19.369  0.00  0.00    +0.000 NA
ENDROOT
BRANCH  11  13
ATOM     13  C   UNL     1       3.108   7.091  18.506  0.00  0.00    +0.000 C 
BRANCH  13  14
ATOM     14  C   UNL     1       3.104   5.591  18.331  0.00  0.00    +0.000 A 
ATOM     15  C   UNL     1       1.937   4.967  17.845  0.00  0.00    +0.000 A 
ATOM     16  C   UNL     1       1.889   3.585  17.664  0.00  0.00    +0.000 A 
ATOM     17  C   UNL     1       3.003   2.816  17.969  0.00  0.00    +0.000 A 
ATOM     18  F   UNL     1       2.956   1.488  17.800  0.00  0.00    +0.000 F 
ATOM     19  C   UNL     1       4.167   3.401  18.446  0.00  0.00    +0.000 A 
ATOM     20  C   UNL     1       4.217   4.786  18.628  0.00  0.00    +0.000 A 
ATOM     21 CL   UNL     1       5.700   5.456  19.208  0.00  0.00    +0.000 Cl
ENDBRANCH  13  14
ENDBRANCH  11  13
TORSDOF 2
ENDMDL
MODEL 9
REMARK VINA RESULT:      -7.2      2.388      3.637
REMARK  Name = 
REMARK  2 active torsions:
REMARK  status: ('A' for Active; 'I' for Inactive)
REMARK    1  A    between atoms: N_11  and  C_12
REMARK    2  A    between atoms: C_12  and  C_13
REMARK                            x       y       z     vdW  Elec       q    Type
REMARK                         _______ _______ _______ _____ _____    ______ ____
ROOT
ATOM      1  O   UNL     1       0.753   9.581  22.853  0.00  0.00    +0.000 OA
ATOM      2  C   UNL     1       0.324  10.214  21.898  0.00  0.00    +0.000 C 
ATOM      3  C   UNL     1      -0.487  11.461  22.090  0.00  0.00    +0.000 C 
ATOM      4  C   UNL     1      -0.849  11.908  20.694  0.00  0.00    +0.000 C 
ATOM      5  C   UNL     1      -0.160  10.931  19.779  0.00  0.00    +0.000 C 
ATOM      6  O   UNL     1      -0.295  10.991  18.565  0.00  0.00    +0.000 OA
ATOM      7  N   UNL     1       0.499  10.016  20.555  0.00  0.00    +0.000 N 
ATOM      8  C   UNL     1       1.234   8.973  20.033  0.00  0.00    +0.000 A 
ATOM      9  N   UNL     1       1.697   8.994  18.737  0.00  0.00    +0.000 NA
ATOM     10  C   UNL     1       2.344   7.860  18.604  0.00  0.00    +0.000 A 
ATOM     11  N   UNL     1       2.239   7.151  19.755  0.00  0.00    +0.000 N 
ATOM     12  N   UNL     1       1.582   7.858  20.692  0.00  0.00    +0.000 NA
ENDROOT
BRANCH  11  13
ATOM     13  C   UNL     1       2.544   5.746  19.969  0.00  0.00    +0.000 C 
BRANCH  13  14
ATOM     14  C   UNL     1       3.511   5.199  18.947  0.00  0.00    +0.000 A 
ATOM     15  C   UNL     1       4.889   5.445  19.116  0.00  0.00    +0.000 A 
ATOM     16  C   UNL     1       5.819   4.955  18.199  0.00  0.00    +0.000 A 
ATOM     17  C   UNL     1       5.381   4.218  17.107  0.00  0.00    +0.000 A 
ATOM     18  F   UNL     1       6.274   3.752  16.224  0.00  0.00    +0.000 F 
ATOM     19  C   UNL     1       4.032   3.956  16.917  0.00  0.00    +0.000 A 
ATOM     20  C   UNL     1       3.099   4.446  17.834  0.00  0.00    +0.000 A 
ATOM     21 CL   UNL     1       1.437   4.072  17.549  0.00  0.00    +0.000 Cl
ENDBRANCH  13  14
ENDBRANCH  11  13
TORSDOF 2
ENDMDL
