MODEL 1
REMARK VINA RESULT:      -8.9      0.000      0.000
REMARK  Name = 
REMARK  8 active torsions:
REMARK  status: ('A' for Active; 'I' for Inactive)
REMARK    1  A    between atoms: C_1  and  C_2
REMARK    2  A    between atoms: C_7  and  C_8
REMARK    3  A    between atoms: C_8  and  C_9
REMARK    4  A    between atoms: C_8  and  N_13
REMARK    5  A    between atoms: C_9  and  C_10
REMARK    6  A    between atoms: C_10  and  O_12
REMARK    7  A    between atoms: C_14  and  C_16
REMARK    8  A    between atoms: C_20  and  C_21
REMARK                            x       y       z     vdW  Elec       q    Type
REMARK                         _______ _______ _______ _____ _____    ______ ____
ROOT
ATOM      1  N   UNL     1       2.937   5.836  17.964  0.00  0.00    +0.000 N 
ATOM      2  C   UNL     1       2.664   6.480  19.148  0.00  0.00    +0.000 C 
ATOM      3  O   UNL     1       2.821   5.966  20.251  0.00  0.00    +0.000 OA
ATOM      4  H   UNL     1       2.658   6.239  17.076  0.00  0.00    +0.000 HD
ENDROOT
BRANCH   2   5
ATOM      5  C   UNL     1       2.104   7.854  19.058  0.00  0.00    +0.000 A 
ATOM      6  C   UNL     1       2.417   8.612  17.935  0.00  0.00    +0.000 A 
ATOM      7  C   UNL     1       1.912   9.890  17.864  0.00  0.00    +0.000 A 
ATOM      8  N   UNL     1       1.143  10.439  18.828  0.00  0.00    +0.000 NA
ATOM      9  C   UNL     1       0.779   9.686  19.892  0.00  0.00    +0.000 A 
ATOM     10  C   UNL     1       1.253   8.381  20.036  0.00  0.00    +0.000 A 
BRANCH   9  11
ATOM     11  C   UNL     1      -0.095  10.348  20.899  0.00  0.00    +0.000 A 
ATOM     12  C   UNL     1      -0.105   9.850  22.226  0.00  0.00    +0.000 A 
ATOM     13  C   UNL     1      -0.879  10.425  23.235  0.00  0.00    +0.000 A 
ATOM     14  C   UNL     1      -1.651  11.542  22.958  0.00  0.00    +0.000 A 
ATOM     15  C   UNL     1      -1.671  12.070  21.666  0.00  0.00    +0.000 A 
ATOM     16 CL   UNL     1      -2.660  13.475  21.423  0.00  0.00    +0.000 Cl
ATOM     17  C   UNL     1      -0.918  11.474  20.631  0.00  0.00    +0.000 A 
ATOM     18 CL   UNL     1      -1.092  12.120  19.020  0.00  0.00    +0.000 Cl
ENDBRANCH   9  11
ENDBRANCH   2   5
BRANCH   1  19
ATOM     19  C   UNL     1       3.532   4.506  17.924  0.00  0.00    +0.000 C 
BRANCH  19  26
ATOM     20  C   UNL     1       6.199   5.263  19.204  0.00  0.00    +0.000 C 
ATOM     21  C   UNL     1       6.088   4.825  17.766  0.00  0.00    +0.000 A 
ATOM     22  C   UNL     1       7.272   4.768  17.008  0.00  0.00    +0.000 A 
ATOM     23  C   UNL     1       7.250   4.424  15.659  0.00  0.00    +0.000 A 
ATOM     24  C   UNL     1       6.039   4.152  15.040  0.00  0.00    +0.000 A 
ATOM     25  C   UNL     1       4.856   4.202  15.776  0.00  0.00    +0.000 A 
ATOM     26  C   UNL     1       4.850   4.512  17.151  0.00  0.00    +0.000 A 
ENDBRANCH  19  26
BRANCH  19  27
ATOM     27  C   UNL     1       2.540   3.419  17.467  0.00  0.00    +0.000 C 
BRANCH  27  28
ATOM     28  C   UNL     1       1.643   2.878  18.548  0.00  0.00    +0.000 C 
ATOM     29  O   UNL     1       0.574   2.313  18.353  0.00  0.00    +0.000 OA
BRANCH  28  30
ATOM     30  O   UNL     1       2.089   3.144  19.800  0.00  0.00    +0.000 OA
ATOM     31  H   UNL     1       1.482   2.878  20.515  0.00  0.00    +0.000 HD
ENDBRANCH  28  30
ENDBRANCH  27  28
ENDBRANCH  19  27
ENDBRANCH   1  19
TORSDOF 7
ENDMDL
MODEL 2
REMARK VINA RESULT:      -8.3      0.901      1.086
REMARK  Name = 
REMARK  8 active torsions:
REMARK  status: ('A' for Active; 'I' for Inactive)
REMARK    1  A    between atoms: C_1  and  C_2
REMARK    2  A    between atoms: C_7  and  C_8
REMARK    3  A    between atoms: C_8  and  C_9
REMARK    4  A    between atoms: C_8  and  N_13
REMARK    5  A    between atoms: C_9  and  C_10
REMARK    6  A    between atoms: C_10  and  O_12
REMARK    7  A    between atoms: C_14  and  C_16
REMARK    8  A    between atoms: C_20  and  C_21
REMARK                            x       y       z     vdW  Elec       q    Type
REMARK                         _______ _______ _______ _____ _____    ______ ____
ROOT
ATOM      1  N   UNL     1       3.193   6.254  18.408  0.00  0.00    +0.000 N 
ATOM      2  C   UNL     1       2.411   6.796  19.401  0.00  0.00    +0.000 C 
ATOM      3  O   UNL     1       2.072   6.183  20.407  0.00  0.00    +0.000 OA
ATOM      4  H   UNL     1       3.330   6.741  17.529  0.00  0.00    +0.000 HD
ENDROOT
BRANCH   2   5
ATOM      5  C   UNL     1       1.924   8.186  19.196  0.00  0.00    +0.000 A 
ATOM      6  C   UNL     1       2.404   8.889  18.096  0.00  0.00    +0.000 A 
ATOM      7  C   UNL     1       1.964  10.181  17.921  0.00  0.00    +0.000 A 
ATOM      8  N   UNL     1       1.108  10.794  18.763  0.00  0.00    +0.000 NA
ATOM      9  C   UNL     1       0.585  10.097  19.798  0.00  0.00    +0.000 A 
ATOM     10  C   UNL     1       0.983   8.781  20.043  0.00  0.00    +0.000 A 
BRANCH   9  11
ATOM     11  C   UNL     1      -0.378  10.828  20.667  0.00  0.00    +0.000 A 
ATOM     12  C   UNL     1      -0.212  10.766  22.073  0.00  0.00    +0.000 A 
ATOM     13  C   UNL     1      -1.057  11.440  22.956  0.00  0.00    +0.000 A 
ATOM     14  C   UNL     1      -2.084  12.227  22.461  0.00  0.00    +0.000 A 
ATOM     15  C   UNL     1      -2.284  12.322  21.082  0.00  0.00    +0.000 A 
ATOM     16 CL   UNL     1      -3.588  13.342  20.562  0.00  0.00    +0.000 Cl
ATOM     17  C   UNL     1      -1.457  11.617  20.183  0.00  0.00    +0.000 A 
ATOM     18 CL   UNL     1      -1.848  11.692  18.484  0.00  0.00    +0.000 Cl
ENDBRANCH   9  11
ENDBRANCH   2   5
BRANCH   1  19
ATOM     19  C   UNL     1       3.768   4.919  18.516  0.00  0.00    +0.000 C 
BRANCH  19  26
ATOM     20  C   UNL     1       6.669   5.411  19.330  0.00  0.00    +0.000 C 
ATOM     21  C   UNL     1       6.287   4.933  17.954  0.00  0.00    +0.000 A 
ATOM     22  C   UNL     1       7.324   4.709  17.029  0.00  0.00    +0.000 A 
ATOM     23  C   UNL     1       7.053   4.317  15.721  0.00  0.00    +0.000 A 
ATOM     24  C   UNL     1       5.737   4.164  15.309  0.00  0.00    +0.000 A 
ATOM     25  C   UNL     1       4.696   4.380  16.212  0.00  0.00    +0.000 A 
ATOM     26  C   UNL     1       4.941   4.742  17.553  0.00  0.00    +0.000 A 
ENDBRANCH  19  26
BRANCH  19  27
ATOM     27  C   UNL     1       2.710   3.802  18.431  0.00  0.00    +0.000 C 
BRANCH  27  28
ATOM     28  C   UNL     1       3.155   2.462  18.952  0.00  0.00    +0.000 C 
ATOM     29  O   UNL     1       3.827   2.291  19.962  0.00  0.00    +0.000 OA
BRANCH  28  30
ATOM     30  O   UNL     1       2.809   1.429  18.145  0.00  0.00    +0.000 OA
ATOM     31  H   UNL     1       3.445   0.691  18.130  0.00  0.00    +0.000 HD
ENDBRANCH  28  30
ENDBRANCH  27  28
ENDBRANCH  19  27
ENDBRANCH   1  19
TORSDOF 7
ENDMDL
MODEL 3
REMARK VINA RESULT:      -8.1      1.139      1.282
REMARK  Name = 
REMARK  8 active torsions:
REMARK  status: ('A' for Active; 'I' for Inactive)
REMARK    1  A    between atoms: C_1  and  C_2
REMARK    2  A    between atoms: C_7  and  C_8
REMARK    3  A    between atoms: C_8  and  C_9
REMARK    4  A    between atoms: C_8  and  N_13
REMARK    5  A    between atoms: C_9  and  C_10
REMARK    6  A    between atoms: C_10  and  O_12
REMARK    7  A    between atoms: C_14  and  C_16
REMARK    8  A    between atoms: C_20  and  C_21
REMARK                            x       y       z     vdW  Elec       q    Type
REMARK                         _______ _______ _______ _____ _____    ______ ____
ROOT
ATOM      1  N   UNL     1       3.045   6.102  18.345  0.00  0.00    +0.000 N 
ATOM      2  C   UNL     1       2.494   6.732  19.436  0.00  0.00    +0.000 C 
ATOM      3  O   UNL     1       2.404   6.214  20.544  0.00  0.00    +0.000 OA
ATOM      4  H   UNL     1       2.970   6.505  17.418  0.00  0.00    +0.000 HD
ENDROOT
BRANCH   2   5
ATOM      5  C   UNL     1       1.942   8.096  19.223  0.00  0.00    +0.000 A 
ATOM      6  C   UNL     1       2.057   8.653  17.954  0.00  0.00    +0.000 A 
ATOM      7  C   UNL     1       1.561   9.923  17.765  0.00  0.00    +0.000 A 
ATOM      8  N   UNL     1       0.985  10.648  18.746  0.00  0.00    +0.000 NA
ATOM      9  C   UNL     1       0.809  10.089  19.966  0.00  0.00    +0.000 A 
ATOM     10  C   UNL     1       1.287   8.805  20.235  0.00  0.00    +0.000 A 
BRANCH   9  11
ATOM     11  C   UNL     1       0.137  10.936  20.989  0.00  0.00    +0.000 A 
ATOM     12  C   UNL     1      -0.643  10.306  21.991  0.00  0.00    +0.000 A 
ATOM     13  C   UNL     1      -1.288  11.024  22.999  0.00  0.00    +0.000 A 
ATOM     14  C   UNL     1      -1.150  12.402  23.058  0.00  0.00    +0.000 A 
ATOM     15  C   UNL     1      -0.388  13.066  22.095  0.00  0.00    +0.000 A 
ATOM     16 CL   UNL     1      -0.267  14.789  22.263  0.00  0.00    +0.000 Cl
ATOM     17  C   UNL     1       0.239  12.352  21.052  0.00  0.00    +0.000 A 
ATOM     18 CL   UNL     1       1.072  13.266  19.821  0.00  0.00    +0.000 Cl
ENDBRANCH   9  11
ENDBRANCH   2   5
BRANCH   1  19
ATOM     19  C   UNL     1       3.660   4.784  18.440  0.00  0.00    +0.000 C 
BRANCH  19  26
ATOM     20  C   UNL     1       6.511   5.455  19.304  0.00  0.00    +0.000 C 
ATOM     21  C   UNL     1       6.185   4.938  17.926  0.00  0.00    +0.000 A 
ATOM     22  C   UNL     1       7.252   4.765  17.025  0.00  0.00    +0.000 A 
ATOM     23  C   UNL     1       7.030   4.342  15.718  0.00  0.00    +0.000 A 
ATOM     24  C   UNL     1       5.734   4.106  15.282  0.00  0.00    +0.000 A 
ATOM     25  C   UNL     1       4.665   4.272  16.162  0.00  0.00    +0.000 A 
ATOM     26  C   UNL     1       4.861   4.664  17.502  0.00  0.00    +0.000 A 
ENDBRANCH  19  26
BRANCH  19  27
ATOM     27  C   UNL     1       2.641   3.636  18.307  0.00  0.00    +0.000 C 
BRANCH  27  28
ATOM     28  C   UNL     1       3.081   2.321  18.892  0.00  0.00    +0.000 C 
ATOM     29  O   UNL     1       3.777   2.198  19.893  0.00  0.00    +0.000 OA
BRANCH  28  30
ATOM     30  O   UNL     1       2.702   1.249  18.154  0.00  0.00    +0.000 OA
ATOM     31  H   UNL     1       3.141   0.412  18.393  0.00  0.00    +0.000 HD
ENDBRANCH  28  30
ENDBRANCH  27  28
ENDBRANCH  19  27
ENDBRANCH   1  19
TORSDOF 7
ENDMDL
MODEL 4
REMARK VINA RESULT:      -8.1      3.814      8.412
REMARK  Name = 
REMARK  8 active torsions:
REMARK  status: ('A' for Active; 'I' for Inactive)
REMARK    1  A    between atoms: C_1  and  C_2
REMARK    2  A    between atoms: C_7  and  C_8
REMARK    3  A    between atoms: C_8  and  C_9
REMARK    4  A    between atoms: C_8  and  N_13
REMARK    5  A    between atoms: C_9  and  C_10
REMARK    6  A    between atoms: C_10  and  O_12
REMARK    7  A    between atoms: C_14  and  C_16
REMARK    8  A    between atoms: C_20  and  C_21
REMARK                            x       y       z     vdW  Elec       q    Type
REMARK                         _______ _______ _______ _____ _____    ______ ____
ROOT
ATOM      1  N   UNL     1       0.573   9.117  18.039  0.00  0.00    +0.000 N 
ATOM      2  C   UNL     1       1.920   9.273  17.809  0.00  0.00    +0.000 C 
ATOM      3  O   UNL     1       2.458  10.363  17.647  0.00  0.00    +0.000 OA
ATOM      4  H   UNL     1       0.145   8.198  18.024  0.00  0.00    +0.000 HD
ENDROOT
BRANCH   2   5
ATOM      5  C   UNL     1       2.738   8.035  17.710  0.00  0.00    +0.000 A 
ATOM      6  C   UNL     1       3.989   8.128  17.111  0.00  0.00    +0.000 A 
ATOM      7  C   UNL     1       4.735   6.977  17.005  0.00  0.00    +0.000 A 
ATOM      8  N   UNL     1       4.308   5.773  17.440  0.00  0.00    +0.000 NA
ATOM      9  C   UNL     1       3.121   5.686  18.084  0.00  0.00    +0.000 A 
ATOM     10  C   UNL     1       2.306   6.810  18.229  0.00  0.00    +0.000 A 
BRANCH   9  11
ATOM     11  C   UNL     1       2.730   4.332  18.565  0.00  0.00    +0.000 A 
ATOM     12  C   UNL     1       2.898   3.225  17.697  0.00  0.00    +0.000 A 
ATOM     13  C   UNL     1       2.577   1.921  18.077  0.00  0.00    +0.000 A 
ATOM     14  C   UNL     1       2.103   1.674  19.356  0.00  0.00    +0.000 A 
ATOM     15  C   UNL     1       1.924   2.733  20.247  0.00  0.00    +0.000 A 
ATOM     16 CL   UNL     1       1.337   2.319  21.827  0.00  0.00    +0.000 Cl
ATOM     17  C   UNL     1       2.213   4.059  19.860  0.00  0.00    +0.000 A 
ATOM     18 CL   UNL     1       1.849   5.337  20.990  0.00  0.00    +0.000 Cl
ENDBRANCH   9  11
ENDBRANCH   2   5
BRANCH   1  19
ATOM     19  C   UNL     1      -0.322  10.256  18.204  0.00  0.00    +0.000 C 
BRANCH  19  26
ATOM     20  C   UNL     1       0.037  13.182  18.998  0.00  0.00    +0.000 C 
ATOM     21  C   UNL     1      -0.227  12.097  20.010  0.00  0.00    +0.000 A 
ATOM     22  C   UNL     1      -0.310  12.473  21.363  0.00  0.00    +0.000 A 
ATOM     23  C   UNL     1      -0.499  11.525  22.366  0.00  0.00    +0.000 A 
ATOM     24  C   UNL     1      -0.586  10.181  22.032  0.00  0.00    +0.000 A 
ATOM     25  C   UNL     1      -0.508   9.791  20.696  0.00  0.00    +0.000 A 
ATOM     26  C   UNL     1      -0.353  10.730  19.656  0.00  0.00    +0.000 A 
ENDBRANCH  19  26
BRANCH  19  27
ATOM     27  C   UNL     1      -1.715  10.017  17.591  0.00  0.00    +0.000 C 
BRANCH  27  28
ATOM     28  C   UNL     1      -2.508  11.264  17.303  0.00  0.00    +0.000 C 
ATOM     29  O   UNL     1      -3.246  11.825  18.104  0.00  0.00    +0.000 OA
BRANCH  28  30
ATOM     30  O   UNL     1      -2.400  11.685  16.019  0.00  0.00    +0.000 OA
ATOM     31  H   UNL     1      -3.215  12.068  15.645  0.00  0.00    +0.000 HD
ENDBRANCH  28  30
ENDBRANCH  27  28
ENDBRANCH  19  27
ENDBRANCH   1  19
TORSDOF 7
ENDMDL
MODEL 5
REMARK VINA RESULT:      -8.1      4.008      8.938
REMARK  Name = 
REMARK  8 active torsions:
REMARK  status: ('A' for Active; 'I' for Inactive)
REMARK    1  A    between atoms: C_1  and  C_2
REMARK    2  A    between atoms: C_7  and  C_8
REMARK    3  A    between atoms: C_8  and  C_9
REMARK    4  A    between atoms: C_8  and  N_13
REMARK    5  A    between atoms: C_9  and  C_10
REMARK    6  A    between atoms: C_10  and  O_12
REMARK    7  A    between atoms: C_14  and  C_16
REMARK    8  A    between atoms: C_20  and  C_21
REMARK                            x       y       z     vdW  Elec       q    Type
REMARK                         _______ _______ _______ _____ _____    ______ ____
ROOT
ATOM      1  N   UNL     1       0.764   9.366  19.330  0.00  0.00    +0.000 N 
ATOM      2  C   UNL     1       1.221   8.635  20.402  0.00  0.00    +0.000 C 
ATOM      3  O   UNL     1       1.113   9.002  21.568  0.00  0.00    +0.000 OA
ATOM      4  H   UNL     1       1.000   9.100  18.381  0.00  0.00    +0.000 HD
ENDROOT
BRANCH   2   5
ATOM      5  C   UNL     1       1.921   7.359  20.102  0.00  0.00    +0.000 A 
ATOM      6  C   UNL     1       1.535   6.224  20.807  0.00  0.00    +0.000 A 
ATOM      7  C   UNL     1       2.198   5.048  20.539  0.00  0.00    +0.000 A 
ATOM      8  N   UNL     1       3.201   4.949  19.642  0.00  0.00    +0.000 NA
ATOM      9  C   UNL     1       3.538   6.033  18.905  0.00  0.00    +0.000 A 
ATOM     10  C   UNL     1       2.912   7.262  19.120  0.00  0.00    +0.000 A 
BRANCH   9  11
ATOM     11  C   UNL     1       4.631   5.841  17.912  0.00  0.00    +0.000 A 
ATOM     12  C   UNL     1       5.740   6.723  17.940  0.00  0.00    +0.000 A 
ATOM     13  C   UNL     1       6.816   6.599  17.060  0.00  0.00    +0.000 A 
ATOM     14  C   UNL     1       6.835   5.566  16.136  0.00  0.00    +0.000 A 
ATOM     15  C   UNL     1       5.766   4.670  16.074  0.00  0.00    +0.000 A 
ATOM     16 CL   UNL     1       5.889   3.406  14.892  0.00  0.00    +0.000 Cl
ATOM     17  C   UNL     1       4.657   4.808  16.937  0.00  0.00    +0.000 A 
ATOM     18 CL   UNL     1       3.309   3.723  16.714  0.00  0.00    +0.000 Cl
ENDBRANCH   9  11
ENDBRANCH   2   5
BRANCH   1  19
ATOM     19  C   UNL     1       0.022  10.609  19.500  0.00  0.00    +0.000 C 
BRANCH  19  26
ATOM     20  C   UNL     1      -2.445  12.307  20.097  0.00  0.00    +0.000 C 
ATOM     21  C   UNL     1      -2.317  11.481  18.843  0.00  0.00    +0.000 A 
ATOM     22  C   UNL     1      -3.386  11.514  17.928  0.00  0.00    +0.000 A 
ATOM     23  C   UNL     1      -3.370  10.739  16.771  0.00  0.00    +0.000 A 
ATOM     24  C   UNL     1      -2.293   9.902  16.521  0.00  0.00    +0.000 A 
ATOM     25  C   UNL     1      -1.224   9.857  17.415  0.00  0.00    +0.000 A 
ATOM     26  C   UNL     1      -1.195  10.657  18.576  0.00  0.00    +0.000 A 
ENDBRANCH  19  26
BRANCH  19  27
ATOM     27  C   UNL     1       0.919  11.859  19.421  0.00  0.00    +0.000 C 
BRANCH  27  28
ATOM     28  C   UNL     1       1.360  12.413  20.750  0.00  0.00    +0.000 C 
ATOM     29  O   UNL     1       2.338  13.130  20.920  0.00  0.00    +0.000 OA
BRANCH  28  30
ATOM     30  O   UNL     1       0.609  11.975  21.790  0.00  0.00    +0.000 OA
ATOM     31  H   UNL     1      -0.204  12.488  21.952  0.00  0.00    +0.000 HD
ENDBRANCH  28  30
ENDBRANCH  27  28
ENDBRANCH  19  27
ENDBRANCH   1  19
TORSDOF 7
ENDMDL
MODEL 6
REMARK VINA RESULT:      -8.0      3.936      8.859
REMARK  Name = 
REMARK  8 active torsions:
REMARK  status: ('A' for Active; 'I' for Inactive)
REMARK    1  A    between atoms: C_1  and  C_2
REMARK    2  A    between atoms: C_7  and  C_8
REMARK    3  A    between atoms: C_8  and  C_9
REMARK    4  A    between atoms: C_8  and  N_13
REMARK    5  A    between atoms: C_9  and  C_10
REMARK    6  A    between atoms: C_10  and  O_12
REMARK    7  A    between atoms: C_14  and  C_16
REMARK    8  A    between atoms: C_20  and  C_21
REMARK                            x       y       z     vdW  Elec       q    Type
REMARK                         _______ _______ _______ _____ _____    ______ ____
ROOT
ATOM      1  N   UNL     1       0.898   9.300  19.483  0.00  0.00    +0.000 N 
ATOM      2  C   UNL     1       1.289   8.489  20.523  0.00  0.00    +0.000 C 
ATOM      3  O   UNL     1       1.132   8.780  21.704  0.00  0.00    +0.000 OA
ATOM      4  H   UNL     1       1.175   9.092  18.530  0.00  0.00    +0.000 HD
ENDROOT
BRANCH   2   5
ATOM      5  C   UNL     1       1.979   7.220  20.171  0.00  0.00    +0.000 A 
ATOM      6  C   UNL     1       1.576   6.058  20.819  0.00  0.00    +0.000 A 
ATOM      7  C   UNL     1       2.229   4.889  20.503  0.00  0.00    +0.000 A 
ATOM      8  N   UNL     1       3.239   4.821  19.611  0.00  0.00    +0.000 NA
ATOM      9  C   UNL     1       3.593   5.934  18.926  0.00  0.00    +0.000 A 
ATOM     10  C   UNL     1       2.977   7.159  19.193  0.00  0.00    +0.000 A 
BRANCH   9  11
ATOM     11  C   UNL     1       4.692   5.777  17.935  0.00  0.00    +0.000 A 
ATOM     12  C   UNL     1       5.811   6.643  18.014  0.00  0.00    +0.000 A 
ATOM     13  C   UNL     1       6.893   6.548  17.138  0.00  0.00    +0.000 A 
ATOM     14  C   UNL     1       6.908   5.560  16.166  0.00  0.00    +0.000 A 
ATOM     15  C   UNL     1       5.829   4.681  16.053  0.00  0.00    +0.000 A 
ATOM     16 CL   UNL     1       5.948   3.473  14.813  0.00  0.00    +0.000 Cl
ATOM     17  C   UNL     1       4.715   4.791  16.912  0.00  0.00    +0.000 A 
ATOM     18 CL   UNL     1       3.357   3.734  16.626  0.00  0.00    +0.000 Cl
ENDBRANCH   9  11
ENDBRANCH   2   5
BRANCH   1  19
ATOM     19  C   UNL     1       0.172  10.544  19.701  0.00  0.00    +0.000 C 
BRANCH  19  26
ATOM     20  C   UNL     1      -2.235  12.312  20.337  0.00  0.00    +0.000 C 
ATOM     21  C   UNL     1      -2.146  11.493  19.076  0.00  0.00    +0.000 A 
ATOM     22  C   UNL     1      -3.223  11.566  18.173  0.00  0.00    +0.000 A 
ATOM     23  C   UNL     1      -3.243  10.801  17.010  0.00  0.00    +0.000 A 
ATOM     24  C   UNL     1      -2.195   9.933  16.741  0.00  0.00    +0.000 A 
ATOM     25  C   UNL     1      -1.118   9.848  17.624  0.00  0.00    +0.000 A 
ATOM     26  C   UNL     1      -1.053  10.637  18.791  0.00  0.00    +0.000 A 
ENDBRANCH  19  26
BRANCH  19  27
ATOM     27  C   UNL     1       1.083  11.786  19.656  0.00  0.00    +0.000 C 
BRANCH  27  28
ATOM     28  C   UNL     1       1.871  11.954  18.385  0.00  0.00    +0.000 C 
ATOM     29  O   UNL     1       2.576  11.088  17.879  0.00  0.00    +0.000 OA
BRANCH  28  30
ATOM     30  O   UNL     1       1.802  13.205  17.870  0.00  0.00    +0.000 OA
ATOM     31  H   UNL     1       0.927  13.629  17.942  0.00  0.00    +0.000 HD
ENDBRANCH  28  30
ENDBRANCH  27  28
ENDBRANCH  19  27
ENDBRANCH   1  19
TORSDOF 7
ENDMDL
MODEL 7
REMARK VINA RESULT:      -8.0      1.326      1.547
REMARK  Name = 
REMARK  8 active torsions:
REMARK  status: ('A' for Active; 'I' for Inactive)
REMARK    1  A    between atoms: C_1  and  C_2
REMARK    2  A    between atoms: C_7  and  C_8
REMARK    3  A    between atoms: C_8  and  C_9
REMARK    4  A    between atoms: C_8  and  N_13
REMARK    5  A    between atoms: C_9  and  C_10
REMARK    6  A    between atoms: C_10  and  O_12
REMARK    7  A    between atoms: C_14  and  C_16
REMARK    8  A    between atoms: C_20  and  C_21
REMARK                            x       y       z     vdW  Elec       q    Type
REMARK                         _______ _______ _______ _____ _____    ______ ____
ROOT
ATOM      1  N   UNL     1       2.386   6.977  18.300  0.00  0.00    +0.000 N 
ATOM      2  C   UNL     1       1.882   7.588  19.425  0.00  0.00    +0.000 C 
ATOM      3  O   UNL     1       1.722   7.011  20.496  0.00  0.00    +0.000 OA
ATOM      4  H   UNL     1       2.367   7.445  17.401  0.00  0.00    +0.000 HD
ENDROOT
BRANCH   2   5
ATOM      5  C   UNL     1       1.473   9.012  19.296  0.00  0.00    +0.000 A 
ATOM      6  C   UNL     1       2.073   9.774  18.300  0.00  0.00    +0.000 A 
ATOM      7  C   UNL     1       1.705  11.095  18.196  0.00  0.00    +0.000 A 
ATOM      8  N   UNL     1       0.805  11.682  19.013  0.00  0.00    +0.000 NA
ATOM      9  C   UNL     1       0.167  10.931  19.942  0.00  0.00    +0.000 A 
ATOM     10  C   UNL     1       0.488   9.583  20.109  0.00  0.00    +0.000 A 
BRANCH   9  11
ATOM     11  C   UNL     1      -0.835  11.638  20.785  0.00  0.00    +0.000 A 
ATOM     12  C   UNL     1      -0.531  11.878  22.149  0.00  0.00    +0.000 A 
ATOM     13  C   UNL     1      -1.405  12.553  23.002  0.00  0.00    +0.000 A 
ATOM     14  C   UNL     1      -2.607  13.039  22.512  0.00  0.00    +0.000 A 
ATOM     15  C   UNL     1      -2.948  12.830  21.175  0.00  0.00    +0.000 A 
ATOM     16 CL   UNL     1      -4.467  13.488  20.656  0.00  0.00    +0.000 Cl
ATOM     17  C   UNL     1      -2.086  12.119  20.313  0.00  0.00    +0.000 A 
ATOM     18 CL   UNL     1      -2.639  11.796  18.690  0.00  0.00    +0.000 Cl
ENDBRANCH   9  11
ENDBRANCH   2   5
BRANCH   1  19
ATOM     19  C   UNL     1       2.865   5.600  18.315  0.00  0.00    +0.000 C 
BRANCH  19  26
ATOM     20  C   UNL     1       4.983   3.616  19.262  0.00  0.00    +0.000 C 
ATOM     21  C   UNL     1       5.204   4.534  18.087  0.00  0.00    +0.000 A 
ATOM     22  C   UNL     1       6.438   4.450  17.417  0.00  0.00    +0.000 A 
ATOM     23  C   UNL     1       6.742   5.298  16.355  0.00  0.00    +0.000 A 
ATOM     24  C   UNL     1       5.823   6.260  15.960  0.00  0.00    +0.000 A 
ATOM     25  C   UNL     1       4.594   6.356  16.612  0.00  0.00    +0.000 A 
ATOM     26  C   UNL     1       4.244   5.487  17.666  0.00  0.00    +0.000 A 
ENDBRANCH  19  26
BRANCH  19  27
ATOM     27  C   UNL     1       1.829   4.599  17.768  0.00  0.00    +0.000 C 
BRANCH  27  28
ATOM     28  C   UNL     1       1.330   3.589  18.766  0.00  0.00    +0.000 C 
ATOM     29  O   UNL     1       1.216   2.388  18.549  0.00  0.00    +0.000 OA
BRANCH  28  30
ATOM     30  O   UNL     1       0.928   4.141  19.936  0.00  0.00    +0.000 OA
ATOM     31  H   UNL     1       0.214   3.658  20.392  0.00  0.00    +0.000 HD
ENDBRANCH  28  30
ENDBRANCH  27  28
ENDBRANCH  19  27
ENDBRANCH   1  19
TORSDOF 7
ENDMDL
MODEL 8
REMARK VINA RESULT:      -8.0      1.263      1.395
REMARK  Name = 
REMARK  8 active torsions:
REMARK  status: ('A' for Active; 'I' for Inactive)
REMARK    1  A    between atoms: C_1  and  C_2
REMARK    2  A    between atoms: C_7  and  C_8
REMARK    3  A    between atoms: C_8  and  C_9
REMARK    4  A    between atoms: C_8  and  N_13
REMARK    5  A    between atoms: C_9  and  C_10
REMARK    6  A    between atoms: C_10  and  O_12
REMARK    7  A    between atoms: C_14  and  C_16
REMARK    8  A    between atoms: C_20  and  C_21
REMARK                            x       y       z     vdW  Elec       q    Type
REMARK                         _______ _______ _______ _____ _____    ______ ____
ROOT
ATOM      1  N   UNL     1       3.795   6.019  19.497  0.00  0.00    +0.000 N 
ATOM      2  C   UNL     1       2.879   6.406  18.546  0.00  0.00    +0.000 C 
ATOM      3  O   UNL     1       2.570   5.713  17.582  0.00  0.00    +0.000 OA
ATOM      4  H   UNL     1       4.130   6.676  20.193  0.00  0.00    +0.000 HD
ENDROOT
BRANCH   2   5
ATOM      5  C   UNL     1       2.283   7.760  18.690  0.00  0.00    +0.000 A 
ATOM      6  C   UNL     1       2.482   8.672  17.659  0.00  0.00    +0.000 A 
ATOM      7  C   UNL     1       1.944   9.930  17.805  0.00  0.00    +0.000 A 
ATOM      8  N   UNL     1       1.249  10.318  18.894  0.00  0.00    +0.000 NA
ATOM      9  C   UNL     1       0.994   9.418  19.872  0.00  0.00    +0.000 A 
ATOM     10  C   UNL     1       1.508   8.122  19.797  0.00  0.00    +0.000 A 
BRANCH   9  11
ATOM     11  C   UNL     1       0.195   9.908  21.028  0.00  0.00    +0.000 A 
ATOM     12  C   UNL     1       0.417   9.333  22.304  0.00  0.00    +0.000 A 
ATOM     13  C   UNL     1      -0.274   9.750  23.443  0.00  0.00    +0.000 A 
ATOM     14  C   UNL     1      -1.195  10.782  23.350  0.00  0.00    +0.000 A 
ATOM     15  C   UNL     1      -1.445  11.381  22.114  0.00  0.00    +0.000 A 
ATOM     16 CL   UNL     1      -2.606  12.670  22.105  0.00  0.00    +0.000 Cl
ATOM     17  C   UNL     1      -0.776  10.943  20.951  0.00  0.00    +0.000 A 
ATOM     18 CL   UNL     1      -1.233  11.660  19.428  0.00  0.00    +0.000 Cl
ENDBRANCH   9  11
ENDBRANCH   2   5
BRANCH   1  19
ATOM     19  C   UNL     1       4.411   4.698  19.488  0.00  0.00    +0.000 C 
BRANCH  19  26
ATOM     20  C   UNL     1       7.327   5.600  19.523  0.00  0.00    +0.000 C 
ATOM     21  C   UNL     1       6.708   4.915  18.333  0.00  0.00    +0.000 A 
ATOM     22  C   UNL     1       7.526   4.691  17.210  0.00  0.00    +0.000 A 
ATOM     23  C   UNL     1       7.018   4.112  16.050  0.00  0.00    +0.000 A 
ATOM     24  C   UNL     1       5.676   3.767  15.986  0.00  0.00    +0.000 A 
ATOM     25  C   UNL     1       4.850   3.980  17.090  0.00  0.00    +0.000 A 
ATOM     26  C   UNL     1       5.344   4.531  18.290  0.00  0.00    +0.000 A 
ENDBRANCH  19  26
BRANCH  19  27
ATOM     27  C   UNL     1       3.387   3.558  19.651  0.00  0.00    +0.000 C 
BRANCH  27  28
ATOM     28  C   UNL     1       2.475   3.686  20.842  0.00  0.00    +0.000 C 
ATOM     29  O   UNL     1       1.554   4.489  20.936  0.00  0.00    +0.000 OA
BRANCH  28  30
ATOM     30  O   UNL     1       2.813   2.868  21.868  0.00  0.00    +0.000 OA
ATOM     31  H   UNL     1       2.448   1.966  21.810  0.00  0.00    +0.000 HD
ENDBRANCH  28  30
ENDBRANCH  27  28
ENDBRANCH  19  27
ENDBRANCH   1  19
TORSDOF 7
ENDMDL
MODEL 9
REMARK VINA RESULT:      -7.9      1.031      1.123
REMARK  Name = 
REMARK  8 active torsions:
REMARK  status: ('A' for Active; 'I' for Inactive)
REMARK    1  A    between atoms: C_1  and  C_2
REMARK    2  A    between atoms: C_7  and  C_8
REMARK    3  A    between atoms: C_8  and  C_9
REMARK    4  A    between atoms: C_8  and  N_13
REMARK    5  A    between atoms: C_9  and  C_10
REMARK    6  A    between atoms: C_10  and  O_12
REMARK    7  A    between atoms: C_14  and  C_16
REMARK    8  A    between atoms: C_20  and  C_21
REMARK                            x       y       z     vdW  Elec       q    Type
REMARK                         _______ _______ _______ _____ _____    ______ ____
ROOT
ATOM      1  N   UNL     1       3.587   5.944  18.154  0.00  0.00    +0.000 N 
ATOM      2  C   UNL     1       2.958   6.449  19.268  0.00  0.00    +0.000 C 
ATOM      3  O   UNL     1       2.984   5.904  20.366  0.00  0.00    +0.000 OA
ATOM      4  H   UNL     1       3.422   6.345  17.237  0.00  0.00    +0.000 HD
ENDROOT
BRANCH   2   5
ATOM      5  C   UNL     1       2.173   7.700  19.095  0.00  0.00    +0.000 A 
ATOM      6  C   UNL     1       2.055   8.221  17.811  0.00  0.00    +0.000 A 
ATOM      7  C   UNL     1       1.343   9.388  17.657  0.00  0.00    +0.000 A 
ATOM      8  N   UNL     1       0.770  10.049  18.684  0.00  0.00    +0.000 NA
ATOM      9  C   UNL     1       0.824   9.514  19.927  0.00  0.00    +0.000 A 
ATOM     10  C   UNL     1       1.529   8.333  20.163  0.00  0.00    +0.000 A 
BRANCH   9  11
ATOM     11  C   UNL     1       0.142  10.282  21.005  0.00  0.00    +0.000 A 
ATOM     12  C   UNL     1      -0.344   9.582  22.138  0.00  0.00    +0.000 A 
ATOM     13  C   UNL     1      -0.975  10.228  23.202  0.00  0.00    +0.000 A 
ATOM     14  C   UNL     1      -1.117  11.607  23.183  0.00  0.00    +0.000 A 
ATOM     15  C   UNL     1      -0.651  12.339  22.090  0.00  0.00    +0.000 A 
ATOM     16 CL   UNL     1      -0.866  14.059  22.167  0.00  0.00    +0.000 Cl
ATOM     17  C   UNL     1      -0.042  11.691  20.994  0.00  0.00    +0.000 A 
ATOM     18 CL   UNL     1       0.402  12.663  19.615  0.00  0.00    +0.000 Cl
ENDBRANCH   9  11
ENDBRANCH   2   5
BRANCH   1  19
ATOM     19  C   UNL     1       4.423   4.752  18.209  0.00  0.00    +0.000 C 
BRANCH  19  26
ATOM     20  C   UNL     1       7.273   5.844  18.124  0.00  0.00    +0.000 C 
ATOM     21  C   UNL     1       6.651   5.117  16.959  0.00  0.00    +0.000 A 
ATOM     22  C   UNL     1       7.435   4.947  15.803  0.00  0.00    +0.000 A 
ATOM     23  C   UNL     1       6.918   4.333  14.665  0.00  0.00    +0.000 A 
ATOM     24  C   UNL     1       5.601   3.900  14.657  0.00  0.00    +0.000 A 
ATOM     25  C   UNL     1       4.809   4.059  15.794  0.00  0.00    +0.000 A 
ATOM     26  C   UNL     1       5.315   4.644  16.973  0.00  0.00    +0.000 A 
ENDBRANCH  19  26
BRANCH  19  27
ATOM     27  C   UNL     1       3.623   3.472  18.520  0.00  0.00    +0.000 C 
BRANCH  27  28
ATOM     28  C   UNL     1       2.413   3.250  17.653  0.00  0.00    +0.000 C 
ATOM     29  O   UNL     1       1.628   4.125  17.308  0.00  0.00    +0.000 OA
BRANCH  28  30
ATOM     30  O   UNL     1       2.209   1.947  17.339  0.00  0.00    +0.000 OA
ATOM     31  H   UNL     1       1.276   1.703  17.194  0.00  0.00    +0.000 HD
ENDBRANCH  28  30
ENDBRANCH  27  28
ENDBRANCH  19  27
ENDBRANCH   1  19
TORSDOF 7
ENDMDL
