MODEL 1
REMARK VINA RESULT:      -6.7      0.000      0.000
REMARK  Name = 
REMARK  4 active torsions:
REMARK  status: ('A' for Active; 'I' for Inactive)
REMARK    1  A    between atoms: C_1  and  O_2
REMARK    2  A    between atoms: O_2  and  C_3
REMARK    3  A    between atoms: C_6  and  O_7
REMARK    4  A    between atoms: O_7  and  C_8
REMARK                            x       y       z     vdW  Elec       q    Type
REMARK                         _______ _______ _______ _____ _____    ______ ____
ROOT
ATOM      1  C   UNL     1       6.675   5.562  16.412  0.00  0.00    +0.000 A 
ATOM      2  C   UNL     1       5.527   6.338  16.247  0.00  0.00    +0.000 A 
ATOM      3  C   UNL     1       4.562   6.401  17.256  0.00  0.00    +0.000 A 
ATOM      4  C   UNL     1       4.730   5.667  18.429  0.00  0.00    +0.000 A 
ATOM      5  C   UNL     1       5.895   4.921  18.613  0.00  0.00    +0.000 A 
ATOM      6  C   UNL     1       6.854   4.845  17.595  0.00  0.00    +0.000 A 
ENDROOT
BRANCH   1   8
ATOM      7  C   UNL     1       7.069   4.880  14.183  0.00  0.00    +0.000 C 
ATOM      8  O   UNL     1       7.533   5.558  15.346  0.00  0.00    +0.000 OA
ENDBRANCH   1   8
BRANCH   4   9
ATOM      9  O   UNL     1       3.734   5.806  19.368  0.00  0.00    +0.000 OA
BRANCH   9  10
ATOM     10  C   UNL     1       2.755   4.845  19.492  0.00  0.00    +0.000 A 
ATOM     11  C   UNL     1       2.388   4.520  20.799  0.00  0.00    +0.000 A 
ATOM     12  C   UNL     1       1.394   3.567  21.033  0.00  0.00    +0.000 A 
ATOM     13  C   UNL     1       0.764   2.940  19.960  0.00  0.00    +0.000 A 
ATOM     14  C   UNL     1       1.105   3.287  18.652  0.00  0.00    +0.000 A 
ATOM     15  C   UNL     1       2.083   4.258  18.419  0.00  0.00    +0.000 A 
ENDBRANCH   9  10
ENDBRANCH   4   9
TORSDOF 3
ENDMDL
MODEL 2
REMARK VINA RESULT:      -6.7      1.608      2.139
REMARK  Name = 
REMARK  4 active torsions:
REMARK  status: ('A' for Active; 'I' for Inactive)
REMARK    1  A    between atoms: C_1  and  O_2
REMARK    2  A    between atoms: O_2  and  C_3
REMARK    3  A    between atoms: C_6  and  O_7
REMARK    4  A    between atoms: O_7  and  C_8
REMARK                            x       y       z     vdW  Elec       q    Type
REMARK                         _______ _______ _______ _____ _____    ______ ____
ROOT
ATOM      1  C   UNL     1       6.591   5.969  16.699  0.00  0.00    +0.000 A 
ATOM      2  C   UNL     1       5.441   6.574  17.208  0.00  0.00    +0.000 A 
ATOM      3  C   UNL     1       4.271   5.832  17.392  0.00  0.00    +0.000 A 
ATOM      4  C   UNL     1       4.238   4.483  17.044  0.00  0.00    +0.000 A 
ATOM      5  C   UNL     1       5.397   3.865  16.571  0.00  0.00    +0.000 A 
ATOM      6  C   UNL     1       6.564   4.612  16.372  0.00  0.00    +0.000 A 
ENDROOT
BRANCH   1   8
ATOM      7  C   UNL     1       7.740   7.895  17.445  0.00  0.00    +0.000 C 
ATOM      8  O   UNL     1       7.664   6.801  16.538  0.00  0.00    +0.000 OA
ENDBRANCH   1   8
BRANCH   4   9
ATOM      9  O   UNL     1       3.046   3.835  17.276  0.00  0.00    +0.000 OA
BRANCH   9  10
ATOM     10  C   UNL     1       2.645   3.554  18.563  0.00  0.00    +0.000 A 
ATOM     11  C   UNL     1       1.312   3.845  18.858  0.00  0.00    +0.000 A 
ATOM     12  C   UNL     1       0.801   3.584  20.132  0.00  0.00    +0.000 A 
ATOM     13  C   UNL     1       1.622   3.029  21.111  0.00  0.00    +0.000 A 
ATOM     14  C   UNL     1       2.946   2.706  20.809  0.00  0.00    +0.000 A 
ATOM     15  C   UNL     1       3.449   2.945  19.528  0.00  0.00    +0.000 A 
ENDBRANCH   9  10
ENDBRANCH   4   9
TORSDOF 3
ENDMDL
MODEL 3
REMARK VINA RESULT:      -6.7      1.083      1.233
REMARK  Name = 
REMARK  4 active torsions:
REMARK  status: ('A' for Active; 'I' for Inactive)
REMARK    1  A    between atoms: C_1  and  O_2
REMARK    2  A    between atoms: O_2  and  C_3
REMARK    3  A    between atoms: C_6  and  O_7
REMARK    4  A    between atoms: O_7  and  C_8
REMARK                            x       y       z     vdW  Elec       q    Type
REMARK                         _______ _______ _______ _____ _____    ______ ____
ROOT
ATOM      1  C   UNL     1       6.060   5.475  16.130  0.00  0.00    +0.000 A 
ATOM      2  C   UNL     1       5.631   6.667  16.715  0.00  0.00    +0.000 A 
ATOM      3  C   UNL     1       4.432   6.714  17.431  0.00  0.00    +0.000 A 
ATOM      4  C   UNL     1       3.641   5.573  17.545  0.00  0.00    +0.000 A 
ATOM      5  C   UNL     1       4.085   4.370  16.994  0.00  0.00    +0.000 A 
ATOM      6  C   UNL     1       5.279   4.326  16.262  0.00  0.00    +0.000 A 
ENDROOT
BRANCH   1   8
ATOM      7  C   UNL     1       7.265   4.866  14.189  0.00  0.00    +0.000 C 
ATOM      8  O   UNL     1       7.234   5.558  15.433  0.00  0.00    +0.000 OA
ENDBRANCH   1   8
BRANCH   4   9
ATOM      9  O   UNL     1       2.487   5.715  18.280  0.00  0.00    +0.000 OA
BRANCH   9  10
ATOM     10  C   UNL     1       2.091   4.727  19.153  0.00  0.00    +0.000 A 
ATOM     11  C   UNL     1       2.536   4.868  20.469  0.00  0.00    +0.000 A 
ATOM     12  C   UNL     1       2.178   3.927  21.437  0.00  0.00    +0.000 A 
ATOM     13  C   UNL     1       1.373   2.843  21.090  0.00  0.00    +0.000 A 
ATOM     14  C   UNL     1       0.899   2.717  19.784  0.00  0.00    +0.000 A 
ATOM     15  C   UNL     1       1.238   3.673  18.822  0.00  0.00    +0.000 A 
ENDBRANCH   9  10
ENDBRANCH   4   9
TORSDOF 3
ENDMDL
MODEL 4
REMARK VINA RESULT:      -6.7      0.753      1.445
REMARK  Name = 
REMARK  4 active torsions:
REMARK  status: ('A' for Active; 'I' for Inactive)
REMARK    1  A    between atoms: C_1  and  O_2
REMARK    2  A    between atoms: O_2  and  C_3
REMARK    3  A    between atoms: C_6  and  O_7
REMARK    4  A    between atoms: O_7  and  C_8
REMARK                            x       y       z     vdW  Elec       q    Type
REMARK                         _______ _______ _______ _____ _____    ______ ____
ROOT
ATOM      1  C   UNL     1       6.629   5.506  16.102  0.00  0.00    +0.000 A 
ATOM      2  C   UNL     1       7.081   4.835  17.239  0.00  0.00    +0.000 A 
ATOM      3  C   UNL     1       6.305   4.809  18.402  0.00  0.00    +0.000 A 
ATOM      4  C   UNL     1       5.082   5.475  18.440  0.00  0.00    +0.000 A 
ATOM      5  C   UNL     1       4.610   6.114  17.293  0.00  0.00    +0.000 A 
ATOM      6  C   UNL     1       5.394   6.154  16.133  0.00  0.00    +0.000 A 
ENDROOT
BRANCH   1   8
ATOM      7  C   UNL     1       7.054   4.726  13.911  0.00  0.00    +0.000 C 
ATOM      8  O   UNL     1       7.486   5.485  15.036  0.00  0.00    +0.000 OA
ENDBRANCH   1   8
BRANCH   4   9
ATOM      9  O   UNL     1       4.386   5.379  19.624  0.00  0.00    +0.000 OA
BRANCH   9  10
ATOM     10  C   UNL     1       3.307   4.530  19.730  0.00  0.00    +0.000 A 
ATOM     11  C   UNL     1       2.195   5.046  20.398  0.00  0.00    +0.000 A 
ATOM     12  C   UNL     1       1.043   4.270  20.548  0.00  0.00    +0.000 A 
ATOM     13  C   UNL     1       1.002   2.978  20.027  0.00  0.00    +0.000 A 
ATOM     14  C   UNL     1       2.099   2.472  19.330  0.00  0.00    +0.000 A 
ATOM     15  C   UNL     1       3.242   3.258  19.160  0.00  0.00    +0.000 A 
ENDBRANCH   9  10
ENDBRANCH   4   9
TORSDOF 3
ENDMDL
MODEL 5
REMARK VINA RESULT:      -6.7      1.615      2.247
REMARK  Name = 
REMARK  4 active torsions:
REMARK  status: ('A' for Active; 'I' for Inactive)
REMARK    1  A    between atoms: C_1  and  O_2
REMARK    2  A    between atoms: O_2  and  C_3
REMARK    3  A    between atoms: C_6  and  O_7
REMARK    4  A    between atoms: O_7  and  C_8
REMARK                            x       y       z     vdW  Elec       q    Type
REMARK                         _______ _______ _______ _____ _____    ______ ____
ROOT
ATOM      1  C   UNL     1       6.401   6.199  16.796  0.00  0.00    +0.000 A 
ATOM      2  C   UNL     1       6.517   4.837  16.513  0.00  0.00    +0.000 A 
ATOM      3  C   UNL     1       5.438   3.974  16.723  0.00  0.00    +0.000 A 
ATOM      4  C   UNL     1       4.241   4.467  17.240  0.00  0.00    +0.000 A 
ATOM      5  C   UNL     1       4.109   5.834  17.488  0.00  0.00    +0.000 A 
ATOM      6  C   UNL     1       5.195   6.696  17.293  0.00  0.00    +0.000 A 
ENDROOT
BRANCH   1   8
ATOM      7  C   UNL     1       7.783   7.976  17.516  0.00  0.00    +0.000 C 
ATOM      8  O   UNL     1       7.531   6.937  16.576  0.00  0.00    +0.000 OA
ENDBRANCH   1   8
BRANCH   4   9
ATOM      9  O   UNL     1       3.233   3.543  17.398  0.00  0.00    +0.000 OA
BRANCH   9  10
ATOM     10  C   UNL     1       2.605   3.399  18.615  0.00  0.00    +0.000 A 
ATOM     11  C   UNL     1       3.395   2.889  19.647  0.00  0.00    +0.000 A 
ATOM     12  C   UNL     1       2.857   2.718  20.924  0.00  0.00    +0.000 A 
ATOM     13  C   UNL     1       1.528   3.059  21.172  0.00  0.00    +0.000 A 
ATOM     14  C   UNL     1       0.746   3.600  20.151  0.00  0.00    +0.000 A 
ATOM     15  C   UNL     1       1.293   3.794  18.880  0.00  0.00    +0.000 A 
ENDBRANCH   9  10
ENDBRANCH   4   9
TORSDOF 3
ENDMDL
MODEL 6
REMARK VINA RESULT:      -6.6      1.682      2.105
REMARK  Name = 
REMARK  4 active torsions:
REMARK  status: ('A' for Active; 'I' for Inactive)
REMARK    1  A    between atoms: C_1  and  O_2
REMARK    2  A    between atoms: O_2  and  C_3
REMARK    3  A    between atoms: C_6  and  O_7
REMARK    4  A    between atoms: O_7  and  C_8
REMARK                            x       y       z     vdW  Elec       q    Type
REMARK                         _______ _______ _______ _____ _____    ______ ____
ROOT
ATOM      1  C   UNL     1       6.606   5.955  16.668  0.00  0.00    +0.000 A 
ATOM      2  C   UNL     1       5.473   6.459  17.307  0.00  0.00    +0.000 A 
ATOM      3  C   UNL     1       4.326   5.671  17.445  0.00  0.00    +0.000 A 
ATOM      4  C   UNL     1       4.300   4.380  16.922  0.00  0.00    +0.000 A 
ATOM      5  C   UNL     1       5.445   3.858  16.317  0.00  0.00    +0.000 A 
ATOM      6  C   UNL     1       6.588   4.653  16.164  0.00  0.00    +0.000 A 
ENDROOT
BRANCH   1   8
ATOM      7  C   UNL     1       7.682   7.873  17.535  0.00  0.00    +0.000 C 
ATOM      8  O   UNL     1       7.655   6.827  16.570  0.00  0.00    +0.000 OA
ENDBRANCH   1   8
BRANCH   4   9
ATOM      9  O   UNL     1       3.133   3.678  17.120  0.00  0.00    +0.000 OA
BRANCH   9  10
ATOM     10  C   UNL     1       2.615   3.532  18.388  0.00  0.00    +0.000 A 
ATOM     11  C   UNL     1       3.434   2.866  19.302  0.00  0.00    +0.000 A 
ATOM     12  C   UNL     1       3.008   2.679  20.619  0.00  0.00    +0.000 A 
ATOM     13  C   UNL     1       1.764   3.158  21.024  0.00  0.00    +0.000 A 
ATOM     14  C   UNL     1       0.957   3.852  20.121  0.00  0.00    +0.000 A 
ATOM     15  C   UNL     1       1.395   4.061  18.810  0.00  0.00    +0.000 A 
ENDBRANCH   9  10
ENDBRANCH   4   9
TORSDOF 3
ENDMDL
MODEL 7
REMARK VINA RESULT:      -6.6      1.728      2.267
REMARK  Name = 
REMARK  4 active torsions:
REMARK  status: ('A' for Active; 'I' for Inactive)
REMARK    1  A    between atoms: C_1  and  O_2
REMARK    2  A    between atoms: O_2  and  C_3
REMARK    3  A    between atoms: C_6  and  O_7
REMARK    4  A    between atoms: O_7  and  C_8
REMARK                            x       y       z     vdW  Elec       q    Type
REMARK                         _______ _______ _______ _____ _____    ______ ____
ROOT
ATOM      1  C   UNL     1       6.504   6.492  17.186  0.00  0.00    +0.000 A 
ATOM      2  C   UNL     1       5.517   6.053  16.302  0.00  0.00    +0.000 A 
ATOM      3  C   UNL     1       4.720   4.950  16.620  0.00  0.00    +0.000 A 
ATOM      4  C   UNL     1       4.923   4.264  17.816  0.00  0.00    +0.000 A 
ATOM      5  C   UNL     1       5.883   4.723  18.719  0.00  0.00    +0.000 A 
ATOM      6  C   UNL     1       6.693   5.818  18.393  0.00  0.00    +0.000 A 
ENDROOT
BRANCH   1   8
ATOM      7  C   UNL     1       7.900   8.308  17.769  0.00  0.00    +0.000 C 
ATOM      8  O   UNL     1       7.238   7.563  16.753  0.00  0.00    +0.000 OA
ENDBRANCH   1   8
BRANCH   4   9
ATOM      9  O   UNL     1       4.080   3.201  18.046  0.00  0.00    +0.000 OA
BRANCH   9  10
ATOM     10  C   UNL     1       3.217   3.216  19.119  0.00  0.00    +0.000 A 
ATOM     11  C   UNL     1       1.977   3.816  18.889  0.00  0.00    +0.000 A 
ATOM     12  C   UNL     1       1.023   3.871  19.909  0.00  0.00    +0.000 A 
ATOM     13  C   UNL     1       1.308   3.325  21.159  0.00  0.00    +0.000 A 
ATOM     14  C   UNL     1       2.533   2.696  21.382  0.00  0.00    +0.000 A 
ATOM     15  C   UNL     1       3.477   2.620  20.354  0.00  0.00    +0.000 A 
ENDBRANCH   9  10
ENDBRANCH   4   9
TORSDOF 3
ENDMDL
MODEL 8
REMARK VINA RESULT:      -6.6      0.842      1.116
REMARK  Name = 
REMARK  4 active torsions:
REMARK  status: ('A' for Active; 'I' for Inactive)
REMARK    1  A    between atoms: C_1  and  O_2
REMARK    2  A    between atoms: O_2  and  C_3
REMARK    3  A    between atoms: C_6  and  O_7
REMARK    4  A    between atoms: O_7  and  C_8
REMARK                            x       y       z     vdW  Elec       q    Type
REMARK                         _______ _______ _______ _____ _____    ______ ____
ROOT
ATOM      1  C   UNL     1       6.700   5.385  16.231  0.00  0.00    +0.000 A 
ATOM      2  C   UNL     1       5.438   5.980  16.244  0.00  0.00    +0.000 A 
ATOM      3  C   UNL     1       4.681   6.014  17.419  0.00  0.00    +0.000 A 
ATOM      4  C   UNL     1       5.175   5.430  18.584  0.00  0.00    +0.000 A 
ATOM      5  C   UNL     1       6.453   4.869  18.585  0.00  0.00    +0.000 A 
ATOM      6  C   UNL     1       7.204   4.820  17.404  0.00  0.00    +0.000 A 
ENDROOT
BRANCH   1   8
ATOM      7  C   UNL     1       6.795   4.508  14.038  0.00  0.00    +0.000 C 
ATOM      8  O   UNL     1       7.333   5.389  15.018  0.00  0.00    +0.000 OA
ENDBRANCH   1   8
BRANCH   4   9
ATOM      9  O   UNL     1       4.364   5.527  19.692  0.00  0.00    +0.000 OA
BRANCH   9  10
ATOM     10  C   UNL     1       3.266   4.706  19.824  0.00  0.00    +0.000 A 
ATOM     11  C   UNL     1       3.495   3.348  19.595  0.00  0.00    +0.000 A 
ATOM     12  C   UNL     1       2.450   2.429  19.718  0.00  0.00    +0.000 A 
ATOM     13  C   UNL     1       1.175   2.867  20.072  0.00  0.00    +0.000 A 
ATOM     14  C   UNL     1       0.951   4.219  20.335  0.00  0.00    +0.000 A 
ATOM     15  C   UNL     1       2.003   5.134  20.235  0.00  0.00    +0.000 A 
ENDBRANCH   9  10
ENDBRANCH   4   9
TORSDOF 3
ENDMDL
MODEL 9
REMARK VINA RESULT:      -6.6      1.712      2.047
REMARK  Name = 
REMARK  4 active torsions:
REMARK  status: ('A' for Active; 'I' for Inactive)
REMARK    1  A    between atoms: C_1  and  O_2
REMARK    2  A    between atoms: O_2  and  C_3
REMARK    3  A    between atoms: C_6  and  O_7
REMARK    4  A    between atoms: O_7  and  C_8
REMARK                            x       y       z     vdW  Elec       q    Type
REMARK                         _______ _______ _______ _____ _____    ______ ____
ROOT
ATOM      1  C   UNL     1       6.536   6.238  17.145  0.00  0.00    +0.000 A 
ATOM      2  C   UNL     1       5.696   5.647  16.202  0.00  0.00    +0.000 A 
ATOM      3  C   UNL     1       4.868   4.578  16.559  0.00  0.00    +0.000 A 
ATOM      4  C   UNL     1       4.895   4.080  17.860  0.00  0.00    +0.000 A 
ATOM      5  C   UNL     1       5.705   4.694  18.816  0.00  0.00    +0.000 A 
ATOM      6  C   UNL     1       6.547   5.754  18.454  0.00  0.00    +0.000 A 
ENDROOT
BRANCH   1   8
ATOM      7  C   UNL     1       7.807   8.166  17.650  0.00  0.00    +0.000 C 
ATOM      8  O   UNL     1       7.318   7.256  16.672  0.00  0.00    +0.000 OA
ENDBRANCH   1   8
BRANCH   4   9
ATOM      9  O   UNL     1       4.035   3.037  18.119  0.00  0.00    +0.000 OA
BRANCH   9  10
ATOM     10  C   UNL     1       3.085   3.148  19.109  0.00  0.00    +0.000 A 
ATOM     11  C   UNL     1       3.424   2.583  20.340  0.00  0.00    +0.000 A 
ATOM     12  C   UNL     1       2.535   2.654  21.414  0.00  0.00    +0.000 A 
ATOM     13  C   UNL     1       1.306   3.292  21.261  0.00  0.00    +0.000 A 
ATOM     14  C   UNL     1       0.978   3.888  20.043  0.00  0.00    +0.000 A 
ATOM     15  C   UNL     1       1.878   3.837  18.975  0.00  0.00    +0.000 A 
ENDBRANCH   9  10
ENDBRANCH   4   9
TORSDOF 3
ENDMDL
