MODEL 1
REMARK VINA RESULT:      -7.6      0.000      0.000
REMARK  Name = 
REMARK  10 active torsions:
REMARK  status: ('A' for Active; 'I' for Inactive)
REMARK    1  A    between atoms: C_1  and  N_2
REMARK    2  A    between atoms: C_3  and  C_4
REMARK    3  A    between atoms: C_4  and  C_5
REMARK    4  A    between atoms: C_9  and  O_11
REMARK    5  A    between atoms: O_11  and  C_12
REMARK    6  A    between atoms: C_12  and  C_13
REMARK    7  A    between atoms: C_12  and  C_14
REMARK    8  A    between atoms: C_12  and  C_15
REMARK    9  A    between atoms: C_21  and  C_22
REMARK   10  A    between atoms: N_24  and  C_25
REMARK                            x       y       z     vdW  Elec       q    Type
REMARK                         _______ _______ _______ _____ _____    ______ ____
ROOT
ATOM      1  C   UNL     1       1.657  13.208  18.671  0.00  0.00    +0.000 C 
ATOM      2  N   UNL     1       1.168  12.205  19.584  0.00  0.00    +0.000 N 
ATOM      3  C   UNL     1       0.665  12.382  20.854  0.00  0.00    +0.000 A 
ATOM      4  N   UNL     1       0.605  11.216  21.481  0.00  0.00    +0.000 NA
ATOM      5  C   UNL     1       1.036  10.266  20.586  0.00  0.00    +0.000 A 
ATOM      6  C   UNL     1       1.237   8.883  20.754  0.00  0.00    +0.000 A 
ATOM      7  C   UNL     1       1.652   8.130  19.644  0.00  0.00    +0.000 A 
ATOM      8  C   UNL     1       1.867   8.746  18.400  0.00  0.00    +0.000 A 
ATOM      9  C   UNL     1       1.715  10.123  18.235  0.00  0.00    +0.000 A 
ATOM     10  C   UNL     1       1.315  10.852  19.358  0.00  0.00    +0.000 A 
ENDROOT
BRANCH   7  11
ATOM     11  C   UNL     1       1.945   6.673  19.728  0.00  0.00    +0.000 C 
ATOM     12  O   UNL     1       1.786   6.115  20.805  0.00  0.00    +0.000 OA
ATOM     13  N   UNL     1       2.439   6.093  18.572  0.00  0.00    +0.000 N 
ATOM     14  H   UNL     1       2.697   6.711  17.815  0.00  0.00    +0.000 HD
BRANCH  13  15
ATOM     15  C   UNL     1       2.802   4.734  18.427  0.00  0.00    +0.000 A 
ATOM     16  C   UNL     1       3.943   4.164  18.989  0.00  0.00    +0.000 A 
ATOM     17  C   UNL     1       4.241   2.821  18.748  0.00  0.00    +0.000 A 
ATOM     18  C   UNL     1       3.377   2.087  17.962  0.00  0.00    +0.000 A 
ATOM     19  N   UNL     1       2.244   2.585  17.426  0.00  0.00    +0.000 NA
ATOM     20  C   UNL     1       1.985   3.893  17.677  0.00  0.00    +0.000 A 
ENDBRANCH  13  15
ENDBRANCH   7  11
BRANCH   3  21
ATOM     21  C   UNL     1       0.422  13.707  21.510  0.00  0.00    +0.000 C 
BRANCH  21  22
ATOM     22  C   UNL     1      -0.967  14.369  21.382  0.00  0.00    +0.000 C 
ATOM     23  C   UNL     1      -1.632  14.724  22.710  0.00  0.00    +0.000 C 
ATOM     24  C   UNL     1      -2.499  13.609  23.261  0.00  0.00    +0.000 C 
ATOM     25  N   UNL     1      -3.512  13.177  22.308  0.00  0.00    +0.000 N 
ATOM     26  C   UNL     1      -4.668  12.631  22.868  0.00  0.00    +0.000 C 
ATOM     27  O   UNL     1      -4.884  12.648  24.076  0.00  0.00    +0.000 OA
ATOM     28  C   UNL     1      -3.058  12.821  20.973  0.00  0.00    +0.000 C 
ATOM     29  C   UNL     1      -1.975  13.745  20.397  0.00  0.00    +0.000 C 
BRANCH  26  30
ATOM     30  O   UNL     1      -5.529  12.087  21.959  0.00  0.00    +0.000 OA
BRANCH  30  31
ATOM     31  C   UNL     1      -6.899  12.589  21.904  0.00  0.00    +0.000 C 
ATOM     32  C   UNL     1      -6.943  14.125  21.840  0.00  0.00    +0.000 C 
ATOM     33  C   UNL     1      -7.507  12.052  20.597  0.00  0.00    +0.000 C 
ATOM     34  C   UNL     1      -7.735  12.037  23.069  0.00  0.00    +0.000 C 
ENDBRANCH  30  31
ENDBRANCH  26  30
ENDBRANCH  21  22
ENDBRANCH   3  21
TORSDOF 6
ENDMDL
MODEL 2
REMARK VINA RESULT:      -7.4      1.631      2.312
REMARK  Name = 
REMARK  10 active torsions:
REMARK  status: ('A' for Active; 'I' for Inactive)
REMARK    1  A    between atoms: C_1  and  N_2
REMARK    2  A    between atoms: C_3  and  C_4
REMARK    3  A    between atoms: C_4  and  C_5
REMARK    4  A    between atoms: C_9  and  O_11
REMARK    5  A    between atoms: O_11  and  C_12
REMARK    6  A    between atoms: C_12  and  C_13
REMARK    7  A    between atoms: C_12  and  C_14
REMARK    8  A    between atoms: C_12  and  C_15
REMARK    9  A    between atoms: C_21  and  C_22
REMARK   10  A    between atoms: N_24  and  C_25
REMARK                            x       y       z     vdW  Elec       q    Type
REMARK                         _______ _______ _______ _____ _____    ______ ____
ROOT
ATOM      1  C   UNL     1       0.506  13.990  20.383  0.00  0.00    +0.000 C 
ATOM      2  N   UNL     1       0.125  12.773  21.056  0.00  0.00    +0.000 N 
ATOM      3  C   UNL     1      -0.455  12.632  22.297  0.00  0.00    +0.000 A 
ATOM      4  N   UNL     1      -0.376  11.369  22.690  0.00  0.00    +0.000 NA
ATOM      5  C   UNL     1       0.226  10.676  21.666  0.00  0.00    +0.000 A 
ATOM      6  C   UNL     1       0.613   9.326  21.586  0.00  0.00    +0.000 A 
ATOM      7  C   UNL     1       1.181   8.864  20.388  0.00  0.00    +0.000 A 
ATOM      8  C   UNL     1       1.361   9.733  19.299  0.00  0.00    +0.000 A 
ATOM      9  C   UNL     1       1.022  11.084  19.384  0.00  0.00    +0.000 A 
ATOM     10  C   UNL     1       0.473  11.522  20.592  0.00  0.00    +0.000 A 
ENDROOT
BRANCH   7  11
ATOM     11  C   UNL     1       1.674   7.469  20.219  0.00  0.00    +0.000 C 
ATOM     12  O   UNL     1       1.302   6.626  21.023  0.00  0.00    +0.000 OA
ATOM     13  N   UNL     1       2.574   7.273  19.185  0.00  0.00    +0.000 N 
ATOM     14  H   UNL     1       2.935   8.095  18.720  0.00  0.00    +0.000 HD
BRANCH  13  15
ATOM     15  C   UNL     1       3.183   6.041  18.853  0.00  0.00    +0.000 A 
ATOM     16  C   UNL     1       4.343   5.554  19.453  0.00  0.00    +0.000 A 
ATOM     17  C   UNL     1       4.896   4.347  19.022  0.00  0.00    +0.000 A 
ATOM     18  C   UNL     1       4.262   3.657  18.008  0.00  0.00    +0.000 A 
ATOM     19  N   UNL     1       3.120   4.071  17.421  0.00  0.00    +0.000 NA
ATOM     20  C   UNL     1       2.610   5.249  17.862  0.00  0.00    +0.000 A 
ENDBRANCH  13  15
ENDBRANCH   7  11
BRANCH   3  21
ATOM     21  C   UNL     1      -0.912  13.760  23.170  0.00  0.00    +0.000 C 
BRANCH  21  22
ATOM     22  C   UNL     1      -2.288  14.410  22.904  0.00  0.00    +0.000 C 
ATOM     23  C   UNL     1      -3.470  13.695  23.553  0.00  0.00    +0.000 C 
ATOM     24  C   UNL     1      -4.088  12.632  22.665  0.00  0.00    +0.000 C 
ATOM     25  N   UNL     1      -4.491  13.164  21.370  0.00  0.00    +0.000 N 
ATOM     26  C   UNL     1      -5.541  12.489  20.746  0.00  0.00    +0.000 C 
ATOM     27  O   UNL     1      -6.180  11.606  21.308  0.00  0.00    +0.000 OA
ATOM     28  C   UNL     1      -3.490  13.903  20.616  0.00  0.00    +0.000 C 
ATOM     29  C   UNL     1      -2.614  14.840  21.460  0.00  0.00    +0.000 C 
BRANCH  26  30
ATOM     30  O   UNL     1      -5.792  12.901  19.468  0.00  0.00    +0.000 OA
BRANCH  30  31
ATOM     31  C   UNL     1      -5.823  11.903  18.404  0.00  0.00    +0.000 C 
ATOM     32  C   UNL     1      -6.764  10.734  18.744  0.00  0.00    +0.000 C 
ATOM     33  C   UNL     1      -6.391  12.608  17.161  0.00  0.00    +0.000 C 
ATOM     34  C   UNL     1      -4.406  11.418  18.061  0.00  0.00    +0.000 C 
ENDBRANCH  30  31
ENDBRANCH  26  30
ENDBRANCH  21  22
ENDBRANCH   3  21
TORSDOF 6
ENDMDL
MODEL 3
REMARK VINA RESULT:      -7.4      2.770      3.373
REMARK  Name = 
REMARK  10 active torsions:
REMARK  status: ('A' for Active; 'I' for Inactive)
REMARK    1  A    between atoms: C_1  and  N_2
REMARK    2  A    between atoms: C_3  and  C_4
REMARK    3  A    between atoms: C_4  and  C_5
REMARK    4  A    between atoms: C_9  and  O_11
REMARK    5  A    between atoms: O_11  and  C_12
REMARK    6  A    between atoms: C_12  and  C_13
REMARK    7  A    between atoms: C_12  and  C_14
REMARK    8  A    between atoms: C_12  and  C_15
REMARK    9  A    between atoms: C_21  and  C_22
REMARK   10  A    between atoms: N_24  and  C_25
REMARK                            x       y       z     vdW  Elec       q    Type
REMARK                         _______ _______ _______ _____ _____    ______ ____
ROOT
ATOM      1  C   UNL     1      -0.293  12.058  19.466  0.00  0.00    +0.000 C 
ATOM      2  N   UNL     1      -0.026  10.782  20.082  0.00  0.00    +0.000 N 
ATOM      3  C   UNL     1      -0.265  10.397  21.383  0.00  0.00    +0.000 A 
ATOM      4  N   UNL     1       0.382   9.271  21.646  0.00  0.00    +0.000 NA
ATOM      5  C   UNL     1       1.014   8.901  20.481  0.00  0.00    +0.000 A 
ATOM      6  C   UNL     1       1.888   7.829  20.223  0.00  0.00    +0.000 A 
ATOM      7  C   UNL     1       2.365   7.658  18.913  0.00  0.00    +0.000 A 
ATOM      8  C   UNL     1       1.981   8.540  17.890  0.00  0.00    +0.000 A 
ATOM      9  C   UNL     1       1.151   9.632  18.147  0.00  0.00    +0.000 A 
ATOM     10  C   UNL     1       0.703   9.789  19.460  0.00  0.00    +0.000 A 
ENDROOT
BRANCH   7  11
ATOM     11  C   UNL     1       3.335   6.589  18.547  0.00  0.00    +0.000 C 
ATOM     12  O   UNL     1       3.480   5.653  19.320  0.00  0.00    +0.000 OA
ATOM     13  N   UNL     1       4.039   6.797  17.372  0.00  0.00    +0.000 N 
ATOM     14  H   UNL     1       3.954   7.704  16.933  0.00  0.00    +0.000 HD
BRANCH  13  15
ATOM     15  C   UNL     1       5.020   5.929  16.841  0.00  0.00    +0.000 A 
ATOM     16  C   UNL     1       4.734   4.741  16.170  0.00  0.00    +0.000 A 
ATOM     17  C   UNL     1       5.776   3.926  15.723  0.00  0.00    +0.000 A 
ATOM     18  C   UNL     1       7.074   4.333  15.951  0.00  0.00    +0.000 A 
ATOM     19  N   UNL     1       7.400   5.490  16.564  0.00  0.00    +0.000 NA
ATOM     20  C   UNL     1       6.365   6.258  16.988  0.00  0.00    +0.000 A 
ENDBRANCH  13  15
ENDBRANCH   7  11
BRANCH   3  21
ATOM     21  C   UNL     1      -0.968  11.226  22.413  0.00  0.00    +0.000 C 
BRANCH  21  22
ATOM     22  C   UNL     1      -1.523  12.612  22.016  0.00  0.00    +0.000 C 
ATOM     23  C   UNL     1      -0.722  13.799  22.547  0.00  0.00    +0.000 C 
ATOM     24  C   UNL     1      -1.199  14.282  23.903  0.00  0.00    +0.000 C 
ATOM     25  N   UNL     1      -2.618  14.612  23.902  0.00  0.00    +0.000 N 
ATOM     26  C   UNL     1      -3.012  15.570  24.838  0.00  0.00    +0.000 C 
ATOM     27  O   UNL     1      -2.203  16.199  25.513  0.00  0.00    +0.000 OA
ATOM     28  C   UNL     1      -3.534  13.599  23.400  0.00  0.00    +0.000 C 
ATOM     29  C   UNL     1      -3.039  12.849  22.155  0.00  0.00    +0.000 C 
BRANCH  26  30
ATOM     30  O   UNL     1      -4.363  15.742  24.930  0.00  0.00    +0.000 OA
BRANCH  30  31
ATOM     31  C   UNL     1      -4.961  16.925  24.319  0.00  0.00    +0.000 C 
ATOM     32  C   UNL     1      -4.128  17.439  23.131  0.00  0.00    +0.000 C 
ATOM     33  C   UNL     1      -6.330  16.489  23.771  0.00  0.00    +0.000 C 
ATOM     34  C   UNL     1      -5.204  18.022  25.366  0.00  0.00    +0.000 C 
ENDBRANCH  30  31
ENDBRANCH  26  30
ENDBRANCH  21  22
ENDBRANCH   3  21
TORSDOF 6
ENDMDL
MODEL 4
REMARK VINA RESULT:      -7.2      1.823      2.539
REMARK  Name = 
REMARK  10 active torsions:
REMARK  status: ('A' for Active; 'I' for Inactive)
REMARK    1  A    between atoms: C_1  and  N_2
REMARK    2  A    between atoms: C_3  and  C_4
REMARK    3  A    between atoms: C_4  and  C_5
REMARK    4  A    between atoms: C_9  and  O_11
REMARK    5  A    between atoms: O_11  and  C_12
REMARK    6  A    between atoms: C_12  and  C_13
REMARK    7  A    between atoms: C_12  and  C_14
REMARK    8  A    between atoms: C_12  and  C_15
REMARK    9  A    between atoms: C_21  and  C_22
REMARK   10  A    between atoms: N_24  and  C_25
REMARK                            x       y       z     vdW  Elec       q    Type
REMARK                         _______ _______ _______ _____ _____    ______ ____
ROOT
ATOM      1  C   UNL     1       0.024  14.458  20.219  0.00  0.00    +0.000 C 
ATOM      2  N   UNL     1      -0.154  13.164  20.830  0.00  0.00    +0.000 N 
ATOM      3  C   UNL     1      -0.539  12.877  22.121  0.00  0.00    +0.000 A 
ATOM      4  N   UNL     1      -0.299  11.602  22.389  0.00  0.00    +0.000 NA
ATOM      5  C   UNL     1       0.209  11.047  21.238  0.00  0.00    +0.000 A 
ATOM      6  C   UNL     1       0.695   9.749  20.992  0.00  0.00    +0.000 A 
ATOM      7  C   UNL     1       1.124   9.434  19.693  0.00  0.00    +0.000 A 
ATOM      8  C   UNL     1       1.075  10.394  18.668  0.00  0.00    +0.000 A 
ATOM      9  C   UNL     1       0.638  11.696  18.914  0.00  0.00    +0.000 A 
ATOM     10  C   UNL     1       0.230  11.989  20.218  0.00  0.00    +0.000 A 
ENDROOT
BRANCH   7  11
ATOM     11  C   UNL     1       1.705   8.108  19.341  0.00  0.00    +0.000 C 
ATOM     12  O   UNL     1       2.063   7.925  18.186  0.00  0.00    +0.000 OA
ATOM     13  N   UNL     1       1.725   7.173  20.361  0.00  0.00    +0.000 N 
ATOM     14  H   UNL     1       1.225   7.400  21.210  0.00  0.00    +0.000 HD
BRANCH  13  15
ATOM     15  C   UNL     1       2.211   5.850  20.251  0.00  0.00    +0.000 A 
ATOM     16  C   UNL     1       1.526   4.723  20.704  0.00  0.00    +0.000 A 
ATOM     17  C   UNL     1       2.112   3.461  20.592  0.00  0.00    +0.000 A 
ATOM     18  C   UNL     1       3.362   3.365  20.017  0.00  0.00    +0.000 A 
ATOM     19  N   UNL     1       4.047   4.421  19.532  0.00  0.00    +0.000 NA
ATOM     20  C   UNL     1       3.452   5.633  19.659  0.00  0.00    +0.000 A 
ENDBRANCH  13  15
ENDBRANCH   7  11
BRANCH   3  21
ATOM     21  C   UNL     1      -0.962  13.889  23.141  0.00  0.00    +0.000 C 
BRANCH  21  22
ATOM     22  C   UNL     1      -2.405  14.438  23.104  0.00  0.00    +0.000 C 
ATOM     23  C   UNL     1      -3.455  13.523  23.728  0.00  0.00    +0.000 C 
ATOM     24  C   UNL     1      -4.072  12.556  22.735  0.00  0.00    +0.000 C 
ATOM     25  N   UNL     1      -4.644  13.241  21.584  0.00  0.00    +0.000 N 
ATOM     26  C   UNL     1      -5.695  12.576  20.951  0.00  0.00    +0.000 C 
ATOM     27  O   UNL     1      -6.202  11.559  21.414  0.00  0.00    +0.000 OA
ATOM     28  C   UNL     1      -3.786  14.181  20.877  0.00  0.00    +0.000 C 
ATOM     29  C   UNL     1      -2.909  15.055  21.784  0.00  0.00    +0.000 C 
BRANCH  26  30
ATOM     30  O   UNL     1      -6.105  13.155  19.784  0.00  0.00    +0.000 OA
BRANCH  30  31
ATOM     31  C   UNL     1      -6.108  12.350  18.567  0.00  0.00    +0.000 C 
ATOM     32  C   UNL     1      -6.418  13.198  17.321  0.00  0.00    +0.000 C 
ATOM     33  C   UNL     1      -4.682  11.795  18.407  0.00  0.00    +0.000 C 
ATOM     34  C   UNL     1      -7.063  11.154  18.699  0.00  0.00    +0.000 C 
ENDBRANCH  30  31
ENDBRANCH  26  30
ENDBRANCH  21  22
ENDBRANCH   3  21
TORSDOF 6
ENDMDL
MODEL 5
REMARK VINA RESULT:      -7.1      4.325      6.836
REMARK  Name = 
REMARK  10 active torsions:
REMARK  status: ('A' for Active; 'I' for Inactive)
REMARK    1  A    between atoms: C_1  and  N_2
REMARK    2  A    between atoms: C_3  and  C_4
REMARK    3  A    between atoms: C_4  and  C_5
REMARK    4  A    between atoms: C_9  and  O_11
REMARK    5  A    between atoms: O_11  and  C_12
REMARK    6  A    between atoms: C_12  and  C_13
REMARK    7  A    between atoms: C_12  and  C_14
REMARK    8  A    between atoms: C_12  and  C_15
REMARK    9  A    between atoms: C_21  and  C_22
REMARK   10  A    between atoms: N_24  and  C_25
REMARK                            x       y       z     vdW  Elec       q    Type
REMARK                         _______ _______ _______ _____ _____    ______ ____
ROOT
ATOM      1  C   UNL     1      -0.736  10.550  21.861  0.00  0.00    +0.000 C 
ATOM      2  N   UNL     1       0.129  10.619  20.710  0.00  0.00    +0.000 N 
ATOM      3  C   UNL     1       0.191  11.604  19.749  0.00  0.00    +0.000 A 
ATOM      4  N   UNL     1       0.885  11.173  18.706  0.00  0.00    +0.000 NA
ATOM      5  C   UNL     1       1.314   9.904  19.018  0.00  0.00    +0.000 A 
ATOM      6  C   UNL     1       2.025   8.969  18.243  0.00  0.00    +0.000 A 
ATOM      7  C   UNL     1       2.374   7.743  18.832  0.00  0.00    +0.000 A 
ATOM      8  C   UNL     1       2.016   7.458  20.159  0.00  0.00    +0.000 A 
ATOM      9  C   UNL     1       1.272   8.360  20.920  0.00  0.00    +0.000 A 
ATOM     10  C   UNL     1       0.924   9.566  20.307  0.00  0.00    +0.000 A 
ENDROOT
BRANCH   7  11
ATOM     11  C   UNL     1       3.078   6.665  18.082  0.00  0.00    +0.000 C 
ATOM     12  O   UNL     1       2.529   5.576  17.989  0.00  0.00    +0.000 OA
ATOM     13  N   UNL     1       4.338   6.990  17.609  0.00  0.00    +0.000 N 
ATOM     14  H   UNL     1       4.742   7.862  17.922  0.00  0.00    +0.000 HD
BRANCH  13  15
ATOM     15  C   UNL     1       5.192   6.122  16.890  0.00  0.00    +0.000 A 
ATOM     16  C   UNL     1       6.045   5.193  17.484  0.00  0.00    +0.000 A 
ATOM     17  C   UNL     1       6.886   4.412  16.689  0.00  0.00    +0.000 A 
ATOM     18  C   UNL     1       6.837   4.578  15.320  0.00  0.00    +0.000 A 
ATOM     19  N   UNL     1       6.004   5.438  14.698  0.00  0.00    +0.000 NA
ATOM     20  C   UNL     1       5.202   6.183  15.500  0.00  0.00    +0.000 A 
ENDBRANCH  13  15
ENDBRANCH   7  11
BRANCH   3  21
ATOM     21  C   UNL     1      -0.583  12.887  19.776  0.00  0.00    +0.000 C 
BRANCH  21  22
ATOM     22  C   UNL     1       0.156  14.206  20.088  0.00  0.00    +0.000 C 
ATOM     23  C   UNL     1       0.638  14.976  18.860  0.00  0.00    +0.000 C 
ATOM     24  C   UNL     1       2.040  14.593  18.427  0.00  0.00    +0.000 C 
ATOM     25  N   UNL     1       3.008  14.739  19.506  0.00  0.00    +0.000 N 
ATOM     26  C   UNL     1       4.321  14.988  19.104  0.00  0.00    +0.000 C 
ATOM     27  O   UNL     1       4.618  15.216  17.935  0.00  0.00    +0.000 OA
ATOM     28  C   UNL     1       2.697  14.088  20.769  0.00  0.00    +0.000 C 
ATOM     29  C   UNL     1       1.226  14.190  21.197  0.00  0.00    +0.000 C 
BRANCH  26  30
ATOM     30  O   UNL     1       5.234  14.959  20.118  0.00  0.00    +0.000 OA
BRANCH  30  31
ATOM     31  C   UNL     1       6.138  16.093  20.279  0.00  0.00    +0.000 C 
ATOM     32  C   UNL     1       7.135  16.201  19.113  0.00  0.00    +0.000 C 
ATOM     33  C   UNL     1       5.261  17.357  20.258  0.00  0.00    +0.000 C 
ATOM     34  C   UNL     1       6.850  16.041  21.640  0.00  0.00    +0.000 C 
ENDBRANCH  30  31
ENDBRANCH  26  30
ENDBRANCH  21  22
ENDBRANCH   3  21
TORSDOF 6
ENDMDL
MODEL 6
REMARK VINA RESULT:      -7.1      3.361     11.493
REMARK  Name = 
REMARK  10 active torsions:
REMARK  status: ('A' for Active; 'I' for Inactive)
REMARK    1  A    between atoms: C_1  and  N_2
REMARK    2  A    between atoms: C_3  and  C_4
REMARK    3  A    between atoms: C_4  and  C_5
REMARK    4  A    between atoms: C_9  and  O_11
REMARK    5  A    between atoms: O_11  and  C_12
REMARK    6  A    between atoms: C_12  and  C_13
REMARK    7  A    between atoms: C_12  and  C_14
REMARK    8  A    between atoms: C_12  and  C_15
REMARK    9  A    between atoms: C_21  and  C_22
REMARK   10  A    between atoms: N_24  and  C_25
REMARK                            x       y       z     vdW  Elec       q    Type
REMARK                         _______ _______ _______ _____ _____    ______ ____
ROOT
ATOM      1  C   UNL     1       2.315   7.208  17.490  0.00  0.00    +0.000 C 
ATOM      2  N   UNL     1       2.118   7.090  18.913  0.00  0.00    +0.000 N 
ATOM      3  C   UNL     1       2.155   5.951  19.687  0.00  0.00    +0.000 A 
ATOM      4  N   UNL     1       1.634   6.200  20.880  0.00  0.00    +0.000 NA
ATOM      5  C   UNL     1       1.296   7.533  20.890  0.00  0.00    +0.000 A 
ATOM      6  C   UNL     1       0.647   8.299  21.877  0.00  0.00    +0.000 A 
ATOM      7  C   UNL     1       0.460   9.670  21.640  0.00  0.00    +0.000 A 
ATOM      8  C   UNL     1       0.904  10.259  20.445  0.00  0.00    +0.000 A 
ATOM      9  C   UNL     1       1.507   9.499  19.442  0.00  0.00    +0.000 A 
ATOM     10  C   UNL     1       1.669   8.134  19.695  0.00  0.00    +0.000 A 
ENDROOT
BRANCH   7  11
ATOM     11  C   UNL     1      -0.262  10.557  22.594  0.00  0.00    +0.000 C 
ATOM     12  O   UNL     1      -0.251  10.256  23.780  0.00  0.00    +0.000 OA
ATOM     13  N   UNL     1      -0.942  11.621  22.026  0.00  0.00    +0.000 N 
ATOM     14  H   UNL     1      -1.019  11.639  21.018  0.00  0.00    +0.000 HD
BRANCH  13  15
ATOM     15  C   UNL     1      -1.706  12.576  22.734  0.00  0.00    +0.000 A 
ATOM     16  C   UNL     1      -1.170  13.702  23.359  0.00  0.00    +0.000 A 
ATOM     17  C   UNL     1      -2.003  14.563  24.076  0.00  0.00    +0.000 A 
ATOM     18  C   UNL     1      -3.352  14.277  24.133  0.00  0.00    +0.000 A 
ATOM     19  N   UNL     1      -3.921  13.221  23.516  0.00  0.00    +0.000 NA
ATOM     20  C   UNL     1      -3.084  12.403  22.830  0.00  0.00    +0.000 A 
ENDBRANCH  13  15
ENDBRANCH   7  11
BRANCH   3  21
ATOM     21  C   UNL     1       2.524   4.585  19.196  0.00  0.00    +0.000 C 
BRANCH  21  22
ATOM     22  C   UNL     1       4.006   4.151  19.217  0.00  0.00    +0.000 C 
ATOM     23  C   UNL     1       5.002   5.284  19.452  0.00  0.00    +0.000 C 
ATOM     24  C   UNL     1       5.478   5.937  18.169  0.00  0.00    +0.000 C 
ATOM     25  N   UNL     1       6.048   4.972  17.239  0.00  0.00    +0.000 N 
ATOM     26  C   UNL     1       7.002   5.480  16.356  0.00  0.00    +0.000 C 
ATOM     27  O   UNL     1       7.440   6.623  16.449  0.00  0.00    +0.000 OA
ATOM     28  C   UNL     1       5.242   3.804  16.917  0.00  0.00    +0.000 C 
ATOM     29  C   UNL     1       4.493   3.194  18.111  0.00  0.00    +0.000 C 
BRANCH  26  30
ATOM     30  O   UNL     1       7.400   4.599  15.391  0.00  0.00    +0.000 OA
BRANCH  30  31
ATOM     31  C   UNL     1       6.881   4.761  14.037  0.00  0.00    +0.000 C 
ATOM     32  C   UNL     1       6.359   3.434  13.462  0.00  0.00    +0.000 C 
ATOM     33  C   UNL     1       5.685   5.724  14.141  0.00  0.00    +0.000 C 
ATOM     34  C   UNL     1       7.927   5.413  13.120  0.00  0.00    +0.000 C 
ENDBRANCH  30  31
ENDBRANCH  26  30
ENDBRANCH  21  22
ENDBRANCH   3  21
TORSDOF 6
ENDMDL
MODEL 7
REMARK VINA RESULT:      -7.1      1.066      1.553
REMARK  Name = 
REMARK  10 active torsions:
REMARK  status: ('A' for Active; 'I' for Inactive)
REMARK    1  A    between atoms: C_1  and  N_2
REMARK    2  A    between atoms: C_3  and  C_4
REMARK    3  A    between atoms: C_4  and  C_5
REMARK    4  A    between atoms: C_9  and  O_11
REMARK    5  A    between atoms: O_11  and  C_12
REMARK    6  A    between atoms: C_12  and  C_13
REMARK    7  A    between atoms: C_12  and  C_14
REMARK    8  A    between atoms: C_12  and  C_15
REMARK    9  A    between atoms: C_21  and  C_22
REMARK   10  A    between atoms: N_24  and  C_25
REMARK                            x       y       z     vdW  Elec       q    Type
REMARK                         _______ _______ _______ _____ _____    ______ ____
ROOT
ATOM      1  C   UNL     1       1.786  12.658  18.206  0.00  0.00    +0.000 C 
ATOM      2  N   UNL     1       1.169  11.683  19.071  0.00  0.00    +0.000 N 
ATOM      3  C   UNL     1       0.419  11.904  20.205  0.00  0.00    +0.000 A 
ATOM      4  N   UNL     1       0.285  10.773  20.884  0.00  0.00    +0.000 NA
ATOM      5  C   UNL     1       0.923   9.799  20.152  0.00  0.00    +0.000 A 
ATOM      6  C   UNL     1       1.144   8.440  20.446  0.00  0.00    +0.000 A 
ATOM      7  C   UNL     1       1.801   7.650  19.489  0.00  0.00    +0.000 A 
ATOM      8  C   UNL     1       2.230   8.205  18.273  0.00  0.00    +0.000 A 
ATOM      9  C   UNL     1       2.056   9.561  17.992  0.00  0.00    +0.000 A 
ATOM     10  C   UNL     1       1.414  10.330  18.967  0.00  0.00    +0.000 A 
ENDROOT
BRANCH   7  11
ATOM     11  C   UNL     1       2.131   6.217  19.724  0.00  0.00    +0.000 C 
ATOM     12  O   UNL     1       1.840   5.728  20.806  0.00  0.00    +0.000 OA
ATOM     13  N   UNL     1       2.806   5.582  18.695  0.00  0.00    +0.000 N 
ATOM     14  H   UNL     1       3.147   6.157  17.937  0.00  0.00    +0.000 HD
BRANCH  13  15
ATOM     15  C   UNL     1       3.235   4.235  18.705  0.00  0.00    +0.000 A 
ATOM     16  C   UNL     1       2.617   3.210  17.990  0.00  0.00    +0.000 A 
ATOM     17  C   UNL     1       3.087   1.900  18.103  0.00  0.00    +0.000 A 
ATOM     18  C   UNL     1       4.172   1.659  18.921  0.00  0.00    +0.000 A 
ATOM     19  N   UNL     1       4.824   2.622  19.604  0.00  0.00    +0.000 NA
ATOM     20  C   UNL     1       4.341   3.883  19.475  0.00  0.00    +0.000 A 
ENDBRANCH  13  15
ENDBRANCH   7  11
BRANCH   3  21
ATOM     21  C   UNL     1      -0.002  13.248  20.714  0.00  0.00    +0.000 C 
BRANCH  21  22
ATOM     22  C   UNL     1      -1.450  13.726  20.472  0.00  0.00    +0.000 C 
ATOM     23  C   UNL     1      -1.886  14.910  21.331  0.00  0.00    +0.000 C 
ATOM     24  C   UNL     1      -2.516  14.495  22.647  0.00  0.00    +0.000 C 
ATOM     25  N   UNL     1      -3.641  13.590  22.456  0.00  0.00    +0.000 N 
ATOM     26  C   UNL     1      -4.610  13.618  23.461  0.00  0.00    +0.000 C 
ATOM     27  O   UNL     1      -4.595  14.448  24.365  0.00  0.00    +0.000 OA
ATOM     28  C   UNL     1      -3.413  12.411  21.635  0.00  0.00    +0.000 C 
ATOM     29  C   UNL     1      -2.557  12.657  20.384  0.00  0.00    +0.000 C 
BRANCH  26  30
ATOM     30  O   UNL     1      -5.567  12.651  23.345  0.00  0.00    +0.000 OA
BRANCH  30  31
ATOM     31  C   UNL     1      -6.919  13.046  22.963  0.00  0.00    +0.000 C 
ATOM     32  C   UNL     1      -7.903  11.866  23.036  0.00  0.00    +0.000 C 
ATOM     33  C   UNL     1      -7.374  14.094  23.993  0.00  0.00    +0.000 C 
ATOM     34  C   UNL     1      -6.927  13.716  21.580  0.00  0.00    +0.000 C 
ENDBRANCH  30  31
ENDBRANCH  26  30
ENDBRANCH  21  22
ENDBRANCH   3  21
TORSDOF 6
ENDMDL
MODEL 8
REMARK VINA RESULT:      -7.1      1.178      1.818
REMARK  Name = 
REMARK  10 active torsions:
REMARK  status: ('A' for Active; 'I' for Inactive)
REMARK    1  A    between atoms: C_1  and  N_2
REMARK    2  A    between atoms: C_3  and  C_4
REMARK    3  A    between atoms: C_4  and  C_5
REMARK    4  A    between atoms: C_9  and  O_11
REMARK    5  A    between atoms: O_11  and  C_12
REMARK    6  A    between atoms: C_12  and  C_13
REMARK    7  A    between atoms: C_12  and  C_14
REMARK    8  A    between atoms: C_12  and  C_15
REMARK    9  A    between atoms: C_21  and  C_22
REMARK   10  A    between atoms: N_24  and  C_25
REMARK                            x       y       z     vdW  Elec       q    Type
REMARK                         _______ _______ _______ _____ _____    ______ ____
ROOT
ATOM      1  C   UNL     1      -0.690  11.502  22.678  0.00  0.00    +0.000 C 
ATOM      2  N   UNL     1       0.203  11.379  21.553  0.00  0.00    +0.000 N 
ATOM      3  C   UNL     1       0.497  12.321  20.592  0.00  0.00    +0.000 A 
ATOM      4  N   UNL     1       1.116  11.745  19.571  0.00  0.00    +0.000 NA
ATOM      5  C   UNL     1       1.261  10.417  19.900  0.00  0.00    +0.000 A 
ATOM      6  C   UNL     1       1.783   9.347  19.149  0.00  0.00    +0.000 A 
ATOM      7  C   UNL     1       1.851   8.080  19.751  0.00  0.00    +0.000 A 
ATOM      8  C   UNL     1       1.403   7.888  21.068  0.00  0.00    +0.000 A 
ATOM      9  C   UNL     1       0.842   8.933  21.804  0.00  0.00    +0.000 A 
ATOM     10  C   UNL     1       0.772  10.180  21.177  0.00  0.00    +0.000 A 
ENDROOT
BRANCH   7  11
ATOM     11  C   UNL     1       2.335   6.873  19.026  0.00  0.00    +0.000 C 
ATOM     12  O   UNL     1       2.832   7.027  17.920  0.00  0.00    +0.000 OA
ATOM     13  N   UNL     1       2.112   5.663  19.662  0.00  0.00    +0.000 N 
ATOM     14  H   UNL     1       1.523   5.671  20.484  0.00  0.00    +0.000 HD
BRANCH  13  15
ATOM     15  C   UNL     1       2.469   4.393  19.155  0.00  0.00    +0.000 A 
ATOM     16  C   UNL     1       3.725   3.810  19.315  0.00  0.00    +0.000 A 
ATOM     17  C   UNL     1       3.996   2.569  18.734  0.00  0.00    +0.000 A 
ATOM     18  C   UNL     1       2.994   1.944  18.020  0.00  0.00    +0.000 A 
ATOM     19  N   UNL     1       1.753   2.453  17.868  0.00  0.00    +0.000 NA
ATOM     20  C   UNL     1       1.524   3.660  18.442  0.00  0.00    +0.000 A 
ENDBRANCH  13  15
ENDBRANCH   7  11
BRANCH   3  21
ATOM     21  C   UNL     1       0.008  13.736  20.592  0.00  0.00    +0.000 C 
BRANCH  21  22
ATOM     22  C   UNL     1      -1.411  14.044  20.067  0.00  0.00    +0.000 C 
ATOM     23  C   UNL     1      -2.225  14.996  20.939  0.00  0.00    +0.000 C 
ATOM     24  C   UNL     1      -3.049  14.283  21.994  0.00  0.00    +0.000 C 
ATOM     25  N   UNL     1      -3.930  13.277  21.416  0.00  0.00    +0.000 N 
ATOM     26  C   UNL     1      -5.087  13.002  22.147  0.00  0.00    +0.000 C 
ATOM     27  O   UNL     1      -5.417  13.663  23.127  0.00  0.00    +0.000 OA
ATOM     28  C   UNL     1      -3.324  12.295  20.530  0.00  0.00    +0.000 C 
ATOM     29  C   UNL     1      -2.268  12.863  19.571  0.00  0.00    +0.000 C 
BRANCH  26  30
ATOM     30  O   UNL     1      -5.812  11.946  21.674  0.00  0.00    +0.000 OA
BRANCH  30  31
ATOM     31  C   UNL     1      -7.045  12.216  20.941  0.00  0.00    +0.000 C 
ATOM     32  C   UNL     1      -6.766  12.641  19.489  0.00  0.00    +0.000 C 
ATOM     33  C   UNL     1      -7.823  10.889  20.894  0.00  0.00    +0.000 C 
ATOM     34  C   UNL     1      -7.914  13.242  21.683  0.00  0.00    +0.000 C 
ENDBRANCH  30  31
ENDBRANCH  26  30
ENDBRANCH  21  22
ENDBRANCH   3  21
TORSDOF 6
ENDMDL
MODEL 9
REMARK VINA RESULT:      -7.0      2.368     11.208
REMARK  Name = 
REMARK  10 active torsions:
REMARK  status: ('A' for Active; 'I' for Inactive)
REMARK    1  A    between atoms: C_1  and  N_2
REMARK    2  A    between atoms: C_3  and  C_4
REMARK    3  A    between atoms: C_4  and  C_5
REMARK    4  A    between atoms: C_9  and  O_11
REMARK    5  A    between atoms: O_11  and  C_12
REMARK    6  A    between atoms: C_12  and  C_13
REMARK    7  A    between atoms: C_12  and  C_14
REMARK    8  A    between atoms: C_12  and  C_15
REMARK    9  A    between atoms: C_21  and  C_22
REMARK   10  A    between atoms: N_24  and  C_25
REMARK                            x       y       z     vdW  Elec       q    Type
REMARK                         _______ _______ _______ _____ _____    ______ ____
ROOT
ATOM      1  C   UNL     1       1.060   9.870  18.933  0.00  0.00    +0.000 C 
ATOM      2  N   UNL     1       0.738   9.920  20.338  0.00  0.00    +0.000 N 
ATOM      3  C   UNL     1       1.072   9.014  21.320  0.00  0.00    +0.000 A 
ATOM      4  N   UNL     1       0.351   9.245  22.408  0.00  0.00    +0.000 NA
ATOM      5  C   UNL     1      -0.428  10.344  22.137  0.00  0.00    +0.000 A 
ATOM      6  C   UNL     1      -1.422  10.968  22.914  0.00  0.00    +0.000 A 
ATOM      7  C   UNL     1      -2.044  12.119  22.403  0.00  0.00    +0.000 A 
ATOM      8  C   UNL     1      -1.686  12.628  21.144  0.00  0.00    +0.000 A 
ATOM      9  C   UNL     1      -0.735  11.989  20.346  0.00  0.00    +0.000 A 
ATOM     10  C   UNL     1      -0.141  10.839  20.871  0.00  0.00    +0.000 A 
ENDROOT
BRANCH   7  11
ATOM     11  C   UNL     1      -3.144  12.822  23.120  0.00  0.00    +0.000 C 
ATOM     12  O   UNL     1      -2.886  13.350  24.193  0.00  0.00    +0.000 OA
ATOM     13  N   UNL     1      -4.390  12.752  22.521  0.00  0.00    +0.000 N 
ATOM     14  H   UNL     1      -4.495  12.125  21.735  0.00  0.00    +0.000 HD
BRANCH  13  15
ATOM     15  C   UNL     1      -5.577  13.327  23.030  0.00  0.00    +0.000 A 
ATOM     16  C   UNL     1      -6.446  12.682  23.909  0.00  0.00    +0.000 A 
ATOM     17  C   UNL     1      -7.620  13.316  24.318  0.00  0.00    +0.000 A 
ATOM     18  C   UNL     1      -7.881  14.586  23.846  0.00  0.00    +0.000 A 
ATOM     19  N   UNL     1      -7.054  15.264  23.023  0.00  0.00    +0.000 NA
ATOM     20  C   UNL     1      -5.923  14.619  22.642  0.00  0.00    +0.000 A 
ENDBRANCH  13  15
ENDBRANCH   7  11
BRANCH   3  21
ATOM     21  C   UNL     1       1.952   7.818  21.129  0.00  0.00    +0.000 C 
BRANCH  21  22
ATOM     22  C   UNL     1       1.485   6.679  20.197  0.00  0.00    +0.000 C 
ATOM     23  C   UNL     1       1.844   5.273  20.673  0.00  0.00    +0.000 C 
ATOM     24  C   UNL     1       3.189   4.794  20.160  0.00  0.00    +0.000 C 
ATOM     25  N   UNL     1       3.276   4.854  18.707  0.00  0.00    +0.000 N 
ATOM     26  C   UNL     1       4.156   3.943  18.121  0.00  0.00    +0.000 C 
ATOM     27  O   UNL     1       4.705   3.054  18.765  0.00  0.00    +0.000 OA
ATOM     28  C   UNL     1       2.940   6.121  18.074  0.00  0.00    +0.000 C 
ATOM     29  C   UNL     1       1.728   6.840  18.684  0.00  0.00    +0.000 C 
BRANCH  26  30
ATOM     30  O   UNL     1       4.344   4.126  16.781  0.00  0.00    +0.000 OA
BRANCH  30  31
ATOM     31  C   UNL     1       5.643   4.600  16.314  0.00  0.00    +0.000 C 
ATOM     32  C   UNL     1       6.232   3.680  15.231  0.00  0.00    +0.000 C 
ATOM     33  C   UNL     1       5.400   5.977  15.672  0.00  0.00    +0.000 C 
ATOM     34  C   UNL     1       6.612   4.797  17.490  0.00  0.00    +0.000 C 
ENDBRANCH  30  31
ENDBRANCH  26  30
ENDBRANCH  21  22
ENDBRANCH   3  21
TORSDOF 6
ENDMDL
