MODEL 1
REMARK VINA RESULT:      -7.9      0.000      0.000
REMARK  Name = 
REMARK  7 active torsions:
REMARK  status: ('A' for Active; 'I' for Inactive)
REMARK    1  A    between atoms: C_1  and  C_2
REMARK    2  A    between atoms: C_2  and  N_3
REMARK    3  A    between atoms: N_11  and  O_12
REMARK    4  A    between atoms: O_12  and  C_13
REMARK    5  A    between atoms: C_13  and  C_14
REMARK    6  A    between atoms: C_21  and  O_22
REMARK    7  A    between atoms: C_23  and  O_24
REMARK                            x       y       z     vdW  Elec       q    Type
REMARK                         _______ _______ _______ _____ _____    ______ ____
ROOT
ATOM      1  N   UNL     1       1.137   9.101  19.952  0.00  0.00    +0.000 N 
ATOM      2  C   UNL     1       1.658   9.367  18.710  0.00  0.00    +0.000 C 
ATOM      3  O   UNL     1       1.747  10.446  18.151  0.00  0.00    +0.000 OA
ATOM      4  C   UNL     1       2.086   8.040  18.145  0.00  0.00    +0.000 C 
ATOM      5  C   UNL     1       3.208   8.054  17.118  0.00  0.00    +0.000 C 
ATOM      6  C   UNL     1       4.106   6.811  17.235  0.00  0.00    +0.000 C 
ATOM      7  C   UNL     1       3.322   5.587  17.734  0.00  0.00    +0.000 C 
ATOM      8  C   UNL     1       3.947   4.179  17.690  0.00  0.00    +0.000 C 
ATOM      9  N   UNL     1       5.129   3.828  17.274  0.00  0.00    +0.000 NA
ATOM     10  C   UNL     1       3.015   3.044  18.118  0.00  0.00    +0.000 C 
ATOM     11  C   UNL     1       2.264   3.363  19.409  0.00  0.00    +0.000 C 
ATOM     12  C   UNL     1       1.671   4.793  19.423  0.00  0.00    +0.000 C 
ATOM     13  C   UNL     1       2.790   5.824  19.187  0.00  0.00    +0.000 C 
ATOM     14  C   UNL     1       2.502   7.313  19.414  0.00  0.00    +0.000 C 
ATOM     15  C   UNL     1       1.544   7.875  20.440  0.00  0.00    +0.000 C 
ATOM     16  O   UNL     1       1.368   7.451  21.570  0.00  0.00    +0.000 OA
ENDROOT
BRANCH   1  18
ATOM     17  C   UNL     1      -0.827  10.566  20.213  0.00  0.00    +0.000 C 
ATOM     18  C   UNL     1       0.505  10.103  20.786  0.00  0.00    +0.000 C 
ENDBRANCH   1  18
BRANCH  11  19
ATOM     19  O   UNL     1       3.112   3.170  20.552  0.00  0.00    +0.000 OA
ATOM     20  H   UNL     1       2.606   3.326  21.369  0.00  0.00    +0.000 HD
ENDBRANCH  11  19
BRANCH  12  21
ATOM     21  O   UNL     1       0.991   5.001  20.643  0.00  0.00    +0.000 OA
ATOM     22  H   UNL     1       0.577   5.886  20.619  0.00  0.00    +0.000 HD
ENDBRANCH  12  21
BRANCH   9  23
ATOM     23  O   UNL     1       5.873   4.920  16.841  0.00  0.00    +0.000 OA
BRANCH  23  24
ATOM     24  C   UNL     1       7.137   4.529  16.312  0.00  0.00    +0.000 C 
BRANCH  24  25
ATOM     25  C   UNL     1       6.990   4.518  14.813  0.00  0.00    +0.000 A 
ATOM     26  C   UNL     1       6.071   3.650  14.209  0.00  0.00    +0.000 A 
ATOM     27  C   UNL     1       5.997   3.553  12.818  0.00  0.00    +0.000 A 
ATOM     28  C   UNL     1       6.846   4.318  12.022  0.00  0.00    +0.000 A 
ATOM     29  C   UNL     1       7.757   5.193  12.610  0.00  0.00    +0.000 A 
ATOM     30  C   UNL     1       7.831   5.292  14.001  0.00  0.00    +0.000 A 
ENDBRANCH  24  25
ENDBRANCH  23  24
ENDBRANCH   9  23
TORSDOF 6
ENDMDL
MODEL 2
REMARK VINA RESULT:      -7.9      1.735      2.695
REMARK  Name = 
REMARK  7 active torsions:
REMARK  status: ('A' for Active; 'I' for Inactive)
REMARK    1  A    between atoms: C_1  and  C_2
REMARK    2  A    between atoms: C_2  and  N_3
REMARK    3  A    between atoms: N_11  and  O_12
REMARK    4  A    between atoms: O_12  and  C_13
REMARK    5  A    between atoms: C_13  and  C_14
REMARK    6  A    between atoms: C_21  and  O_22
REMARK    7  A    between atoms: C_23  and  O_24
REMARK                            x       y       z     vdW  Elec       q    Type
REMARK                         _______ _______ _______ _____ _____    ______ ____
ROOT
ATOM      1  N   UNL     1       1.302   8.840  20.068  0.00  0.00    +0.000 N 
ATOM      2  C   UNL     1       1.739   9.111  18.794  0.00  0.00    +0.000 C 
ATOM      3  O   UNL     1       1.858  10.199  18.259  0.00  0.00    +0.000 OA
ATOM      4  C   UNL     1       2.024   7.776  18.160  0.00  0.00    +0.000 C 
ATOM      5  C   UNL     1       3.058   7.748  17.044  0.00  0.00    +0.000 C 
ATOM      6  C   UNL     1       3.872   6.444  17.052  0.00  0.00    +0.000 C 
ATOM      7  C   UNL     1       3.047   5.260  17.581  0.00  0.00    +0.000 C 
ATOM      8  C   UNL     1       3.565   3.814  17.447  0.00  0.00    +0.000 C 
ATOM      9  N   UNL     1       4.682   3.398  16.925  0.00  0.00    +0.000 NA
ATOM     10  C   UNL     1       2.593   2.732  17.920  0.00  0.00    +0.000 C 
ATOM     11  C   UNL     1       1.973   3.059  19.277  0.00  0.00    +0.000 C 
ATOM     12  C   UNL     1       1.486   4.525  19.379  0.00  0.00    +0.000 C 
ATOM     13  C   UNL     1       2.652   5.484  19.079  0.00  0.00    +0.000 C 
ATOM     14  C   UNL     1       2.489   6.982  19.369  0.00  0.00    +0.000 C 
ATOM     15  C   UNL     1       1.659   7.574  20.486  0.00  0.00    +0.000 C 
ATOM     16  O   UNL     1       1.546   7.125  21.615  0.00  0.00    +0.000 OA
ENDROOT
BRANCH   1  18
ATOM     17  C   UNL     1      -0.591  10.320  20.613  0.00  0.00    +0.000 C 
ATOM     18  C   UNL     1       0.812   9.854  20.977  0.00  0.00    +0.000 C 
ENDBRANCH   1  18
BRANCH  11  19
ATOM     19  O   UNL     1       2.895   2.772  20.340  0.00  0.00    +0.000 OA
ATOM     20  H   UNL     1       2.590   3.190  21.164  0.00  0.00    +0.000 HD
ENDBRANCH  11  19
BRANCH  12  21
ATOM     21  O   UNL     1       0.923   4.739  20.656  0.00  0.00    +0.000 OA
ATOM     22  H   UNL     1       1.626   4.626  21.326  0.00  0.00    +0.000 HD
ENDBRANCH  12  21
BRANCH   9  23
ATOM     23  O   UNL     1       5.464   4.450  16.462  0.00  0.00    +0.000 OA
BRANCH  23  24
ATOM     24  C   UNL     1       6.843   4.268  16.774  0.00  0.00    +0.000 C 
BRANCH  24  25
ATOM     25  C   UNL     1       7.292   5.522  17.476  0.00  0.00    +0.000 A 
ATOM     26  C   UNL     1       7.280   6.746  16.795  0.00  0.00    +0.000 A 
ATOM     27  C   UNL     1       7.792   7.898  17.397  0.00  0.00    +0.000 A 
ATOM     28  C   UNL     1       8.326   7.831  18.681  0.00  0.00    +0.000 A 
ATOM     29  C   UNL     1       8.334   6.623  19.374  0.00  0.00    +0.000 A 
ATOM     30  C   UNL     1       7.822   5.471  18.774  0.00  0.00    +0.000 A 
ENDBRANCH  24  25
ENDBRANCH  23  24
ENDBRANCH   9  23
TORSDOF 6
ENDMDL
MODEL 3
REMARK VINA RESULT:      -7.7      1.666      2.623
REMARK  Name = 
REMARK  7 active torsions:
REMARK  status: ('A' for Active; 'I' for Inactive)
REMARK    1  A    between atoms: C_1  and  C_2
REMARK    2  A    between atoms: C_2  and  N_3
REMARK    3  A    between atoms: N_11  and  O_12
REMARK    4  A    between atoms: O_12  and  C_13
REMARK    5  A    between atoms: C_13  and  C_14
REMARK    6  A    between atoms: C_21  and  O_22
REMARK    7  A    between atoms: C_23  and  O_24
REMARK                            x       y       z     vdW  Elec       q    Type
REMARK                         _______ _______ _______ _____ _____    ______ ____
ROOT
ATOM      1  N   UNL     1       1.323   8.621  20.291  0.00  0.00    +0.000 N 
ATOM      2  C   UNL     1       1.709   8.973  19.020  0.00  0.00    +0.000 C 
ATOM      3  O   UNL     1       1.811  10.093  18.552  0.00  0.00    +0.000 OA
ATOM      4  C   UNL     1       1.964   7.682  18.290  0.00  0.00    +0.000 C 
ATOM      5  C   UNL     1       2.952   7.725  17.134  0.00  0.00    +0.000 C 
ATOM      6  C   UNL     1       3.761   6.422  17.025  0.00  0.00    +0.000 C 
ATOM      7  C   UNL     1       2.954   5.207  17.509  0.00  0.00    +0.000 C 
ATOM      8  C   UNL     1       3.460   3.773  17.262  0.00  0.00    +0.000 C 
ATOM      9  N   UNL     1       4.554   3.390  16.670  0.00  0.00    +0.000 NA
ATOM     10  C   UNL     1       2.504   2.664  17.703  0.00  0.00    +0.000 C 
ATOM     11  C   UNL     1       1.940   2.903  19.103  0.00  0.00    +0.000 C 
ATOM     12  C   UNL     1       1.463   4.359  19.318  0.00  0.00    +0.000 C 
ATOM     13  C   UNL     1       2.620   5.335  19.034  0.00  0.00    +0.000 C 
ATOM     14  C   UNL     1       2.474   6.811  19.426  0.00  0.00    +0.000 C 
ATOM     15  C   UNL     1       1.692   7.330  20.612  0.00  0.00    +0.000 C 
ATOM     16  O   UNL     1       1.623   6.810  21.713  0.00  0.00    +0.000 OA
ENDROOT
BRANCH   1  18
ATOM     17  C   UNL     1      -0.499   9.223  21.836  0.00  0.00    +0.000 C 
ATOM     18  C   UNL     1       0.874   9.576  21.283  0.00  0.00    +0.000 C 
ENDBRANCH   1  18
BRANCH  11  19
ATOM     19  O   UNL     1       2.903   2.547  20.107  0.00  0.00    +0.000 OA
ATOM     20  H   UNL     1       2.536   2.716  20.992  0.00  0.00    +0.000 HD
ENDBRANCH  11  19
BRANCH  12  21
ATOM     21  O   UNL     1       0.954   4.491  20.629  0.00  0.00    +0.000 OA
ATOM     22  H   UNL     1       1.490   3.934  21.226  0.00  0.00    +0.000 HD
ENDBRANCH  12  21
BRANCH   9  23
ATOM     23  O   UNL     1       5.320   4.468  16.244  0.00  0.00    +0.000 OA
BRANCH  23  24
ATOM     24  C   UNL     1       6.717   4.212  16.364  0.00  0.00    +0.000 C 
BRANCH  24  25
ATOM     25  C   UNL     1       7.293   5.344  17.172  0.00  0.00    +0.000 A 
ATOM     26  C   UNL     1       7.740   5.111  18.479  0.00  0.00    +0.000 A 
ATOM     27  C   UNL     1       8.180   6.170  19.277  0.00  0.00    +0.000 A 
ATOM     28  C   UNL     1       8.167   7.469  18.776  0.00  0.00    +0.000 A 
ATOM     29  C   UNL     1       7.736   7.713  17.474  0.00  0.00    +0.000 A 
ATOM     30  C   UNL     1       7.297   6.655  16.674  0.00  0.00    +0.000 A 
ENDBRANCH  24  25
ENDBRANCH  23  24
ENDBRANCH   9  23
TORSDOF 6
ENDMDL
MODEL 4
REMARK VINA RESULT:      -7.7      1.003      1.153
REMARK  Name = 
REMARK  7 active torsions:
REMARK  status: ('A' for Active; 'I' for Inactive)
REMARK    1  A    between atoms: C_1  and  C_2
REMARK    2  A    between atoms: C_2  and  N_3
REMARK    3  A    between atoms: N_11  and  O_12
REMARK    4  A    between atoms: O_12  and  C_13
REMARK    5  A    between atoms: C_13  and  C_14
REMARK    6  A    between atoms: C_21  and  O_22
REMARK    7  A    between atoms: C_23  and  O_24
REMARK                            x       y       z     vdW  Elec       q    Type
REMARK                         _______ _______ _______ _____ _____    ______ ____
ROOT
ATOM      1  N   UNL     1       1.036   9.070  19.289  0.00  0.00    +0.000 N 
ATOM      2  C   UNL     1       1.878   9.135  18.205  0.00  0.00    +0.000 C 
ATOM      3  O   UNL     1       2.097  10.092  17.484  0.00  0.00    +0.000 OA
ATOM      4  C   UNL     1       2.475   7.762  18.059  0.00  0.00    +0.000 C 
ATOM      5  C   UNL     1       3.838   7.668  17.392  0.00  0.00    +0.000 C 
ATOM      6  C   UNL     1       4.694   6.542  17.997  0.00  0.00    +0.000 C 
ATOM      7  C   UNL     1       3.828   5.378  18.505  0.00  0.00    +0.000 C 
ATOM      8  C   UNL     1       4.470   4.039  18.919  0.00  0.00    +0.000 C 
ATOM      9  N   UNL     1       5.728   3.708  18.917  0.00  0.00    +0.000 NA
ATOM     10  C   UNL     1       3.479   2.938  19.301  0.00  0.00    +0.000 C 
ATOM     11  C   UNL     1       2.391   3.438  20.249  0.00  0.00    +0.000 C 
ATOM     12  C   UNL     1       1.788   4.794  19.811  0.00  0.00    +0.000 C 
ATOM     13  C   UNL     1       2.906   5.844  19.681  0.00  0.00    +0.000 C 
ATOM     14  C   UNL     1       2.535   7.323  19.513  0.00  0.00    +0.000 C 
ATOM     15  C   UNL     1       1.316   7.994  20.107  0.00  0.00    +0.000 C 
ATOM     16  O   UNL     1       0.841   7.780  21.209  0.00  0.00    +0.000 OA
ENDROOT
BRANCH   1  18
ATOM     17  C   UNL     1      -0.963  10.392  18.716  0.00  0.00    +0.000 C 
ATOM     18  C   UNL     1       0.176  10.161  19.699  0.00  0.00    +0.000 C 
ENDBRANCH   1  18
BRANCH  11  19
ATOM     19  O   UNL     1       2.889   3.531  21.592  0.00  0.00    +0.000 OA
ATOM     20  H   UNL     1       3.117   2.644  21.922  0.00  0.00    +0.000 HD
ENDBRANCH  11  19
BRANCH  12  21
ATOM     21  O   UNL     1       0.790   5.177  20.734  0.00  0.00    +0.000 OA
ATOM     22  H   UNL     1      -0.047   5.308  20.247  0.00  0.00    +0.000 HD
ENDBRANCH  12  21
BRANCH   9  23
ATOM     23  O   UNL     1       6.540   4.751  18.488  0.00  0.00    +0.000 OA
BRANCH  23  24
ATOM     24  C   UNL     1       7.569   4.301  17.611  0.00  0.00    +0.000 C 
BRANCH  24  25
ATOM     25  C   UNL     1       7.015   4.399  16.214  0.00  0.00    +0.000 A 
ATOM     26  C   UNL     1       5.876   3.664  15.863  0.00  0.00    +0.000 A 
ATOM     27  C   UNL     1       5.412   3.662  14.545  0.00  0.00    +0.000 A 
ATOM     28  C   UNL     1       6.089   4.388  13.570  0.00  0.00    +0.000 A 
ATOM     29  C   UNL     1       7.218   5.132  13.908  0.00  0.00    +0.000 A 
ATOM     30  C   UNL     1       7.682   5.136  15.224  0.00  0.00    +0.000 A 
ENDBRANCH  24  25
ENDBRANCH  23  24
ENDBRANCH   9  23
TORSDOF 6
ENDMDL
MODEL 5
REMARK VINA RESULT:      -7.5      4.203      6.460
REMARK  Name = 
REMARK  7 active torsions:
REMARK  status: ('A' for Active; 'I' for Inactive)
REMARK    1  A    between atoms: C_1  and  C_2
REMARK    2  A    between atoms: C_2  and  N_3
REMARK    3  A    between atoms: N_11  and  O_12
REMARK    4  A    between atoms: O_12  and  C_13
REMARK    5  A    between atoms: C_13  and  C_14
REMARK    6  A    between atoms: C_21  and  O_22
REMARK    7  A    between atoms: C_23  and  O_24
REMARK                            x       y       z     vdW  Elec       q    Type
REMARK                         _______ _______ _______ _____ _____    ______ ____
ROOT
ATOM      1  N   UNL     1       1.595  14.289  19.744  0.00  0.00    +0.000 N 
ATOM      2  C   UNL     1       1.706  13.507  18.620  0.00  0.00    +0.000 C 
ATOM      3  O   UNL     1       2.127  13.829  17.523  0.00  0.00    +0.000 OA
ATOM      4  C   UNL     1       1.174  12.152  19.001  0.00  0.00    +0.000 C 
ATOM      5  C   UNL     1       1.706  10.957  18.226  0.00  0.00    +0.000 C 
ATOM      6  C   UNL     1       1.825   9.707  19.114  0.00  0.00    +0.000 C 
ATOM      7  C   UNL     1       0.762   9.692  20.224  0.00  0.00    +0.000 C 
ATOM      8  C   UNL     1       0.526   8.429  21.074  0.00  0.00    +0.000 C 
ATOM      9  N   UNL     1       1.135   7.281  21.008  0.00  0.00    +0.000 NA
ATOM     10  C   UNL     1      -0.633   8.525  22.067  0.00  0.00    +0.000 C 
ATOM     11  C   UNL     1      -0.612   9.829  22.863  0.00  0.00    +0.000 C 
ATOM     12  C   UNL     1      -0.350  11.071  21.977  0.00  0.00    +0.000 C 
ATOM     13  C   UNL     1       0.971  10.893  21.207  0.00  0.00    +0.000 C 
ATOM     14  C   UNL     1       1.577  12.091  20.465  0.00  0.00    +0.000 C 
ATOM     15  C   UNL     1       1.466  13.537  20.894  0.00  0.00    +0.000 C 
ATOM     16  O   UNL     1       1.508  13.954  22.040  0.00  0.00    +0.000 OA
ENDROOT
BRANCH   1  18
ATOM     17  C   UNL     1       0.636  16.558  19.767  0.00  0.00    +0.000 C 
ATOM     18  C   UNL     1       1.897  15.705  19.765  0.00  0.00    +0.000 C 
ENDBRANCH   1  18
BRANCH  11  19
ATOM     19  O   UNL     1       0.359   9.765  23.919  0.00  0.00    +0.000 OA
ATOM     20  H   UNL     1       0.657  10.662  24.149  0.00  0.00    +0.000 HD
ENDBRANCH  11  19
BRANCH  12  21
ATOM     21  O   UNL     1      -0.353  12.227  22.787  0.00  0.00    +0.000 OA
ATOM     22  H   UNL     1      -0.292  11.950  23.722  0.00  0.00    +0.000 HD
ENDBRANCH  12  21
BRANCH   9  23
ATOM     23  O   UNL     1       2.122   7.272  20.030  0.00  0.00    +0.000 OA
BRANCH  23  24
ATOM     24  C   UNL     1       2.974   6.135  20.141  0.00  0.00    +0.000 C 
BRANCH  24  25
ATOM     25  C   UNL     1       2.181   4.955  19.644  0.00  0.00    +0.000 A 
ATOM     26  C   UNL     1       1.775   3.960  20.542  0.00  0.00    +0.000 A 
ATOM     27  C   UNL     1       1.130   2.809  20.082  0.00  0.00    +0.000 A 
ATOM     28  C   UNL     1       0.895   2.643  18.719  0.00  0.00    +0.000 A 
ATOM     29  C   UNL     1       1.285   3.630  17.817  0.00  0.00    +0.000 A 
ATOM     30  C   UNL     1       1.928   4.781  18.276  0.00  0.00    +0.000 A 
ENDBRANCH  24  25
ENDBRANCH  23  24
ENDBRANCH   9  23
TORSDOF 6
ENDMDL
MODEL 6
REMARK VINA RESULT:      -7.3      4.164      6.566
REMARK  Name = 
REMARK  7 active torsions:
REMARK  status: ('A' for Active; 'I' for Inactive)
REMARK    1  A    between atoms: C_1  and  C_2
REMARK    2  A    between atoms: C_2  and  N_3
REMARK    3  A    between atoms: N_11  and  O_12
REMARK    4  A    between atoms: O_12  and  C_13
REMARK    5  A    between atoms: C_13  and  C_14
REMARK    6  A    between atoms: C_21  and  O_22
REMARK    7  A    between atoms: C_23  and  O_24
REMARK                            x       y       z     vdW  Elec       q    Type
REMARK                         _______ _______ _______ _____ _____    ______ ____
ROOT
ATOM      1  N   UNL     1       1.257  14.462  19.905  0.00  0.00    +0.000 N 
ATOM      2  C   UNL     1       1.351  13.734  18.744  0.00  0.00    +0.000 C 
ATOM      3  O   UNL     1       1.707  14.120  17.645  0.00  0.00    +0.000 OA
ATOM      4  C   UNL     1       0.898  12.341  19.089  0.00  0.00    +0.000 C 
ATOM      5  C   UNL     1       1.447  11.205  18.241  0.00  0.00    +0.000 C 
ATOM      6  C   UNL     1       1.662   9.926  19.068  0.00  0.00    +0.000 C 
ATOM      7  C   UNL     1       0.652   9.816  20.221  0.00  0.00    +0.000 C 
ATOM      8  C   UNL     1       0.512   8.510  21.026  0.00  0.00    +0.000 C 
ATOM      9  N   UNL     1       1.168   7.395  20.884  0.00  0.00    +0.000 NA
ATOM     10  C   UNL     1      -0.605   8.511  22.071  0.00  0.00    +0.000 C 
ATOM     11  C   UNL     1      -0.606   9.780  22.921  0.00  0.00    +0.000 C 
ATOM     12  C   UNL     1      -0.440  11.068  22.079  0.00  0.00    +0.000 C 
ATOM     13  C   UNL     1       0.851  10.984  21.245  0.00  0.00    +0.000 C 
ATOM     14  C   UNL     1       1.370  12.238  20.530  0.00  0.00    +0.000 C 
ATOM     15  C   UNL     1       1.213  13.659  21.026  0.00  0.00    +0.000 C 
ATOM     16  O   UNL     1       1.288  14.029  22.186  0.00  0.00    +0.000 OA
ENDROOT
BRANCH   1  18
ATOM     17  C   UNL     1       2.978  16.217  20.079  0.00  0.00    +0.000 C 
ATOM     18  C   UNL     1       1.495  15.889  19.974  0.00  0.00    +0.000 C 
ENDBRANCH   1  18
BRANCH  11  19
ATOM     19  O   UNL     1       0.414   9.718  23.931  0.00  0.00    +0.000 OA
ATOM     20  H   UNL     1       0.307   8.906  24.458  0.00  0.00    +0.000 HD
ENDBRANCH  11  19
BRANCH  12  21
ATOM     21  O   UNL     1      -0.458  12.189  22.938  0.00  0.00    +0.000 OA
ATOM     22  H   UNL     1       0.422  12.274  23.354  0.00  0.00    +0.000 HD
ENDBRANCH  12  21
BRANCH   9  23
ATOM     23  O   UNL     1       2.109   7.472  19.864  0.00  0.00    +0.000 OA
BRANCH  23  24
ATOM     24  C   UNL     1       3.074   6.426  19.947  0.00  0.00    +0.000 C 
BRANCH  24  25
ATOM     25  C   UNL     1       2.351   5.148  19.610  0.00  0.00    +0.000 A 
ATOM     26  C   UNL     1       2.086   4.829  18.272  0.00  0.00    +0.000 A 
ATOM     27  C   UNL     1       1.327   3.703  17.949  0.00  0.00    +0.000 A 
ATOM     28  C   UNL     1       0.820   2.893  18.962  0.00  0.00    +0.000 A 
ATOM     29  C   UNL     1       1.084   3.193  20.296  0.00  0.00    +0.000 A 
ATOM     30  C   UNL     1       1.845   4.318  20.621  0.00  0.00    +0.000 A 
ENDBRANCH  24  25
ENDBRANCH  23  24
ENDBRANCH   9  23
TORSDOF 6
ENDMDL
MODEL 7
REMARK VINA RESULT:      -7.3      3.216      5.846
REMARK  Name = 
REMARK  7 active torsions:
REMARK  status: ('A' for Active; 'I' for Inactive)
REMARK    1  A    between atoms: C_1  and  C_2
REMARK    2  A    between atoms: C_2  and  N_3
REMARK    3  A    between atoms: N_11  and  O_12
REMARK    4  A    between atoms: O_12  and  C_13
REMARK    5  A    between atoms: C_13  and  C_14
REMARK    6  A    between atoms: C_21  and  O_22
REMARK    7  A    between atoms: C_23  and  O_24
REMARK                            x       y       z     vdW  Elec       q    Type
REMARK                         _______ _______ _______ _____ _____    ______ ____
ROOT
ATOM      1  N   UNL     1       1.617  14.144  19.660  0.00  0.00    +0.000 N 
ATOM      2  C   UNL     1       1.713  13.333  18.556  0.00  0.00    +0.000 C 
ATOM      3  O   UNL     1       2.130  13.623  17.448  0.00  0.00    +0.000 OA
ATOM      4  C   UNL     1       1.171  11.994  18.975  0.00  0.00    +0.000 C 
ATOM      5  C   UNL     1       1.687  10.774  18.227  0.00  0.00    +0.000 C 
ATOM      6  C   UNL     1       1.800   9.546  19.147  0.00  0.00    +0.000 C 
ATOM      7  C   UNL     1       0.745   9.570  20.263  0.00  0.00    +0.000 C 
ATOM      8  C   UNL     1       0.503   8.332  21.148  0.00  0.00    +0.000 C 
ATOM      9  N   UNL     1       1.100   7.176  21.107  0.00  0.00    +0.000 NA
ATOM     10  C   UNL     1      -0.649   8.464  22.145  0.00  0.00    +0.000 C 
ATOM     11  C   UNL     1      -0.611   9.788  22.907  0.00  0.00    +0.000 C 
ATOM     12  C   UNL     1      -0.343  11.003  21.988  0.00  0.00    +0.000 C 
ATOM     13  C   UNL     1       0.971  10.794  21.214  0.00  0.00    +0.000 C 
ATOM     14  C   UNL     1       1.584  11.966  20.438  0.00  0.00    +0.000 C 
ATOM     15  C   UNL     1       1.488  13.424  20.830  0.00  0.00    +0.000 C 
ATOM     16  O   UNL     1       1.542  13.869  21.965  0.00  0.00    +0.000 OA
ENDROOT
BRANCH   1  18
ATOM     17  C   UNL     1       0.679  16.423  19.659  0.00  0.00    +0.000 C 
ATOM     18  C   UNL     1       1.931  15.558  19.643  0.00  0.00    +0.000 C 
ENDBRANCH   1  18
BRANCH  11  19
ATOM     19  O   UNL     1       0.366   9.741  23.958  0.00  0.00    +0.000 OA
ATOM     20  H   UNL     1       1.209  10.114  23.644  0.00  0.00    +0.000 HD
ENDBRANCH  11  19
BRANCH  12  21
ATOM     21  O   UNL     1      -0.331  12.180  22.768  0.00  0.00    +0.000 OA
ATOM     22  H   UNL     1      -0.690  11.969  23.652  0.00  0.00    +0.000 HD
ENDBRANCH  12  21
BRANCH   9  23
ATOM     23  O   UNL     1       2.081   7.133  20.123  0.00  0.00    +0.000 OA
BRANCH  23  24
ATOM     24  C   UNL     1       2.437   5.795  19.782  0.00  0.00    +0.000 C 
BRANCH  24  25
ATOM     25  C   UNL     1       3.662   5.886  18.911  0.00  0.00    +0.000 A 
ATOM     26  C   UNL     1       4.859   5.289  19.327  0.00  0.00    +0.000 A 
ATOM     27  C   UNL     1       6.029   5.453  18.582  0.00  0.00    +0.000 A 
ATOM     28  C   UNL     1       6.011   6.222  17.421  0.00  0.00    +0.000 A 
ATOM     29  C   UNL     1       4.825   6.813  16.991  0.00  0.00    +0.000 A 
ATOM     30  C   UNL     1       3.654   6.649  17.734  0.00  0.00    +0.000 A 
ENDBRANCH  24  25
ENDBRANCH  23  24
ENDBRANCH   9  23
TORSDOF 6
ENDMDL
MODEL 8
REMARK VINA RESULT:      -7.2      3.194      5.895
REMARK  Name = 
REMARK  7 active torsions:
REMARK  status: ('A' for Active; 'I' for Inactive)
REMARK    1  A    between atoms: C_1  and  C_2
REMARK    2  A    between atoms: C_2  and  N_3
REMARK    3  A    between atoms: N_11  and  O_12
REMARK    4  A    between atoms: O_12  and  C_13
REMARK    5  A    between atoms: C_13  and  C_14
REMARK    6  A    between atoms: C_21  and  O_22
REMARK    7  A    between atoms: C_23  and  O_24
REMARK                            x       y       z     vdW  Elec       q    Type
REMARK                         _______ _______ _______ _____ _____    ______ ____
ROOT
ATOM      1  N   UNL     1       1.347  14.342  19.810  0.00  0.00    +0.000 N 
ATOM      2  C   UNL     1       1.491  13.581  18.675  0.00  0.00    +0.000 C 
ATOM      3  O   UNL     1       1.886  13.938  17.580  0.00  0.00    +0.000 OA
ATOM      4  C   UNL     1       1.034  12.195  19.043  0.00  0.00    +0.000 C 
ATOM      5  C   UNL     1       1.624  11.039  18.249  0.00  0.00    +0.000 C 
ATOM      6  C   UNL     1       1.816   9.787  19.120  0.00  0.00    +0.000 C 
ATOM      7  C   UNL     1       0.764   9.702  20.237  0.00  0.00    +0.000 C 
ATOM      8  C   UNL     1       0.602   8.418  21.074  0.00  0.00    +0.000 C 
ATOM      9  N   UNL     1       1.270   7.304  20.988  0.00  0.00    +0.000 NA
ATOM     10  C   UNL     1      -0.554   8.439  22.075  0.00  0.00    +0.000 C 
ATOM     11  C   UNL     1      -0.597   9.733  22.887  0.00  0.00    +0.000 C 
ATOM     12  C   UNL     1      -0.408  10.997  22.015  0.00  0.00    +0.000 C 
ATOM     13  C   UNL     1       0.915  10.900  21.234  0.00  0.00    +0.000 C 
ATOM     14  C   UNL     1       1.452  12.137  20.503  0.00  0.00    +0.000 C 
ATOM     15  C   UNL     1       1.266  13.570  20.952  0.00  0.00    +0.000 C 
ATOM     16  O   UNL     1       1.294  13.974  22.102  0.00  0.00    +0.000 OA
ENDROOT
BRANCH   1  18
ATOM     17  C   UNL     1       3.049  16.114  19.987  0.00  0.00    +0.000 C 
ATOM     18  C   UNL     1       1.572  15.772  19.847  0.00  0.00    +0.000 C 
ENDBRANCH   1  18
BRANCH  11  19
ATOM     19  O   UNL     1       0.384   9.707  23.936  0.00  0.00    +0.000 OA
ATOM     20  H   UNL     1       0.634   8.787  24.132  0.00  0.00    +0.000 HD
ENDBRANCH  11  19
BRANCH  12  21
ATOM     21  O   UNL     1      -0.467  12.142  22.840  0.00  0.00    +0.000 OA
ATOM     22  H   UNL     1      -0.216  11.882  23.748  0.00  0.00    +0.000 HD
ENDBRANCH  12  21
BRANCH   9  23
ATOM     23  O   UNL     1       2.250   7.360  20.004  0.00  0.00    +0.000 OA
BRANCH  23  24
ATOM     24  C   UNL     1       2.394   6.116  19.323  0.00  0.00    +0.000 C 
BRANCH  24  25
ATOM     25  C   UNL     1       3.772   6.118  18.714  0.00  0.00    +0.000 A 
ATOM     26  C   UNL     1       4.002   6.799  17.513  0.00  0.00    +0.000 A 
ATOM     27  C   UNL     1       5.246   6.723  16.882  0.00  0.00    +0.000 A 
ATOM     28  C   UNL     1       6.265   5.959  17.446  0.00  0.00    +0.000 A 
ATOM     29  C   UNL     1       6.052   5.286  18.647  0.00  0.00    +0.000 A 
ATOM     30  C   UNL     1       4.809   5.362  19.279  0.00  0.00    +0.000 A 
ENDBRANCH  24  25
ENDBRANCH  23  24
ENDBRANCH   9  23
TORSDOF 6
ENDMDL
MODEL 9
REMARK VINA RESULT:      -7.2      0.602      1.149
REMARK  Name = 
REMARK  7 active torsions:
REMARK  status: ('A' for Active; 'I' for Inactive)
REMARK    1  A    between atoms: C_1  and  C_2
REMARK    2  A    between atoms: C_2  and  N_3
REMARK    3  A    between atoms: N_11  and  O_12
REMARK    4  A    between atoms: O_12  and  C_13
REMARK    5  A    between atoms: C_13  and  C_14
REMARK    6  A    between atoms: C_21  and  O_22
REMARK    7  A    between atoms: C_23  and  O_24
REMARK                            x       y       z     vdW  Elec       q    Type
REMARK                         _______ _______ _______ _____ _____    ______ ____
ROOT
ATOM      1  N   UNL     1       0.890   9.074  19.655  0.00  0.00    +0.000 N 
ATOM      2  C   UNL     1       1.579   9.259  18.481  0.00  0.00    +0.000 C 
ATOM      3  O   UNL     1       1.702  10.288  17.841  0.00  0.00    +0.000 OA
ATOM      4  C   UNL     1       2.144   7.914  18.114  0.00  0.00    +0.000 C 
ATOM      5  C   UNL     1       3.405   7.903  17.264  0.00  0.00    +0.000 C 
ATOM      6  C   UNL     1       4.330   6.729  17.628  0.00  0.00    +0.000 C 
ATOM      7  C   UNL     1       3.536   5.510  18.123  0.00  0.00    +0.000 C 
ATOM      8  C   UNL     1       4.222   4.142  18.305  0.00  0.00    +0.000 C 
ATOM      9  N   UNL     1       5.467   3.825  18.100  0.00  0.00    +0.000 NA
ATOM     10  C   UNL     1       3.287   2.998  18.700  0.00  0.00    +0.000 C 
ATOM     11  C   UNL     1       2.338   3.385  19.833  0.00  0.00    +0.000 C 
ATOM     12  C   UNL     1       1.688   4.774  19.624  0.00  0.00    +0.000 C 
ATOM     13  C   UNL     1       2.782   5.843  19.455  0.00  0.00    +0.000 C 
ATOM     14  C   UNL     1       2.398   7.328  19.493  0.00  0.00    +0.000 C 
ATOM     15  C   UNL     1       1.273   7.921  20.312  0.00  0.00    +0.000 C 
ATOM     16  O   UNL     1       0.949   7.589  21.440  0.00  0.00    +0.000 OA
ENDROOT
BRANCH   1  18
ATOM     17  C   UNL     1       0.954  11.068  21.101  0.00  0.00    +0.000 C 
ATOM     18  C   UNL     1       0.097  10.107  20.288  0.00  0.00    +0.000 C 
ENDBRANCH   1  18
BRANCH  11  19
ATOM     19  O   UNL     1       3.013   3.344  21.099  0.00  0.00    +0.000 OA
ATOM     20  H   UNL     1       2.367   3.432  21.822  0.00  0.00    +0.000 HD
ENDBRANCH  11  19
BRANCH  12  21
ATOM     21  O   UNL     1       0.824   5.049  20.707  0.00  0.00    +0.000 OA
ATOM     22  H   UNL     1       1.370   5.247  21.494  0.00  0.00    +0.000 HD
ENDBRANCH  12  21
BRANCH   9  23
ATOM     23  O   UNL     1       6.218   4.916  17.677  0.00  0.00    +0.000 OA
BRANCH  23  24
ATOM     24  C   UNL     1       7.419   4.516  17.022  0.00  0.00    +0.000 C 
BRANCH  24  25
ATOM     25  C   UNL     1       7.092   4.408  15.556  0.00  0.00    +0.000 A 
ATOM     26  C   UNL     1       7.824   5.151  14.622  0.00  0.00    +0.000 A 
ATOM     27  C   UNL     1       7.466   5.143  13.272  0.00  0.00    +0.000 A 
ATOM     28  C   UNL     1       6.370   4.397  12.849  0.00  0.00    +0.000 A 
ATOM     29  C   UNL     1       5.640   3.644  13.766  0.00  0.00    +0.000 A 
ATOM     30  C   UNL     1       5.997   3.650  15.116  0.00  0.00    +0.000 A 
ENDBRANCH  24  25
ENDBRANCH  23  24
ENDBRANCH   9  23
TORSDOF 6
ENDMDL
