MODEL 1
REMARK VINA RESULT:      -7.2      0.000      0.000
REMARK  Name = 
REMARK  6 active torsions:
REMARK  status: ('A' for Active; 'I' for Inactive)
REMARK    1  A    between atoms: C_1  and  C_2
REMARK    2  A    between atoms: C_2  and  C_3
REMARK    3  A    between atoms: C_3  and  C_4
REMARK    4  A    between atoms: N_11  and  C_12
REMARK    5  A    between atoms: C_12  and  C_13
REMARK    6  A    between atoms: C_21  and  C_22
REMARK                            x       y       z     vdW  Elec       q    Type
REMARK                         _______ _______ _______ _____ _____    ______ ____
ROOT
ATOM      1  C   UNL     1      -6.074  12.848  17.987  0.00  0.00    +0.000 A 
ATOM      2  C   UNL     1      -5.752  12.969  19.293  0.00  0.00    +0.000 A 
ATOM      3  C   UNL     1      -4.444  12.462  19.796  0.00  0.00    +0.000 A 
ATOM      4  O   UNL     1      -4.087  12.555  20.962  0.00  0.00    +0.000 OA
ATOM      5  N   UNL     1      -3.643  11.867  18.806  0.00  0.00    +0.000 N 
ATOM      6  N   UNL     1      -2.395  11.384  19.041  0.00  0.00    +0.000 NA
ATOM      7  C   UNL     1      -2.004  10.878  17.870  0.00  0.00    +0.000 A 
ATOM      8  N   UNL     1      -0.815  10.282  17.641  0.00  0.00    +0.000 N 
ATOM      9  C   UNL     1      -2.987  11.065  16.867  0.00  0.00    +0.000 A 
ATOM     10  C   UNL     1      -4.016  11.731  17.483  0.00  0.00    +0.000 A 
ATOM     11  N   UNL     1      -5.210  12.239  17.087  0.00  0.00    +0.000 N 
ATOM     12  H   UNL     1      -0.644   9.685  16.837  0.00  0.00    +0.000 HD
ATOM     13  H   UNL     1      -5.521  12.200  16.115  0.00  0.00    +0.000 HD
ENDROOT
BRANCH   9  14
ATOM     14  C   UNL     1      -2.918  10.714  15.494  0.00  0.00    +0.000 C 
ATOM     15  N   UNL     1      -2.877  10.430  14.368  0.00  0.00    +0.000 NA
ENDBRANCH   9  14
BRANCH   1  16
ATOM     16  C   UNL     1      -7.379  13.402  17.452  0.00  0.00    +0.000 C 
BRANCH  16  18
ATOM     17  C   UNL     1      -7.169  15.677  16.378  0.00  0.00    +0.000 C 
ATOM     18  C   UNL     1      -7.507  14.915  17.650  0.00  0.00    +0.000 C 
ENDBRANCH  16  18
ENDBRANCH   1  16
BRANCH   8  19
ATOM     19  C   UNL     1       0.356  10.548  18.460  0.00  0.00    +0.000 C 
BRANCH  19  20
ATOM     20  C   UNL     1       1.175   9.290  18.666  0.00  0.00    +0.000 A 
ATOM     21  C   UNL     1       2.032   8.764  17.684  0.00  0.00    +0.000 A 
ATOM     22  C   UNL     1       2.803   7.624  17.945  0.00  0.00    +0.000 A 
ATOM     23  C   UNL     1       2.740   7.014  19.196  0.00  0.00    +0.000 A 
ATOM     24 BR   UNL     1       3.790   5.482  19.548  0.00  0.00    +0.000 Br
ATOM     25  C   UNL     1       1.916   7.530  20.188  0.00  0.00    +0.000 A 
ATOM     26  C   UNL     1       1.149   8.661  19.916  0.00  0.00    +0.000 A 
ATOM     27  F   UNL     1       0.372   9.154  20.891  0.00  0.00    +0.000 F 
ENDBRANCH  19  20
ENDBRANCH   8  19
TORSDOF 5
ENDMDL
MODEL 2
REMARK VINA RESULT:      -7.0      5.959     10.127
REMARK  Name = 
REMARK  6 active torsions:
REMARK  status: ('A' for Active; 'I' for Inactive)
REMARK    1  A    between atoms: C_1  and  C_2
REMARK    2  A    between atoms: C_2  and  C_3
REMARK    3  A    between atoms: C_3  and  C_4
REMARK    4  A    between atoms: N_11  and  C_12
REMARK    5  A    between atoms: C_12  and  C_13
REMARK    6  A    between atoms: C_21  and  C_22
REMARK                            x       y       z     vdW  Elec       q    Type
REMARK                         _______ _______ _______ _____ _____    ______ ____
ROOT
ATOM      1  C   UNL     1       5.584   4.451  15.618  0.00  0.00    +0.000 A 
ATOM      2  C   UNL     1       6.142   5.669  15.786  0.00  0.00    +0.000 A 
ATOM      3  C   UNL     1       5.546   6.645  16.742  0.00  0.00    +0.000 A 
ATOM      4  O   UNL     1       6.012   7.756  16.951  0.00  0.00    +0.000 OA
ATOM      5  N   UNL     1       4.396   6.173  17.397  0.00  0.00    +0.000 N 
ATOM      6  N   UNL     1       3.726   6.883  18.342  0.00  0.00    +0.000 NA
ATOM      7  C   UNL     1       2.692   6.110  18.674  0.00  0.00    +0.000 A 
ATOM      8  N   UNL     1       1.748   6.425  19.586  0.00  0.00    +0.000 N 
ATOM      9  C   UNL     1       2.711   4.881  17.968  0.00  0.00    +0.000 A 
ATOM     10  C   UNL     1       3.832   4.931  17.178  0.00  0.00    +0.000 A 
ATOM     11  N   UNL     1       4.440   4.082  16.313  0.00  0.00    +0.000 N 
ATOM     12  H   UNL     1       0.849   5.955  19.634  0.00  0.00    +0.000 HD
ATOM     13  H   UNL     1       4.089   3.138  16.141  0.00  0.00    +0.000 HD
ENDROOT
BRANCH   9  14
ATOM     14  C   UNL     1       1.816   3.786  18.086  0.00  0.00    +0.000 C 
ATOM     15  N   UNL     1       1.086   2.890  18.199  0.00  0.00    +0.000 NA
ENDBRANCH   9  14
BRANCH   1  16
ATOM     16  C   UNL     1       6.205   3.431  14.685  0.00  0.00    +0.000 C 
BRANCH  16  18
ATOM     17  C   UNL     1       5.778   3.256  12.203  0.00  0.00    +0.000 C 
ATOM     18  C   UNL     1       6.517   4.006  13.300  0.00  0.00    +0.000 C 
ENDBRANCH  16  18
ENDBRANCH   1  16
BRANCH   8  19
ATOM     19  C   UNL     1       1.991   7.381  20.654  0.00  0.00    +0.000 C 
BRANCH  19  20
ATOM     20  C   UNL     1       1.222   8.666  20.423  0.00  0.00    +0.000 A 
ATOM     21  C   UNL     1       1.083   9.259  19.157  0.00  0.00    +0.000 A 
ATOM     22  C   UNL     1       0.320  10.421  18.992  0.00  0.00    +0.000 A 
ATOM     23  C   UNL     1      -0.328  10.988  20.088  0.00  0.00    +0.000 A 
ATOM     24 BR   UNL     1      -1.366  12.552  19.860  0.00  0.00    +0.000 Br
ATOM     25  C   UNL     1      -0.222  10.405  21.344  0.00  0.00    +0.000 A 
ATOM     26  C   UNL     1       0.544   9.252  21.498  0.00  0.00    +0.000 A 
ATOM     27  F   UNL     1       0.621   8.695  22.715  0.00  0.00    +0.000 F 
ENDBRANCH  19  20
ENDBRANCH   8  19
TORSDOF 5
ENDMDL
MODEL 3
REMARK VINA RESULT:      -6.9      6.081     10.229
REMARK  Name = 
REMARK  6 active torsions:
REMARK  status: ('A' for Active; 'I' for Inactive)
REMARK    1  A    between atoms: C_1  and  C_2
REMARK    2  A    between atoms: C_2  and  C_3
REMARK    3  A    between atoms: C_3  and  C_4
REMARK    4  A    between atoms: N_11  and  C_12
REMARK    5  A    between atoms: C_12  and  C_13
REMARK    6  A    between atoms: C_21  and  C_22
REMARK                            x       y       z     vdW  Elec       q    Type
REMARK                         _______ _______ _______ _____ _____    ______ ____
ROOT
ATOM      1  C   UNL     1       5.740   4.491  15.567  0.00  0.00    +0.000 A 
ATOM      2  C   UNL     1       6.376   5.658  15.806  0.00  0.00    +0.000 A 
ATOM      3  C   UNL     1       5.822   6.630  16.791  0.00  0.00    +0.000 A 
ATOM      4  O   UNL     1       6.358   7.695  17.063  0.00  0.00    +0.000 OA
ATOM      5  N   UNL     1       4.622   6.213  17.392  0.00  0.00    +0.000 N 
ATOM      6  N   UNL     1       3.976   6.926  18.350  0.00  0.00    +0.000 NA
ATOM      7  C   UNL     1       2.880   6.214  18.619  0.00  0.00    +0.000 A 
ATOM      8  N   UNL     1       1.934   6.555  19.519  0.00  0.00    +0.000 N 
ATOM      9  C   UNL     1       2.835   5.019  17.857  0.00  0.00    +0.000 A 
ATOM     10  C   UNL     1       3.980   5.025  17.101  0.00  0.00    +0.000 A 
ATOM     11  N   UNL     1       4.552   4.174  16.213  0.00  0.00    +0.000 N 
ATOM     12  H   UNL     1       1.003   6.148  19.521  0.00  0.00    +0.000 HD
ATOM     13  H   UNL     1       4.141   3.267  15.988  0.00  0.00    +0.000 HD
ENDROOT
BRANCH   9  14
ATOM     14  C   UNL     1       1.863   3.987  17.900  0.00  0.00    +0.000 C 
ATOM     15  N   UNL     1       1.056   3.151  17.929  0.00  0.00    +0.000 NA
ENDBRANCH   9  14
BRANCH   1  16
ATOM     16  C   UNL     1       6.316   3.472  14.604  0.00  0.00    +0.000 C 
BRANCH  16  18
ATOM     17  C   UNL     1       5.542   3.232  12.213  0.00  0.00    +0.000 C 
ATOM     18  C   UNL     1       6.432   4.007  13.174  0.00  0.00    +0.000 C 
ENDBRANCH  16  18
ENDBRANCH   1  16
BRANCH   8  19
ATOM     19  C   UNL     1       2.211   7.442  20.637  0.00  0.00    +0.000 C 
BRANCH  19  20
ATOM     20  C   UNL     1       1.205   8.573  20.698  0.00  0.00    +0.000 A 
ATOM     21  C   UNL     1       0.442   8.860  21.843  0.00  0.00    +0.000 A 
ATOM     22  C   UNL     1      -0.439   9.948  21.860  0.00  0.00    +0.000 A 
ATOM     23  C   UNL     1      -0.548  10.772  20.741  0.00  0.00    +0.000 A 
ATOM     24 BR   UNL     1      -1.730  12.247  20.772  0.00  0.00    +0.000 Br
ATOM     25  C   UNL     1       0.214  10.519  19.607  0.00  0.00    +0.000 A 
ATOM     26  C   UNL     1       1.083   9.431  19.599  0.00  0.00    +0.000 A 
ATOM     27  F   UNL     1       1.821   9.214  18.501  0.00  0.00    +0.000 F 
ENDBRANCH  19  20
ENDBRANCH   8  19
TORSDOF 5
ENDMDL
MODEL 4
REMARK VINA RESULT:      -6.9      2.017      2.818
REMARK  Name = 
REMARK  6 active torsions:
REMARK  status: ('A' for Active; 'I' for Inactive)
REMARK    1  A    between atoms: C_1  and  C_2
REMARK    2  A    between atoms: C_2  and  C_3
REMARK    3  A    between atoms: C_3  and  C_4
REMARK    4  A    between atoms: N_11  and  C_12
REMARK    5  A    between atoms: C_12  and  C_13
REMARK    6  A    between atoms: C_21  and  C_22
REMARK                            x       y       z     vdW  Elec       q    Type
REMARK                         _______ _______ _______ _____ _____    ______ ____
ROOT
ATOM      1  C   UNL     1      -3.216  12.993  20.410  0.00  0.00    +0.000 A 
ATOM      2  C   UNL     1      -2.309  12.973  21.411  0.00  0.00    +0.000 A 
ATOM      3  C   UNL     1      -1.048  12.190  21.270  0.00  0.00    +0.000 A 
ATOM      4  O   UNL     1      -0.182  12.145  22.133  0.00  0.00    +0.000 OA
ATOM      5  N   UNL     1      -0.934  11.507  20.048  0.00  0.00    +0.000 N 
ATOM      6  N   UNL     1       0.155  10.775  19.697  0.00  0.00    +0.000 NA
ATOM      7  C   UNL     1      -0.150  10.269  18.501  0.00  0.00    +0.000 A 
ATOM      8  N   UNL     1       0.651   9.465  17.770  0.00  0.00    +0.000 N 
ATOM      9  C   UNL     1      -1.426  10.703  18.061  0.00  0.00    +0.000 A 
ATOM     10  C   UNL     1      -1.896  11.523  19.057  0.00  0.00    +0.000 A 
ATOM     11  N   UNL     1      -3.008  12.277  19.239  0.00  0.00    +0.000 N 
ATOM     12  H   UNL     1       0.307   8.893  17.005  0.00  0.00    +0.000 HD
ATOM     13  H   UNL     1      -3.735  12.355  18.525  0.00  0.00    +0.000 HD
ENDROOT
BRANCH   9  14
ATOM     14  C   UNL     1      -2.072  10.424  16.829  0.00  0.00    +0.000 C 
ATOM     15  N   UNL     1      -2.612  10.206  15.824  0.00  0.00    +0.000 NA
ENDBRANCH   9  14
BRANCH   1  16
ATOM     16  C   UNL     1      -4.479  13.822  20.519  0.00  0.00    +0.000 C 
BRANCH  16  18
ATOM     17  C   UNL     1      -6.704  12.653  20.760  0.00  0.00    +0.000 C 
ATOM     18  C   UNL     1      -5.667  13.192  19.787  0.00  0.00    +0.000 C 
ENDBRANCH  16  18
ENDBRANCH   1  16
BRANCH   8  19
ATOM     19  C   UNL     1       2.094   9.449  17.941  0.00  0.00    +0.000 C 
BRANCH  19  20
ATOM     20  C   UNL     1       2.598   8.042  18.194  0.00  0.00    +0.000 A 
ATOM     21  C   UNL     1       3.414   7.344  17.288  0.00  0.00    +0.000 A 
ATOM     22  C   UNL     1       3.891   6.064  17.594  0.00  0.00    +0.000 A 
ATOM     23  C   UNL     1       3.572   5.479  18.818  0.00  0.00    +0.000 A 
ATOM     24 BR   UNL     1       4.226   3.754  19.233  0.00  0.00    +0.000 Br
ATOM     25  C   UNL     1       2.784   6.159  19.738  0.00  0.00    +0.000 A 
ATOM     26  C   UNL     1       2.312   7.431  19.420  0.00  0.00    +0.000 A 
ATOM     27  F   UNL     1       1.566   8.078  20.328  0.00  0.00    +0.000 F 
ENDBRANCH  19  20
ENDBRANCH   8  19
TORSDOF 5
ENDMDL
MODEL 5
REMARK VINA RESULT:      -6.9      2.509      3.947
REMARK  Name = 
REMARK  6 active torsions:
REMARK  status: ('A' for Active; 'I' for Inactive)
REMARK    1  A    between atoms: C_1  and  C_2
REMARK    2  A    between atoms: C_2  and  C_3
REMARK    3  A    between atoms: C_3  and  C_4
REMARK    4  A    between atoms: N_11  and  C_12
REMARK    5  A    between atoms: C_12  and  C_13
REMARK    6  A    between atoms: C_21  and  C_22
REMARK                            x       y       z     vdW  Elec       q    Type
REMARK                         _______ _______ _______ _____ _____    ______ ____
ROOT
ATOM      1  C   UNL     1      -4.047  11.586  18.320  0.00  0.00    +0.000 A 
ATOM      2  C   UNL     1      -3.932  11.085  17.072  0.00  0.00    +0.000 A 
ATOM      3  C   UNL     1      -2.647  10.479  16.619  0.00  0.00    +0.000 A 
ATOM      4  O   UNL     1      -2.484   9.995  15.507  0.00  0.00    +0.000 OA
ATOM      5  N   UNL     1      -1.631  10.504  17.588  0.00  0.00    +0.000 N 
ATOM      6  N   UNL     1      -0.400   9.962  17.398  0.00  0.00    +0.000 NA
ATOM      7  C   UNL     1       0.264  10.230  18.525  0.00  0.00    +0.000 A 
ATOM      8  N   UNL     1       1.542   9.878  18.775  0.00  0.00    +0.000 N 
ATOM      9  C   UNL     1      -0.551  10.918  19.459  0.00  0.00    +0.000 A 
ATOM     10  C   UNL     1      -1.772  11.053  18.848  0.00  0.00    +0.000 A 
ATOM     11  N   UNL     1      -2.976  11.565  19.205  0.00  0.00    +0.000 N 
ATOM     12  H   UNL     1       2.099  10.307  19.508  0.00  0.00    +0.000 HD
ATOM     13  H   UNL     1      -3.149  11.950  20.135  0.00  0.00    +0.000 HD
ENDROOT
BRANCH   9  14
ATOM     14  C   UNL     1      -0.222  11.326  20.777  0.00  0.00    +0.000 C 
ATOM     15  N   UNL     1       0.059  11.669  21.851  0.00  0.00    +0.000 NA
ENDBRANCH   9  14
BRANCH   1  16
ATOM     16  C   UNL     1      -5.359  12.162  18.811  0.00  0.00    +0.000 C 
BRANCH  16  18
ATOM     17  C   UNL     1      -6.999  10.444  19.667  0.00  0.00    +0.000 C 
ATOM     18  C   UNL     1      -6.560  11.275  18.471  0.00  0.00    +0.000 C 
ENDBRANCH  16  18
ENDBRANCH   1  16
BRANCH   8  19
ATOM     19  C   UNL     1       2.186   8.765  18.096  0.00  0.00    +0.000 C 
BRANCH  19  20
ATOM     20  C   UNL     1       2.192   7.525  18.967  0.00  0.00    +0.000 A 
ATOM     21  C   UNL     1       1.589   7.475  20.235  0.00  0.00    +0.000 A 
ATOM     22  C   UNL     1       1.582   6.288  20.977  0.00  0.00    +0.000 A 
ATOM     23  C   UNL     1       2.160   5.135  20.449  0.00  0.00    +0.000 A 
ATOM     24 BR   UNL     1       2.141   3.531  21.449  0.00  0.00    +0.000 Br
ATOM     25  C   UNL     1       2.743   5.156  19.188  0.00  0.00    +0.000 A 
ATOM     26  C   UNL     1       2.748   6.344  18.460  0.00  0.00    +0.000 A 
ATOM     27  F   UNL     1       3.301   6.341  17.239  0.00  0.00    +0.000 F 
ENDBRANCH  19  20
ENDBRANCH   8  19
TORSDOF 5
ENDMDL
MODEL 6
REMARK VINA RESULT:      -6.7      5.352      9.436
REMARK  Name = 
REMARK  6 active torsions:
REMARK  status: ('A' for Active; 'I' for Inactive)
REMARK    1  A    between atoms: C_1  and  C_2
REMARK    2  A    between atoms: C_2  and  C_3
REMARK    3  A    between atoms: C_3  and  C_4
REMARK    4  A    between atoms: N_11  and  C_12
REMARK    5  A    between atoms: C_12  and  C_13
REMARK    6  A    between atoms: C_21  and  C_22
REMARK                            x       y       z     vdW  Elec       q    Type
REMARK                         _______ _______ _______ _____ _____    ______ ____
ROOT
ATOM      1  C   UNL     1       3.539   4.294  18.269  0.00  0.00    +0.000 A 
ATOM      2  C   UNL     1       3.232   3.693  19.438  0.00  0.00    +0.000 A 
ATOM      3  C   UNL     1       2.532   4.451  20.514  0.00  0.00    +0.000 A 
ATOM      4  O   UNL     1       2.213   3.960  21.588  0.00  0.00    +0.000 OA
ATOM      5  N   UNL     1       2.260   5.790  20.185  0.00  0.00    +0.000 N 
ATOM      6  N   UNL     1       1.589   6.641  21.003  0.00  0.00    +0.000 NA
ATOM      7  C   UNL     1       1.580   7.802  20.346  0.00  0.00    +0.000 A 
ATOM      8  N   UNL     1       1.017   8.944  20.794  0.00  0.00    +0.000 N 
ATOM      9  C   UNL     1       2.217   7.692  19.084  0.00  0.00    +0.000 A 
ATOM     10  C   UNL     1       2.617   6.383  18.990  0.00  0.00    +0.000 A 
ATOM     11  N   UNL     1       3.229   5.629  18.044  0.00  0.00    +0.000 N 
ATOM     12  H   UNL     1       1.242   9.857  20.412  0.00  0.00    +0.000 HD
ATOM     13  H   UNL     1       3.482   6.005  17.128  0.00  0.00    +0.000 HD
ENDROOT
BRANCH   9  14
ATOM     14  C   UNL     1       2.360   8.688  18.084  0.00  0.00    +0.000 C 
ATOM     15  N   UNL     1       2.466   9.512  17.271  0.00  0.00    +0.000 NA
ENDBRANCH   9  14
BRANCH   1  16
ATOM     16  C   UNL     1       4.207   3.524  17.148  0.00  0.00    +0.000 C 
BRANCH  16  18
ATOM     17  C   UNL     1       6.074   3.767  15.467  0.00  0.00    +0.000 C 
ATOM     18  C   UNL     1       4.873   4.437  16.115  0.00  0.00    +0.000 C 
ENDBRANCH  16  18
ENDBRANCH   1  16
BRANCH   8  19
ATOM     19  C   UNL     1      -0.052   8.945  21.779  0.00  0.00    +0.000 C 
BRANCH  19  20
ATOM     20  C   UNL     1      -0.724  10.302  21.853  0.00  0.00    +0.000 A 
ATOM     21  C   UNL     1      -1.000  10.956  23.066  0.00  0.00    +0.000 A 
ATOM     22  C   UNL     1      -1.578  12.231  23.075  0.00  0.00    +0.000 A 
ATOM     23  C   UNL     1      -1.867  12.872  21.872  0.00  0.00    +0.000 A 
ATOM     24 BR   UNL     1      -2.639  14.597  21.887  0.00  0.00    +0.000 Br
ATOM     25  C   UNL     1      -1.582  12.252  20.661  0.00  0.00    +0.000 A 
ATOM     26  C   UNL     1      -1.011  10.981  20.664  0.00  0.00    +0.000 A 
ATOM     27  F   UNL     1      -0.729  10.407  19.486  0.00  0.00    +0.000 F 
ENDBRANCH  19  20
ENDBRANCH   8  19
TORSDOF 5
ENDMDL
MODEL 7
REMARK VINA RESULT:      -6.7      3.893      8.204
REMARK  Name = 
REMARK  6 active torsions:
REMARK  status: ('A' for Active; 'I' for Inactive)
REMARK    1  A    between atoms: C_1  and  C_2
REMARK    2  A    between atoms: C_2  and  C_3
REMARK    3  A    between atoms: C_3  and  C_4
REMARK    4  A    between atoms: N_11  and  C_12
REMARK    5  A    between atoms: C_12  and  C_13
REMARK    6  A    between atoms: C_21  and  C_22
REMARK                            x       y       z     vdW  Elec       q    Type
REMARK                         _______ _______ _______ _____ _____    ______ ____
ROOT
ATOM      1  C   UNL     1       0.215  10.608  18.550  0.00  0.00    +0.000 A 
ATOM      2  C   UNL     1      -0.182  11.202  19.696  0.00  0.00    +0.000 A 
ATOM      3  C   UNL     1      -1.586  11.681  19.849  0.00  0.00    +0.000 A 
ATOM      4  O   UNL     1      -2.011  12.212  20.867  0.00  0.00    +0.000 OA
ATOM      5  N   UNL     1      -2.390  11.464  18.718  0.00  0.00    +0.000 N 
ATOM      6  N   UNL     1      -3.710  11.781  18.664  0.00  0.00    +0.000 NA
ATOM      7  C   UNL     1      -4.083  11.457  17.425  0.00  0.00    +0.000 A 
ATOM      8  N   UNL     1      -5.327  11.610  16.924  0.00  0.00    +0.000 N 
ATOM      9  C   UNL     1      -3.011  10.897  16.686  0.00  0.00    +0.000 A 
ATOM     10  C   UNL     1      -1.943  10.882  17.548  0.00  0.00    +0.000 A 
ATOM     11  N   UNL     1      -0.661  10.444  17.485  0.00  0.00    +0.000 N 
ATOM     12  H   UNL     1      -5.525  11.605  15.929  0.00  0.00    +0.000 HD
ATOM     13  H   UNL     1      -0.287   9.973  16.659  0.00  0.00    +0.000 HD
ENDROOT
BRANCH   9  14
ATOM     14  C   UNL     1      -3.029  10.387  15.363  0.00  0.00    +0.000 C 
ATOM     15  N   UNL     1      -3.040   9.983  14.273  0.00  0.00    +0.000 NA
ENDBRANCH   9  14
BRANCH   1  16
ATOM     16  C   UNL     1       1.624  10.073  18.397  0.00  0.00    +0.000 C 
BRANCH  16  18
ATOM     17  C   UNL     1       2.397   7.677  18.578  0.00  0.00    +0.000 C 
ATOM     18  C   UNL     1       1.667   8.700  17.721  0.00  0.00    +0.000 C 
ENDBRANCH  16  18
ENDBRANCH   1  16
BRANCH   8  19
ATOM     19  C   UNL     1      -6.504  11.669  17.777  0.00  0.00    +0.000 C 
BRANCH  19  20
ATOM     20  C   UNL     1      -6.792  13.092  18.210  0.00  0.00    +0.000 A 
ATOM     21  C   UNL     1      -6.691  14.193  17.343  0.00  0.00    +0.000 A 
ATOM     22  C   UNL     1      -7.017  15.482  17.783  0.00  0.00    +0.000 A 
ATOM     23  C   UNL     1      -7.465  15.678  19.088  0.00  0.00    +0.000 A 
ATOM     24 BR   UNL     1      -7.913  17.417  19.677  0.00  0.00    +0.000 Br
ATOM     25  C   UNL     1      -7.593  14.600  19.955  0.00  0.00    +0.000 A 
ATOM     26  C   UNL     1      -7.262  13.323  19.508  0.00  0.00    +0.000 A 
ATOM     27  F   UNL     1      -7.407  12.293  20.355  0.00  0.00    +0.000 F 
ENDBRANCH  19  20
ENDBRANCH   8  19
TORSDOF 5
ENDMDL
MODEL 8
REMARK VINA RESULT:      -6.7      5.551      8.584
REMARK  Name = 
REMARK  6 active torsions:
REMARK  status: ('A' for Active; 'I' for Inactive)
REMARK    1  A    between atoms: C_1  and  C_2
REMARK    2  A    between atoms: C_2  and  C_3
REMARK    3  A    between atoms: C_3  and  C_4
REMARK    4  A    between atoms: N_11  and  C_12
REMARK    5  A    between atoms: C_12  and  C_13
REMARK    6  A    between atoms: C_21  and  C_22
REMARK                            x       y       z     vdW  Elec       q    Type
REMARK                         _______ _______ _______ _____ _____    ______ ____
ROOT
ATOM      1  C   UNL     1       2.208   6.504  20.079  0.00  0.00    +0.000 A 
ATOM      2  C   UNL     1       2.476   6.789  18.786  0.00  0.00    +0.000 A 
ATOM      3  C   UNL     1       2.159   8.135  18.230  0.00  0.00    +0.000 A 
ATOM      4  O   UNL     1       2.391   8.460  17.074  0.00  0.00    +0.000 OA
ATOM      5  N   UNL     1       1.571   9.012  19.157  0.00  0.00    +0.000 N 
ATOM      6  N   UNL     1       1.248  10.300  18.871  0.00  0.00    +0.000 NA
ATOM      7  C   UNL     1       0.688  10.764  19.989  0.00  0.00    +0.000 A 
ATOM      8  N   UNL     1       0.207  12.014  20.156  0.00  0.00    +0.000 N 
ATOM      9  C   UNL     1       0.680   9.783  21.013  0.00  0.00    +0.000 A 
ATOM     10  C   UNL     1       1.281   8.678  20.466  0.00  0.00    +0.000 A 
ATOM     11  N   UNL     1       1.620   7.444  20.915  0.00  0.00    +0.000 N 
ATOM     12  H   UNL     1      -0.435  12.262  20.902  0.00  0.00    +0.000 HD
ATOM     13  H   UNL     1       1.463   7.156  21.882  0.00  0.00    +0.000 HD
ENDROOT
BRANCH   9  14
ATOM     14  C   UNL     1       0.220   9.913  22.349  0.00  0.00    +0.000 C 
ATOM     15  N   UNL     1      -0.158  10.004  23.444  0.00  0.00    +0.000 NA
ENDBRANCH   9  14
BRANCH   1  16
ATOM     16  C   UNL     1       2.568   5.157  20.671  0.00  0.00    +0.000 C 
BRANCH  16  18
ATOM     17  C   UNL     1       1.649   2.958  21.502  0.00  0.00    +0.000 C 
ATOM     18  C   UNL     1       1.425   4.142  20.574  0.00  0.00    +0.000 C 
ENDBRANCH  16  18
ENDBRANCH   1  16
BRANCH   8  19
ATOM     19  C   UNL     1       0.669  13.135  19.355  0.00  0.00    +0.000 C 
BRANCH  19  20
ATOM     20  C   UNL     1       1.819  13.853  20.032  0.00  0.00    +0.000 A 
ATOM     21  C   UNL     1       1.756  14.324  21.355  0.00  0.00    +0.000 A 
ATOM     22  C   UNL     1       2.866  14.938  21.948  0.00  0.00    +0.000 A 
ATOM     23  C   UNL     1       4.054  15.066  21.232  0.00  0.00    +0.000 A 
ATOM     24 BR   UNL     1       5.554  15.886  22.039  0.00  0.00    +0.000 Br
ATOM     25  C   UNL     1       4.145  14.588  19.930  0.00  0.00    +0.000 A 
ATOM     26  C   UNL     1       3.033  13.983  19.348  0.00  0.00    +0.000 A 
ATOM     27  F   UNL     1       3.145  13.513  18.097  0.00  0.00    +0.000 F 
ENDBRANCH  19  20
ENDBRANCH   8  19
TORSDOF 5
ENDMDL
MODEL 9
REMARK VINA RESULT:      -6.7      5.430      9.517
REMARK  Name = 
REMARK  6 active torsions:
REMARK  status: ('A' for Active; 'I' for Inactive)
REMARK    1  A    between atoms: C_1  and  C_2
REMARK    2  A    between atoms: C_2  and  C_3
REMARK    3  A    between atoms: C_3  and  C_4
REMARK    4  A    between atoms: N_11  and  C_12
REMARK    5  A    between atoms: C_12  and  C_13
REMARK    6  A    between atoms: C_21  and  C_22
REMARK                            x       y       z     vdW  Elec       q    Type
REMARK                         _______ _______ _______ _____ _____    ______ ____
ROOT
ATOM      1  C   UNL     1       3.658   3.957  18.344  0.00  0.00    +0.000 A 
ATOM      2  C   UNL     1       3.292   3.395  19.516  0.00  0.00    +0.000 A 
ATOM      3  C   UNL     1       2.567   4.198  20.542  0.00  0.00    +0.000 A 
ATOM      4  O   UNL     1       2.195   3.745  21.615  0.00  0.00    +0.000 OA
ATOM      5  N   UNL     1       2.339   5.533  20.165  0.00  0.00    +0.000 N 
ATOM      6  N   UNL     1       1.655   6.421  20.932  0.00  0.00    +0.000 NA
ATOM      7  C   UNL     1       1.698   7.563  20.243  0.00  0.00    +0.000 A 
ATOM      8  N   UNL     1       1.143   8.729  20.637  0.00  0.00    +0.000 N 
ATOM      9  C   UNL     1       2.381   7.404  19.012  0.00  0.00    +0.000 A 
ATOM     10  C   UNL     1       2.755   6.084  18.970  0.00  0.00    +0.000 A 
ATOM     11  N   UNL     1       3.387   5.290  18.070  0.00  0.00    +0.000 N 
ATOM     12  H   UNL     1       1.404   9.625  20.239  0.00  0.00    +0.000 HD
ATOM     13  H   UNL     1       3.684   5.635  17.155  0.00  0.00    +0.000 HD
ENDROOT
BRANCH   9  14
ATOM     14  C   UNL     1       2.586   8.367  17.991  0.00  0.00    +0.000 C 
ATOM     15  N   UNL     1       2.760   9.145  17.145  0.00  0.00    +0.000 NA
ENDBRANCH   9  14
BRANCH   1  16
ATOM     16  C   UNL     1       4.353   3.141  17.272  0.00  0.00    +0.000 C 
BRANCH  16  18
ATOM     17  C   UNL     1       6.417   4.270  16.358  0.00  0.00    +0.000 C 
ATOM     18  C   UNL     1       4.934   4.006  16.150  0.00  0.00    +0.000 C 
ENDBRANCH  16  18
ENDBRANCH   1  16
BRANCH   8  19
ATOM     19  C   UNL     1       0.036   8.781  21.578  0.00  0.00    +0.000 C 
BRANCH  19  20
ATOM     20  C   UNL     1      -0.564  10.171  21.638  0.00  0.00    +0.000 A 
ATOM     21  C   UNL     1      -0.884  10.918  20.491  0.00  0.00    +0.000 A 
ATOM     22  C   UNL     1      -1.482  12.179  20.603  0.00  0.00    +0.000 A 
ATOM     23  C   UNL     1      -1.784  12.695  21.862  0.00  0.00    +0.000 A 
ATOM     24 BR   UNL     1      -2.601  14.394  22.011  0.00  0.00    +0.000 Br
ATOM     25  C   UNL     1      -1.496  11.964  23.008  0.00  0.00    +0.000 A 
ATOM     26  C   UNL     1      -0.897  10.712  22.885  0.00  0.00    +0.000 A 
ATOM     27  F   UNL     1      -0.641  10.015  24.001  0.00  0.00    +0.000 F 
ENDBRANCH  19  20
ENDBRANCH   8  19
TORSDOF 5
ENDMDL
