MODEL 1
REMARK VINA RESULT:      -7.6      0.000      0.000
REMARK  Name = 
REMARK  19 active torsions:
REMARK  status: ('A' for Active; 'I' for Inactive)
REMARK    1  A    between atoms: C_1  and  C_2
REMARK    2  A    between atoms: C_2  and  O_4
REMARK    3  A    between atoms: O_4  and  C_5
REMARK    4  A    between atoms: C_5  and  C_6
REMARK    5  A    between atoms: C_6  and  O_7
REMARK    6  A    between atoms: C_8  and  O_9
REMARK    7  A    between atoms: C_12  and  C_13
REMARK    8  A    between atoms: C_13  and  O_14
REMARK    9  A    between atoms: O_14  and  C_15
REMARK   10  A    between atoms: C_15  and  C_17
REMARK   11  A    between atoms: C_17  and  C_18
REMARK   12  A    between atoms: C_18  and  C_19
REMARK   13  A    between atoms: C_18  and  C_20
REMARK   14  A    between atoms: C_23  and  O_24
REMARK   15  A    between atoms: O_24  and  C_25
REMARK   16  A    between atoms: C_25  and  C_27
REMARK   17  A    between atoms: C_27  and  C_28
REMARK   18  A    between atoms: C_28  and  C_29
REMARK   19  A    between atoms: C_28  and  C_30
REMARK                            x       y       z     vdW  Elec       q    Type
REMARK                         _______ _______ _______ _____ _____    ______ ____
ROOT
ATOM      1  C   UNL     1       3.703   4.550  19.072  0.00  0.00    +0.000 C 
ATOM      2  C   UNL     1       5.163   4.255  19.539  0.00  0.00    +0.000 C 
ATOM      3  C   UNL     1       6.091   4.667  18.394  0.00  0.00    +0.000 C 
ATOM      4  C   UNL     1       5.212   4.639  17.149  0.00  0.00    +0.000 C 
ATOM      5  C   UNL     1       5.751   5.459  16.009  0.00  0.00    +0.000 C 
ATOM      6  C   UNL     1       5.150   6.591  15.621  0.00  0.00    +0.000 C 
ATOM      7  O   UNL     1       4.081   7.180  16.229  0.00  0.00    +0.000 OA
ATOM      8  C   UNL     1       3.747   6.664  17.524  0.00  0.00    +0.000 C 
ATOM      9  C   UNL     1       3.852   5.138  17.644  0.00  0.00    +0.000 C 
ENDROOT
BRANCH   1  10
ATOM     10  O   UNL     1       3.089   5.475  19.985  0.00  0.00    +0.000 OA
ATOM     11  H   UNL     1       2.145   5.275  20.086  0.00  0.00    +0.000 HD
ENDBRANCH   1  10
BRANCH   2  12
ATOM     12  O   UNL     1       5.390   2.896  19.897  0.00  0.00    +0.000 OA
ATOM     13  H   UNL     1       6.346   2.715  19.913  0.00  0.00    +0.000 HD
ENDBRANCH   2  12
BRANCH   1  14
ATOM     14  C   UNL     1       2.807   3.284  19.055  0.00  0.00    +0.000 C 
BRANCH  14  15
ATOM     15  O   UNL     1       2.745   2.683  20.373  0.00  0.00    +0.000 OA
BRANCH  15  17
ATOM     16  C   UNL     1       0.464   3.209  20.088  0.00  0.00    +0.000 C 
ATOM     17  C   UNL     1       1.544   2.721  21.002  0.00  0.00    +0.000 C 
ATOM     18  O   UNL     1       1.346   2.410  22.171  0.00  0.00    +0.000 OA
ENDBRANCH  15  17
ENDBRANCH  14  15
ENDBRANCH   1  14
BRANCH   5  19
ATOM     19  C   UNL     1       6.953   4.919  15.278  0.00  0.00    +0.000 C 
BRANCH  19  20
ATOM     20  O   UNL     1       6.566   4.316  14.038  0.00  0.00    +0.000 OA
BRANCH  20  21
ATOM     21  C   UNL     1       7.281   4.733  12.956  0.00  0.00    +0.000 C 
ATOM     22  O   UNL     1       8.125   5.619  12.974  0.00  0.00    +0.000 OA
BRANCH  21  23
ATOM     23  C   UNL     1       6.843   3.985  11.717  0.00  0.00    +0.000 C 
BRANCH  23  24
ATOM     24  C   UNL     1       5.763   2.934  12.018  0.00  0.00    +0.000 C 
ATOM     25  C   UNL     1       4.383   3.375  11.521  0.00  0.00    +0.000 C 
ATOM     26  C   UNL     1       6.132   1.594  11.379  0.00  0.00    +0.000 C 
ENDBRANCH  23  24
ENDBRANCH  21  23
ENDBRANCH  20  21
ENDBRANCH  19  20
ENDBRANCH   5  19
BRANCH   8  27
ATOM     27  O   UNL     1       2.456   7.144  17.924  0.00  0.00    +0.000 OA
BRANCH  27  28
ATOM     28  C   UNL     1       2.361   8.480  18.121  0.00  0.00    +0.000 C 
ATOM     29  O   UNL     1       2.856   9.363  17.423  0.00  0.00    +0.000 OA
BRANCH  28  30
ATOM     30  C   UNL     1       1.555   8.790  19.345  0.00  0.00    +0.000 C 
BRANCH  30  31
ATOM     31  C   UNL     1       0.947  10.192  19.267  0.00  0.00    +0.000 C 
ATOM     32  C   UNL     1      -0.372  10.196  18.491  0.00  0.00    +0.000 C 
ATOM     33  C   UNL     1       0.728  10.735  20.675  0.00  0.00    +0.000 C 
ENDBRANCH  30  31
ENDBRANCH  28  30
ENDBRANCH  27  28
ENDBRANCH   8  27
TORSDOF 14
ENDMDL
MODEL 2
REMARK VINA RESULT:      -7.5      1.613      8.110
REMARK  Name = 
REMARK  19 active torsions:
REMARK  status: ('A' for Active; 'I' for Inactive)
REMARK    1  A    between atoms: C_1  and  C_2
REMARK    2  A    between atoms: C_2  and  O_4
REMARK    3  A    between atoms: O_4  and  C_5
REMARK    4  A    between atoms: C_5  and  C_6
REMARK    5  A    between atoms: C_6  and  O_7
REMARK    6  A    between atoms: C_8  and  O_9
REMARK    7  A    between atoms: C_12  and  C_13
REMARK    8  A    between atoms: C_13  and  O_14
REMARK    9  A    between atoms: O_14  and  C_15
REMARK   10  A    between atoms: C_15  and  C_17
REMARK   11  A    between atoms: C_17  and  C_18
REMARK   12  A    between atoms: C_18  and  C_19
REMARK   13  A    between atoms: C_18  and  C_20
REMARK   14  A    between atoms: C_23  and  O_24
REMARK   15  A    between atoms: O_24  and  C_25
REMARK   16  A    between atoms: C_25  and  C_27
REMARK   17  A    between atoms: C_27  and  C_28
REMARK   18  A    between atoms: C_28  and  C_29
REMARK   19  A    between atoms: C_28  and  C_30
REMARK                            x       y       z     vdW  Elec       q    Type
REMARK                         _______ _______ _______ _____ _____    ______ ____
ROOT
ATOM      1  C   UNL     1       5.448   4.890  16.937  0.00  0.00    +0.000 C 
ATOM      2  C   UNL     1       5.906   6.365  16.706  0.00  0.00    +0.000 C 
ATOM      3  C   UNL     1       4.930   7.262  17.472  0.00  0.00    +0.000 C 
ATOM      4  C   UNL     1       3.670   6.420  17.635  0.00  0.00    +0.000 C 
ATOM      5  C   UNL     1       2.773   6.882  18.751  0.00  0.00    +0.000 C 
ATOM      6  C   UNL     1       2.624   6.158  19.868  0.00  0.00    +0.000 C 
ATOM      7  O   UNL     1       3.298   5.014  20.178  0.00  0.00    +0.000 OA
ATOM      8  C   UNL     1       4.424   4.716  19.344  0.00  0.00    +0.000 C 
ATOM      9  C   UNL     1       4.200   4.999  17.852  0.00  0.00    +0.000 C 
ENDROOT
BRANCH   1  10
ATOM     10  O   UNL     1       6.516   4.151  17.553  0.00  0.00    +0.000 OA
ATOM     11  H   UNL     1       6.464   3.215  17.307  0.00  0.00    +0.000 HD
ENDBRANCH   1  10
BRANCH   2  12
ATOM     12  O   UNL     1       5.956   6.744  15.335  0.00  0.00    +0.000 OA
ATOM     13  H   UNL     1       5.083   7.064  15.050  0.00  0.00    +0.000 HD
ENDBRANCH   2  12
BRANCH   1  14
ATOM     14  C   UNL     1       5.100   4.152  15.618  0.00  0.00    +0.000 C 
BRANCH  14  15
ATOM     15  O   UNL     1       6.303   3.654  14.978  0.00  0.00    +0.000 OA
BRANCH  15  17
ATOM     16  C   UNL     1       5.875   3.427  12.671  0.00  0.00    +0.000 C 
ATOM     17  C   UNL     1       6.595   4.164  13.756  0.00  0.00    +0.000 C 
ATOM     18  O   UNL     1       7.354   5.102  13.542  0.00  0.00    +0.000 OA
ENDBRANCH  15  17
ENDBRANCH  14  15
ENDBRANCH   1  14
BRANCH   5  19
ATOM     19  C   UNL     1       1.998   8.155  18.531  0.00  0.00    +0.000 C 
BRANCH  19  20
ATOM     20  O   UNL     1       1.607   8.735  19.780  0.00  0.00    +0.000 OA
BRANCH  20  21
ATOM     21  C   UNL     1       0.664   9.712  19.682  0.00  0.00    +0.000 C 
ATOM     22  O   UNL     1       0.659  10.599  18.838  0.00  0.00    +0.000 OA
BRANCH  21  23
ATOM     23  C   UNL     1      -0.347   9.581  20.799  0.00  0.00    +0.000 C 
BRANCH  23  24
ATOM     24  C   UNL     1       0.059  10.373  22.052  0.00  0.00    +0.000 C 
ATOM     25  C   UNL     1      -0.731  11.677  22.185  0.00  0.00    +0.000 C 
ATOM     26  C   UNL     1      -0.146   9.522  23.307  0.00  0.00    +0.000 C 
ENDBRANCH  23  24
ENDBRANCH  21  23
ENDBRANCH  20  21
ENDBRANCH  19  20
ENDBRANCH   5  19
BRANCH   8  27
ATOM     27  O   UNL     1       4.859   3.369  19.572  0.00  0.00    +0.000 OA
BRANCH  27  28
ATOM     28  C   UNL     1       3.942   2.541  20.125  0.00  0.00    +0.000 C 
ATOM     29  O   UNL     1       3.758   2.345  21.325  0.00  0.00    +0.000 OA
BRANCH  28  30
ATOM     30  C   UNL     1       3.136   1.845  19.071  0.00  0.00    +0.000 C 
BRANCH  30  31
ATOM     31  C   UNL     1       1.642   2.126  19.242  0.00  0.00    +0.000 C 
ATOM     32  C   UNL     1       1.315   2.624  20.652  0.00  0.00    +0.000 C 
ATOM     33  C   UNL     1       1.192   3.153  18.207  0.00  0.00    +0.000 C 
ENDBRANCH  30  31
ENDBRANCH  28  30
ENDBRANCH  27  28
ENDBRANCH   8  27
TORSDOF 14
ENDMDL
MODEL 3
REMARK VINA RESULT:      -7.4      1.542      7.645
REMARK  Name = 
REMARK  19 active torsions:
REMARK  status: ('A' for Active; 'I' for Inactive)
REMARK    1  A    between atoms: C_1  and  C_2
REMARK    2  A    between atoms: C_2  and  O_4
REMARK    3  A    between atoms: O_4  and  C_5
REMARK    4  A    between atoms: C_5  and  C_6
REMARK    5  A    between atoms: C_6  and  O_7
REMARK    6  A    between atoms: C_8  and  O_9
REMARK    7  A    between atoms: C_12  and  C_13
REMARK    8  A    between atoms: C_13  and  O_14
REMARK    9  A    between atoms: O_14  and  C_15
REMARK   10  A    between atoms: C_15  and  C_17
REMARK   11  A    between atoms: C_17  and  C_18
REMARK   12  A    between atoms: C_18  and  C_19
REMARK   13  A    between atoms: C_18  and  C_20
REMARK   14  A    between atoms: C_23  and  O_24
REMARK   15  A    between atoms: O_24  and  C_25
REMARK   16  A    between atoms: C_25  and  C_27
REMARK   17  A    between atoms: C_27  and  C_28
REMARK   18  A    between atoms: C_28  and  C_29
REMARK   19  A    between atoms: C_28  and  C_30
REMARK                            x       y       z     vdW  Elec       q    Type
REMARK                         _______ _______ _______ _____ _____    ______ ____
ROOT
ATOM      1  C   UNL     1       6.648   4.869  17.429  0.00  0.00    +0.000 C 
ATOM      2  C   UNL     1       7.223   6.318  17.342  0.00  0.00    +0.000 C 
ATOM      3  C   UNL     1       6.078   7.275  17.679  0.00  0.00    +0.000 C 
ATOM      4  C   UNL     1       4.808   6.481  17.396  0.00  0.00    +0.000 C 
ATOM      5  C   UNL     1       3.590   7.016  18.098  0.00  0.00    +0.000 C 
ATOM      6  C   UNL     1       3.015   6.343  19.104  0.00  0.00    +0.000 C 
ATOM      7  O   UNL     1       3.480   5.191  19.666  0.00  0.00    +0.000 OA
ATOM      8  C   UNL     1       4.817   4.824  19.305  0.00  0.00    +0.000 C 
ATOM      9  C   UNL     1       5.160   5.054  17.827  0.00  0.00    +0.000 C 
ENDROOT
BRANCH   1  10
ATOM     10  O   UNL     1       7.388   4.122  18.409  0.00  0.00    +0.000 OA
ATOM     11  H   UNL     1       7.011   3.234  18.512  0.00  0.00    +0.000 HD
ENDBRANCH   1  10
BRANCH   2  12
ATOM     12  O   UNL     1       7.782   6.641  16.073  0.00  0.00    +0.000 OA
ATOM     13  H   UNL     1       7.386   7.464  15.739  0.00  0.00    +0.000 HD
ENDBRANCH   2  12
BRANCH   1  14
ATOM     14  C   UNL     1       6.768   4.091  16.094  0.00  0.00    +0.000 C 
BRANCH  14  15
ATOM     15  O   UNL     1       6.102   4.807  15.022  0.00  0.00    +0.000 OA
BRANCH  15  17
ATOM     16  C   UNL     1       6.005   3.681  12.953  0.00  0.00    +0.000 C 
ATOM     17  C   UNL     1       6.670   4.725  13.793  0.00  0.00    +0.000 C 
ATOM     18  O   UNL     1       7.615   5.402  13.403  0.00  0.00    +0.000 OA
ENDBRANCH  15  17
ENDBRANCH  14  15
ENDBRANCH   1  14
BRANCH   5  19
ATOM     19  C   UNL     1       3.003   8.303  17.580  0.00  0.00    +0.000 C 
BRANCH  19  20
ATOM     20  O   UNL     1       1.644   8.451  18.005  0.00  0.00    +0.000 OA
BRANCH  20  21
ATOM     21  C   UNL     1       1.363   9.639  18.607  0.00  0.00    +0.000 C 
ATOM     22  O   UNL     1       1.843  10.719  18.286  0.00  0.00    +0.000 OA
BRANCH  21  23
ATOM     23  C   UNL     1       0.416   9.429  19.768  0.00  0.00    +0.000 C 
BRANCH  23  24
ATOM     24  C   UNL     1       0.910  10.104  21.057  0.00  0.00    +0.000 C 
ATOM     25  C   UNL     1      -0.119  11.090  21.616  0.00  0.00    +0.000 C 
ATOM     26  C   UNL     1       1.236   9.051  22.117  0.00  0.00    +0.000 C 
ENDBRANCH  23  24
ENDBRANCH  21  23
ENDBRANCH  20  21
ENDBRANCH  19  20
ENDBRANCH   5  19
BRANCH   8  27
ATOM     27  O   UNL     1       5.081   3.473  19.709  0.00  0.00    +0.000 OA
BRANCH  27  28
ATOM     28  C   UNL     1       4.002   2.760  20.110  0.00  0.00    +0.000 C 
ATOM     29  O   UNL     1       3.586   2.641  21.261  0.00  0.00    +0.000 OA
BRANCH  28  30
ATOM     30  C   UNL     1       3.336   2.088  18.949  0.00  0.00    +0.000 C 
BRANCH  30  31
ATOM     31  C   UNL     1       2.111   2.875  18.482  0.00  0.00    +0.000 C 
ATOM     32  C   UNL     1       2.199   3.235  16.996  0.00  0.00    +0.000 C 
ATOM     33  C   UNL     1       0.847   2.064  18.749  0.00  0.00    +0.000 C 
ENDBRANCH  30  31
ENDBRANCH  28  30
ENDBRANCH  27  28
ENDBRANCH   8  27
TORSDOF 14
ENDMDL
MODEL 4
REMARK VINA RESULT:      -7.3      1.490      7.506
REMARK  Name = 
REMARK  19 active torsions:
REMARK  status: ('A' for Active; 'I' for Inactive)
REMARK    1  A    between atoms: C_1  and  C_2
REMARK    2  A    between atoms: C_2  and  O_4
REMARK    3  A    between atoms: O_4  and  C_5
REMARK    4  A    between atoms: C_5  and  C_6
REMARK    5  A    between atoms: C_6  and  O_7
REMARK    6  A    between atoms: C_8  and  O_9
REMARK    7  A    between atoms: C_12  and  C_13
REMARK    8  A    between atoms: C_13  and  O_14
REMARK    9  A    between atoms: O_14  and  C_15
REMARK   10  A    between atoms: C_15  and  C_17
REMARK   11  A    between atoms: C_17  and  C_18
REMARK   12  A    between atoms: C_18  and  C_19
REMARK   13  A    between atoms: C_18  and  C_20
REMARK   14  A    between atoms: C_23  and  O_24
REMARK   15  A    between atoms: O_24  and  C_25
REMARK   16  A    between atoms: C_25  and  C_27
REMARK   17  A    between atoms: C_27  and  C_28
REMARK   18  A    between atoms: C_28  and  C_29
REMARK   19  A    between atoms: C_28  and  C_30
REMARK                            x       y       z     vdW  Elec       q    Type
REMARK                         _______ _______ _______ _____ _____    ______ ____
ROOT
ATOM      1  C   UNL     1       6.605   4.814  17.355  0.00  0.00    +0.000 C 
ATOM      2  C   UNL     1       7.190   6.258  17.255  0.00  0.00    +0.000 C 
ATOM      3  C   UNL     1       6.052   7.226  17.583  0.00  0.00    +0.000 C 
ATOM      4  C   UNL     1       4.776   6.438  17.307  0.00  0.00    +0.000 C 
ATOM      5  C   UNL     1       3.562   6.989  18.004  0.00  0.00    +0.000 C 
ATOM      6  C   UNL     1       2.982   6.329  19.016  0.00  0.00    +0.000 C 
ATOM      7  O   UNL     1       3.439   5.179  19.589  0.00  0.00    +0.000 OA
ATOM      8  C   UNL     1       4.774   4.799  19.231  0.00  0.00    +0.000 C 
ATOM      9  C   UNL     1       5.118   5.013  17.751  0.00  0.00    +0.000 C 
ENDROOT
BRANCH   1  10
ATOM     10  O   UNL     1       7.339   4.070  18.342  0.00  0.00    +0.000 OA
ATOM     11  H   UNL     1       7.495   4.615  19.129  0.00  0.00    +0.000 HD
ENDBRANCH   1  10
BRANCH   2  12
ATOM     12  O   UNL     1       7.752   6.564  15.984  0.00  0.00    +0.000 OA
ATOM     13  H   UNL     1       8.398   5.881  15.736  0.00  0.00    +0.000 HD
ENDBRANCH   2  12
BRANCH   1  14
ATOM     14  C   UNL     1       6.719   4.022  16.027  0.00  0.00    +0.000 C 
BRANCH  14  15
ATOM     15  O   UNL     1       6.053   4.731  14.951  0.00  0.00    +0.000 OA
BRANCH  15  17
ATOM     16  C   UNL     1       6.005   3.613  12.875  0.00  0.00    +0.000 C 
ATOM     17  C   UNL     1       6.639   4.665  13.729  0.00  0.00    +0.000 C 
ATOM     18  O   UNL     1       7.575   5.362  13.354  0.00  0.00    +0.000 OA
ENDBRANCH  15  17
ENDBRANCH  14  15
ENDBRANCH   1  14
BRANCH   5  19
ATOM     19  C   UNL     1       2.985   8.275  17.474  0.00  0.00    +0.000 C 
BRANCH  19  20
ATOM     20  O   UNL     1       1.671   8.498  17.997  0.00  0.00    +0.000 OA
BRANCH  20  21
ATOM     21  C   UNL     1       1.375   9.802  18.254  0.00  0.00    +0.000 C 
ATOM     22  O   UNL     1       2.134  10.743  18.064  0.00  0.00    +0.000 OA
BRANCH  21  23
ATOM     23  C   UNL     1      -0.006   9.918  18.860  0.00  0.00    +0.000 C 
BRANCH  23  24
ATOM     24  C   UNL     1      -0.992  10.649  17.935  0.00  0.00    +0.000 C 
ATOM     25  C   UNL     1      -2.354   9.950  17.886  0.00  0.00    +0.000 C 
ATOM     26  C   UNL     1      -1.178  12.096  18.394  0.00  0.00    +0.000 C 
ENDBRANCH  23  24
ENDBRANCH  21  23
ENDBRANCH  20  21
ENDBRANCH  19  20
ENDBRANCH   5  19
BRANCH   8  27
ATOM     27  O   UNL     1       5.027   3.450  19.648  0.00  0.00    +0.000 OA
BRANCH  27  28
ATOM     28  C   UNL     1       3.963   2.782  20.153  0.00  0.00    +0.000 C 
ATOM     29  O   UNL     1       3.835   2.364  21.302  0.00  0.00    +0.000 OA
BRANCH  28  30
ATOM     30  C   UNL     1       2.904   2.586  19.111  0.00  0.00    +0.000 C 
BRANCH  30  31
ATOM     31  C   UNL     1       1.537   2.340  19.751  0.00  0.00    +0.000 C 
ATOM     32  C   UNL     1       1.096   3.522  20.619  0.00  0.00    +0.000 C 
ATOM     33  C   UNL     1       0.501   2.075  18.663  0.00  0.00    +0.000 C 
ENDBRANCH  30  31
ENDBRANCH  28  30
ENDBRANCH  27  28
ENDBRANCH   8  27
TORSDOF 14
ENDMDL
MODEL 5
REMARK VINA RESULT:      -7.3      0.809      1.234
REMARK  Name = 
REMARK  19 active torsions:
REMARK  status: ('A' for Active; 'I' for Inactive)
REMARK    1  A    between atoms: C_1  and  C_2
REMARK    2  A    between atoms: C_2  and  O_4
REMARK    3  A    between atoms: O_4  and  C_5
REMARK    4  A    between atoms: C_5  and  C_6
REMARK    5  A    between atoms: C_6  and  O_7
REMARK    6  A    between atoms: C_8  and  O_9
REMARK    7  A    between atoms: C_12  and  C_13
REMARK    8  A    between atoms: C_13  and  O_14
REMARK    9  A    between atoms: O_14  and  C_15
REMARK   10  A    between atoms: C_15  and  C_17
REMARK   11  A    between atoms: C_17  and  C_18
REMARK   12  A    between atoms: C_18  and  C_19
REMARK   13  A    between atoms: C_18  and  C_20
REMARK   14  A    between atoms: C_23  and  O_24
REMARK   15  A    between atoms: O_24  and  C_25
REMARK   16  A    between atoms: C_25  and  C_27
REMARK   17  A    between atoms: C_27  and  C_28
REMARK   18  A    between atoms: C_28  and  C_29
REMARK   19  A    between atoms: C_28  and  C_30
REMARK                            x       y       z     vdW  Elec       q    Type
REMARK                         _______ _______ _______ _____ _____    ______ ____
ROOT
ATOM      1  C   UNL     1       3.540   4.344  19.017  0.00  0.00    +0.000 C 
ATOM      2  C   UNL     1       4.977   4.087  19.571  0.00  0.00    +0.000 C 
ATOM      3  C   UNL     1       5.958   4.712  18.578  0.00  0.00    +0.000 C 
ATOM      4  C   UNL     1       5.188   4.796  17.266  0.00  0.00    +0.000 C 
ATOM      5  C   UNL     1       5.751   5.798  16.295  0.00  0.00    +0.000 C 
ATOM      6  C   UNL     1       5.096   6.930  16.005  0.00  0.00    +0.000 C 
ATOM      7  O   UNL     1       3.938   7.357  16.586  0.00  0.00    +0.000 OA
ATOM      8  C   UNL     1       3.543   6.648  17.767  0.00  0.00    +0.000 C 
ATOM      9  C   UNL     1       3.757   5.130  17.697  0.00  0.00    +0.000 C 
ENDROOT
BRANCH   1  10
ATOM     10  O   UNL     1       2.784   5.093  19.983  0.00  0.00    +0.000 OA
ATOM     11  H   UNL     1       2.356   4.495  20.615  0.00  0.00    +0.000 HD
ENDBRANCH   1  10
BRANCH   2  12
ATOM     12  O   UNL     1       5.280   2.710  19.768  0.00  0.00    +0.000 OA
ATOM     13  H   UNL     1       4.776   2.368  20.526  0.00  0.00    +0.000 HD
ENDBRANCH   2  12
BRANCH   1  14
ATOM     14  C   UNL     1       2.751   3.036  18.753  0.00  0.00    +0.000 C 
BRANCH  14  15
ATOM     15  O   UNL     1       2.598   2.275  19.979  0.00  0.00    +0.000 OA
BRANCH  15  17
ATOM     16  C   UNL     1       0.304   2.819  19.954  0.00  0.00    +0.000 C 
ATOM     17  C   UNL     1       1.541   2.597  20.766  0.00  0.00    +0.000 C 
ATOM     18  O   UNL     1       1.574   2.708  21.986  0.00  0.00    +0.000 OA
ENDBRANCH  15  17
ENDBRANCH  14  15
ENDBRANCH   1  14
BRANCH   5  19
ATOM     19  C   UNL     1       7.046   5.444  15.612  0.00  0.00    +0.000 C 
BRANCH  19  20
ATOM     20  O   UNL     1       6.838   5.210  14.215  0.00  0.00    +0.000 OA
BRANCH  20  21
ATOM     21  C   UNL     1       6.387   3.962  13.909  0.00  0.00    +0.000 C 
ATOM     22  O   UNL     1       6.055   3.116  14.729  0.00  0.00    +0.000 OA
BRANCH  21  23
ATOM     23  C   UNL     1       6.409   3.748  12.412  0.00  0.00    +0.000 C 
BRANCH  23  24
ATOM     24  C   UNL     1       5.449   2.634  11.965  0.00  0.00    +0.000 C 
ATOM     25  C   UNL     1       4.246   3.190  11.199  0.00  0.00    +0.000 C 
ATOM     26  C   UNL     1       6.186   1.617  11.092  0.00  0.00    +0.000 C 
ENDBRANCH  23  24
ENDBRANCH  21  23
ENDBRANCH  20  21
ENDBRANCH  19  20
ENDBRANCH   5  19
BRANCH   8  27
ATOM     27  O   UNL     1       2.190   6.981  18.107  0.00  0.00    +0.000 OA
BRANCH  27  28
ATOM     28  C   UNL     1       2.039   7.990  18.997  0.00  0.00    +0.000 C 
ATOM     29  O   UNL     1       2.161   7.917  20.219  0.00  0.00    +0.000 OA
BRANCH  28  30
ATOM     30  C   UNL     1       1.682   9.271  18.307  0.00  0.00    +0.000 C 
BRANCH  30  31
ATOM     31  C   UNL     1       0.534   9.984  19.024  0.00  0.00    +0.000 C 
ATOM     32  C   UNL     1       0.980  11.323  19.617  0.00  0.00    +0.000 C 
ATOM     33  C   UNL     1      -0.622  10.201  18.053  0.00  0.00    +0.000 C 
ENDBRANCH  30  31
ENDBRANCH  28  30
ENDBRANCH  27  28
ENDBRANCH   8  27
TORSDOF 14
ENDMDL
MODEL 6
REMARK VINA RESULT:      -7.3      1.708      7.517
REMARK  Name = 
REMARK  19 active torsions:
REMARK  status: ('A' for Active; 'I' for Inactive)
REMARK    1  A    between atoms: C_1  and  C_2
REMARK    2  A    between atoms: C_2  and  O_4
REMARK    3  A    between atoms: O_4  and  C_5
REMARK    4  A    between atoms: C_5  and  C_6
REMARK    5  A    between atoms: C_6  and  O_7
REMARK    6  A    between atoms: C_8  and  O_9
REMARK    7  A    between atoms: C_12  and  C_13
REMARK    8  A    between atoms: C_13  and  O_14
REMARK    9  A    between atoms: O_14  and  C_15
REMARK   10  A    between atoms: C_15  and  C_17
REMARK   11  A    between atoms: C_17  and  C_18
REMARK   12  A    between atoms: C_18  and  C_19
REMARK   13  A    between atoms: C_18  and  C_20
REMARK   14  A    between atoms: C_23  and  O_24
REMARK   15  A    between atoms: O_24  and  C_25
REMARK   16  A    between atoms: C_25  and  C_27
REMARK   17  A    between atoms: C_27  and  C_28
REMARK   18  A    between atoms: C_28  and  C_29
REMARK   19  A    between atoms: C_28  and  C_30
REMARK                            x       y       z     vdW  Elec       q    Type
REMARK                         _______ _______ _______ _____ _____    ______ ____
ROOT
ATOM      1  C   UNL     1       3.644   3.137  17.915  0.00  0.00    +0.000 C 
ATOM      2  C   UNL     1       2.118   3.188  17.585  0.00  0.00    +0.000 C 
ATOM      3  C   UNL     1       1.724   4.665  17.516  0.00  0.00    +0.000 C 
ATOM      4  C   UNL     1       2.791   5.393  18.326  0.00  0.00    +0.000 C 
ATOM      5  C   UNL     1       2.900   6.859  18.004  0.00  0.00    +0.000 C 
ATOM      6  C   UNL     1       3.968   7.353  17.364  0.00  0.00    +0.000 C 
ATOM      7  O   UNL     1       5.005   6.627  16.857  0.00  0.00    +0.000 OA
ATOM      8  C   UNL     1       4.794   5.210  16.796  0.00  0.00    +0.000 C 
ATOM      9  C   UNL     1       4.078   4.623  18.020  0.00  0.00    +0.000 C 
ENDROOT
BRANCH   1  10
ATOM     10  O   UNL     1       4.334   2.438  16.866  0.00  0.00    +0.000 OA
ATOM     11  H   UNL     1       5.191   2.114  17.183  0.00  0.00    +0.000 HD
ENDBRANCH   1  10
BRANCH   2  12
ATOM     12  O   UNL     1       1.302   2.501  18.527  0.00  0.00    +0.000 OA
ATOM     13  H   UNL     1       0.673   1.925  18.059  0.00  0.00    +0.000 HD
ENDBRANCH   2  12
BRANCH   1  14
ATOM     14  C   UNL     1       3.953   2.380  19.231  0.00  0.00    +0.000 C 
BRANCH  14  15
ATOM     15  O   UNL     1       3.701   3.228  20.381  0.00  0.00    +0.000 OA
BRANCH  15  17
ATOM     16  C   UNL     1       1.651   3.380  21.537  0.00  0.00    +0.000 C 
ATOM     17  C   UNL     1       2.969   2.687  21.386  0.00  0.00    +0.000 C 
ATOM     18  O   UNL     1       3.324   1.755  22.098  0.00  0.00    +0.000 OA
ENDBRANCH  15  17
ENDBRANCH  14  15
ENDBRANCH   1  14
BRANCH   5  19
ATOM     19  C   UNL     1       1.793   7.757  18.492  0.00  0.00    +0.000 C 
BRANCH  19  20
ATOM     20  O   UNL     1       2.151   8.379  19.731  0.00  0.00    +0.000 OA
BRANCH  20  21
ATOM     21  C   UNL     1       1.486   7.901  20.819  0.00  0.00    +0.000 C 
ATOM     22  O   UNL     1       1.113   6.744  20.961  0.00  0.00    +0.000 OA
BRANCH  21  23
ATOM     23  C   UNL     1       1.221   9.018  21.805  0.00  0.00    +0.000 C 
BRANCH  23  24
ATOM     24  C   UNL     1      -0.249   9.466  21.801  0.00  0.00    +0.000 C 
ATOM     25  C   UNL     1      -0.623  10.208  23.088  0.00  0.00    +0.000 C 
ATOM     26  C   UNL     1      -0.528  10.364  20.595  0.00  0.00    +0.000 C 
ENDBRANCH  23  24
ENDBRANCH  21  23
ENDBRANCH  20  21
ENDBRANCH  19  20
ENDBRANCH   5  19
BRANCH   8  27
ATOM     27  O   UNL     1       6.036   4.542  16.533  0.00  0.00    +0.000 OA
BRANCH  27  28
ATOM     28  C   UNL     1       6.612   4.822  15.340  0.00  0.00    +0.000 C 
ATOM     29  O   UNL     1       7.740   5.276  15.157  0.00  0.00    +0.000 OA
BRANCH  28  30
ATOM     30  C   UNL     1       5.683   4.514  14.206  0.00  0.00    +0.000 C 
BRANCH  30  31
ATOM     31  C   UNL     1       6.408   3.772  13.082  0.00  0.00    +0.000 C 
ATOM     32  C   UNL     1       5.426   3.126  12.101  0.00  0.00    +0.000 C 
ATOM     33  C   UNL     1       7.329   4.737  12.341  0.00  0.00    +0.000 C 
ENDBRANCH  30  31
ENDBRANCH  28  30
ENDBRANCH  27  28
ENDBRANCH   8  27
TORSDOF 14
ENDMDL
MODEL 7
REMARK VINA RESULT:      -7.3      1.671      7.644
REMARK  Name = 
REMARK  19 active torsions:
REMARK  status: ('A' for Active; 'I' for Inactive)
REMARK    1  A    between atoms: C_1  and  C_2
REMARK    2  A    between atoms: C_2  and  O_4
REMARK    3  A    between atoms: O_4  and  C_5
REMARK    4  A    between atoms: C_5  and  C_6
REMARK    5  A    between atoms: C_6  and  O_7
REMARK    6  A    between atoms: C_8  and  O_9
REMARK    7  A    between atoms: C_12  and  C_13
REMARK    8  A    between atoms: C_13  and  O_14
REMARK    9  A    between atoms: O_14  and  C_15
REMARK   10  A    between atoms: C_15  and  C_17
REMARK   11  A    between atoms: C_17  and  C_18
REMARK   12  A    between atoms: C_18  and  C_19
REMARK   13  A    between atoms: C_18  and  C_20
REMARK   14  A    between atoms: C_23  and  O_24
REMARK   15  A    between atoms: O_24  and  C_25
REMARK   16  A    between atoms: C_25  and  C_27
REMARK   17  A    between atoms: C_27  and  C_28
REMARK   18  A    between atoms: C_28  and  C_29
REMARK   19  A    between atoms: C_28  and  C_30
REMARK                            x       y       z     vdW  Elec       q    Type
REMARK                         _______ _______ _______ _____ _____    ______ ____
ROOT
ATOM      1  C   UNL     1       5.591   4.937  17.470  0.00  0.00    +0.000 C 
ATOM      2  C   UNL     1       6.160   6.387  17.365  0.00  0.00    +0.000 C 
ATOM      3  C   UNL     1       5.095   7.328  17.933  0.00  0.00    +0.000 C 
ATOM      4  C   UNL     1       3.787   6.552  17.822  0.00  0.00    +0.000 C 
ATOM      5  C   UNL     1       2.706   7.053  18.740  0.00  0.00    +0.000 C 
ATOM      6  C   UNL     1       2.296   6.329  19.791  0.00  0.00    +0.000 C 
ATOM      7  O   UNL     1       2.834   5.148  20.210  0.00  0.00    +0.000 OA
ATOM      8  C   UNL     1       4.091   4.798  19.616  0.00  0.00    +0.000 C 
ATOM      9  C   UNL     1       4.189   5.104  18.115  0.00  0.00    +0.000 C 
ENDROOT
BRANCH   1  10
ATOM     10  O   UNL     1       6.473   4.137  18.276  0.00  0.00    +0.000 OA
ATOM     11  H   UNL     1       6.152   3.223  18.324  0.00  0.00    +0.000 HD
ENDBRANCH   1  10
BRANCH   2  12
ATOM     12  O   UNL     1       6.507   6.774  16.040  0.00  0.00    +0.000 OA
ATOM     13  H   UNL     1       5.711   7.065  15.563  0.00  0.00    +0.000 HD
ENDBRANCH   2  12
BRANCH   1  14
ATOM     14  C   UNL     1       5.482   4.229  16.095  0.00  0.00    +0.000 C 
BRANCH  14  15
ATOM     15  O   UNL     1       6.794   4.071  15.497  0.00  0.00    +0.000 OA
BRANCH  15  17
ATOM     16  C   UNL     1       6.012   3.733  13.298  0.00  0.00    +0.000 C 
ATOM     17  C   UNL     1       6.928   4.485  14.211  0.00  0.00    +0.000 C 
ATOM     18  O   UNL     1       7.700   5.354  13.824  0.00  0.00    +0.000 OA
ENDBRANCH  15  17
ENDBRANCH  14  15
ENDBRANCH   1  14
BRANCH   5  19
ATOM     19  C   UNL     1       2.057   8.366  18.392  0.00  0.00    +0.000 C 
BRANCH  19  20
ATOM     20  O   UNL     1       1.714   9.095  19.576  0.00  0.00    +0.000 OA
BRANCH  20  21
ATOM     21  C   UNL     1       0.455   9.615  19.579  0.00  0.00    +0.000 C 
ATOM     22  O   UNL     1      -0.253   9.730  20.571  0.00  0.00    +0.000 OA
BRANCH  21  23
ATOM     23  C   UNL     1       0.033   9.978  18.173  0.00  0.00    +0.000 C 
BRANCH  23  24
ATOM     24  C   UNL     1      -1.423  10.463  18.105  0.00  0.00    +0.000 C 
ATOM     25  C   UNL     1      -1.514  11.990  18.048  0.00  0.00    +0.000 C 
ATOM     26  C   UNL     1      -2.126   9.864  16.886  0.00  0.00    +0.000 C 
ENDBRANCH  23  24
ENDBRANCH  21  23
ENDBRANCH  20  21
ENDBRANCH  19  20
ENDBRANCH   5  19
BRANCH   8  27
ATOM     27  O   UNL     1       4.402   3.427  19.902  0.00  0.00    +0.000 OA
BRANCH  27  28
ATOM     28  C   UNL     1       3.355   2.651  20.268  0.00  0.00    +0.000 C 
ATOM     29  O   UNL     1       2.848   2.580  21.386  0.00  0.00    +0.000 OA
BRANCH  28  30
ATOM     30  C   UNL     1       2.854   1.839  19.112  0.00  0.00    +0.000 C 
BRANCH  30  31
ATOM     31  C   UNL     1       1.483   2.329  18.645  0.00  0.00    +0.000 C 
ATOM     32  C   UNL     1       0.664   2.912  19.800  0.00  0.00    +0.000 C 
ATOM     33  C   UNL     1       1.658   3.376  17.548  0.00  0.00    +0.000 C 
ENDBRANCH  30  31
ENDBRANCH  28  30
ENDBRANCH  27  28
ENDBRANCH   8  27
TORSDOF 14
ENDMDL
MODEL 8
REMARK VINA RESULT:      -7.3      1.850      7.708
REMARK  Name = 
REMARK  19 active torsions:
REMARK  status: ('A' for Active; 'I' for Inactive)
REMARK    1  A    between atoms: C_1  and  C_2
REMARK    2  A    between atoms: C_2  and  O_4
REMARK    3  A    between atoms: O_4  and  C_5
REMARK    4  A    between atoms: C_5  and  C_6
REMARK    5  A    between atoms: C_6  and  O_7
REMARK    6  A    between atoms: C_8  and  O_9
REMARK    7  A    between atoms: C_12  and  C_13
REMARK    8  A    between atoms: C_13  and  O_14
REMARK    9  A    between atoms: O_14  and  C_15
REMARK   10  A    between atoms: C_15  and  C_17
REMARK   11  A    between atoms: C_17  and  C_18
REMARK   12  A    between atoms: C_18  and  C_19
REMARK   13  A    between atoms: C_18  and  C_20
REMARK   14  A    between atoms: C_23  and  O_24
REMARK   15  A    between atoms: O_24  and  C_25
REMARK   16  A    between atoms: C_25  and  C_27
REMARK   17  A    between atoms: C_27  and  C_28
REMARK   18  A    between atoms: C_28  and  C_29
REMARK   19  A    between atoms: C_28  and  C_30
REMARK                            x       y       z     vdW  Elec       q    Type
REMARK                         _______ _______ _______ _____ _____    ______ ____
ROOT
ATOM      1  C   UNL     1       5.976   4.970  16.325  0.00  0.00    +0.000 C 
ATOM      2  C   UNL     1       6.787   6.015  17.154  0.00  0.00    +0.000 C 
ATOM      3  C   UNL     1       5.770   6.932  17.837  0.00  0.00    +0.000 C 
ATOM      4  C   UNL     1       4.503   6.804  16.999  0.00  0.00    +0.000 C 
ATOM      5  C   UNL     1       3.252   7.212  17.727  0.00  0.00    +0.000 C 
ATOM      6  C   UNL     1       2.331   6.307  18.088  0.00  0.00    +0.000 C 
ATOM      7  O   UNL     1       2.434   4.956  17.940  0.00  0.00    +0.000 OA
ATOM      8  C   UNL     1       3.739   4.471  17.599  0.00  0.00    +0.000 C 
ATOM      9  C   UNL     1       4.487   5.333  16.574  0.00  0.00    +0.000 C 
ENDROOT
BRANCH   1  10
ATOM     10  O   UNL     1       6.300   3.646  16.781  0.00  0.00    +0.000 OA
ATOM     11  H   UNL     1       7.052   3.292  16.283  0.00  0.00    +0.000 HD
ENDBRANCH   1  10
BRANCH   2  12
ATOM     12  O   UNL     1       7.703   6.780  16.378  0.00  0.00    +0.000 OA
ATOM     13  H   UNL     1       7.331   6.939  15.493  0.00  0.00    +0.000 HD
ENDBRANCH   2  12
BRANCH   1  14
ATOM     14  C   UNL     1       6.306   5.011  14.811  0.00  0.00    +0.000 C 
BRANCH  14  15
ATOM     15  O   UNL     1       6.084   3.713  14.204  0.00  0.00    +0.000 OA
BRANCH  15  17
ATOM     16  C   UNL     1       4.802   3.344  12.259  0.00  0.00    +0.000 C 
ATOM     17  C   UNL     1       6.140   3.659  12.849  0.00  0.00    +0.000 C 
ATOM     18  O   UNL     1       7.149   3.834  12.175  0.00  0.00    +0.000 OA
ENDBRANCH  15  17
ENDBRANCH  14  15
ENDBRANCH   1  14
BRANCH   5  19
ATOM     19  C   UNL     1       3.044   8.683  17.973  0.00  0.00    +0.000 C 
BRANCH  19  20
ATOM     20  O   UNL     1       1.888   9.158  17.274  0.00  0.00    +0.000 OA
BRANCH  20  21
ATOM     21  C   UNL     1       0.835   9.485  18.073  0.00  0.00    +0.000 C 
ATOM     22  O   UNL     1      -0.290   9.757  17.673  0.00  0.00    +0.000 OA
BRANCH  21  23
ATOM     23  C   UNL     1       1.265   9.520  19.522  0.00  0.00    +0.000 C 
BRANCH  23  24
ATOM     24  C   UNL     1       0.203  10.152  20.434  0.00  0.00    +0.000 C 
ATOM     25  C   UNL     1      -0.139   9.250  21.624  0.00  0.00    +0.000 C 
ATOM     26  C   UNL     1       0.682  11.511  20.946  0.00  0.00    +0.000 C 
ENDBRANCH  23  24
ENDBRANCH  21  23
ENDBRANCH  20  21
ENDBRANCH  19  20
ENDBRANCH   5  19
BRANCH   8  27
ATOM     27  O   UNL     1       3.659   3.100  17.185  0.00  0.00    +0.000 OA
BRANCH  27  28
ATOM     28  C   UNL     1       3.596   2.188  18.184  0.00  0.00    +0.000 C 
ATOM     29  O   UNL     1       3.848   0.987  18.100  0.00  0.00    +0.000 OA
BRANCH  28  30
ATOM     30  C   UNL     1       3.157   2.822  19.468  0.00  0.00    +0.000 C 
BRANCH  30  31
ATOM     31  C   UNL     1       1.856   2.199  19.976  0.00  0.00    +0.000 C 
ATOM     32  C   UNL     1       1.418   2.807  21.311  0.00  0.00    +0.000 C 
ATOM     33  C   UNL     1       0.758   2.383  18.933  0.00  0.00    +0.000 C 
ENDBRANCH  30  31
ENDBRANCH  28  30
ENDBRANCH  27  28
ENDBRANCH   8  27
TORSDOF 14
ENDMDL
MODEL 9
REMARK VINA RESULT:      -7.2      1.728      7.579
REMARK  Name = 
REMARK  19 active torsions:
REMARK  status: ('A' for Active; 'I' for Inactive)
REMARK    1  A    between atoms: C_1  and  C_2
REMARK    2  A    between atoms: C_2  and  O_4
REMARK    3  A    between atoms: O_4  and  C_5
REMARK    4  A    between atoms: C_5  and  C_6
REMARK    5  A    between atoms: C_6  and  O_7
REMARK    6  A    between atoms: C_8  and  O_9
REMARK    7  A    between atoms: C_12  and  C_13
REMARK    8  A    between atoms: C_13  and  O_14
REMARK    9  A    between atoms: O_14  and  C_15
REMARK   10  A    between atoms: C_15  and  C_17
REMARK   11  A    between atoms: C_17  and  C_18
REMARK   12  A    between atoms: C_18  and  C_19
REMARK   13  A    between atoms: C_18  and  C_20
REMARK   14  A    between atoms: C_23  and  O_24
REMARK   15  A    between atoms: O_24  and  C_25
REMARK   16  A    between atoms: C_25  and  C_27
REMARK   17  A    between atoms: C_27  and  C_28
REMARK   18  A    between atoms: C_28  and  C_29
REMARK   19  A    between atoms: C_28  and  C_30
REMARK                            x       y       z     vdW  Elec       q    Type
REMARK                         _______ _______ _______ _____ _____    ______ ____
ROOT
ATOM      1  C   UNL     1       3.351   3.242  18.321  0.00  0.00    +0.000 C 
ATOM      2  C   UNL     1       1.880   3.344  17.808  0.00  0.00    +0.000 C 
ATOM      3  C   UNL     1       1.605   4.824  17.532  0.00  0.00    +0.000 C 
ATOM      4  C   UNL     1       2.624   5.577  18.379  0.00  0.00    +0.000 C 
ATOM      5  C   UNL     1       2.874   6.986  17.915  0.00  0.00    +0.000 C 
ATOM      6  C   UNL     1       4.041   7.337  17.357  0.00  0.00    +0.000 C 
ATOM      7  O   UNL     1       5.072   6.497  17.060  0.00  0.00    +0.000 OA
ATOM      8  C   UNL     1       4.767   5.098  17.129  0.00  0.00    +0.000 C 
ATOM      9  C   UNL     1       3.878   4.701  18.315  0.00  0.00    +0.000 C 
ENDROOT
BRANCH   1  10
ATOM     10  O   UNL     1       4.103   2.385  17.445  0.00  0.00    +0.000 OA
ATOM     11  H   UNL     1       3.741   2.421  16.546  0.00  0.00    +0.000 HD
ENDBRANCH   1  10
BRANCH   2  12
ATOM     12  O   UNL     1       0.916   2.821  18.715  0.00  0.00    +0.000 OA
ATOM     13  H   UNL     1       0.363   2.162  18.262  0.00  0.00    +0.000 HD
ENDBRANCH   2  12
BRANCH   1  14
ATOM     14  C   UNL     1       3.455   2.626  19.740  0.00  0.00    +0.000 C 
BRANCH  14  15
ATOM     15  O   UNL     1       3.379   3.661  20.754  0.00  0.00    +0.000 OA
BRANCH  15  17
ATOM     16  C   UNL     1       1.571   5.075  21.295  0.00  0.00    +0.000 C 
ATOM     17  C   UNL     1       2.222   3.738  21.457  0.00  0.00    +0.000 C 
ATOM     18  O   UNL     1       1.754   2.842  22.151  0.00  0.00    +0.000 OA
ENDBRANCH  15  17
ENDBRANCH  14  15
ENDBRANCH   1  14
BRANCH   5  19
ATOM     19  C   UNL     1       1.788   7.999  18.166  0.00  0.00    +0.000 C 
BRANCH  19  20
ATOM     20  O   UNL     1       1.706   8.323  19.559  0.00  0.00    +0.000 OA
BRANCH  20  21
ATOM     21  C   UNL     1       1.053   9.486  19.834  0.00  0.00    +0.000 C 
ATOM     22  O   UNL     1       1.318  10.573  19.336  0.00  0.00    +0.000 OA
BRANCH  21  23
ATOM     23  C   UNL     1      -0.009   9.256  20.886  0.00  0.00    +0.000 C 
BRANCH  23  24
ATOM     24  C   UNL     1       0.083  10.264  22.042  0.00  0.00    +0.000 C 
ATOM     25  C   UNL     1      -0.997  11.345  21.945  0.00  0.00    +0.000 C 
ATOM     26  C   UNL     1      -0.035   9.544  23.386  0.00  0.00    +0.000 C 
ENDBRANCH  23  24
ENDBRANCH  21  23
ENDBRANCH  20  21
ENDBRANCH  19  20
ENDBRANCH   5  19
BRANCH   8  27
ATOM     27  O   UNL     1       5.979   4.331  17.091  0.00  0.00    +0.000 OA
BRANCH  27  28
ATOM     28  C   UNL     1       6.673   4.388  15.930  0.00  0.00    +0.000 C 
ATOM     29  O   UNL     1       7.889   4.524  15.806  0.00  0.00    +0.000 OA
BRANCH  28  30
ATOM     30  C   UNL     1       5.760   4.273  14.748  0.00  0.00    +0.000 C 
BRANCH  30  31
ATOM     31  C   UNL     1       6.527   3.843  13.496  0.00  0.00    +0.000 C 
ATOM     32  C   UNL     1       5.589   3.317  12.407  0.00  0.00    +0.000 C 
ATOM     33  C   UNL     1       7.339   5.019  12.963  0.00  0.00    +0.000 C 
ENDBRANCH  30  31
ENDBRANCH  28  30
ENDBRANCH  27  28
ENDBRANCH   8  27
TORSDOF 14
ENDMDL
