MODEL 1
REMARK VINA RESULT:      -8.9      0.000      0.000
REMARK  Name = 
REMARK  4 active torsions:
REMARK  status: ('A' for Active; 'I' for Inactive)
REMARK    1  A    between atoms: C_1  and  C_2
REMARK    2  A    between atoms: C_2  and  C_3
REMARK    3  A    between atoms: C_3  and  C_4
REMARK    4  A    between atoms: C_9  and  C_10
REMARK                            x       y       z     vdW  Elec       q    Type
REMARK                         _______ _______ _______ _____ _____    ______ ____
ROOT
ATOM      1  C   UNL     1       7.846   6.900  18.302  0.00  0.00    +0.000 C 
ATOM      2  O   UNL     1       7.852   5.911  19.038  0.00  0.00    +0.000 OA
ATOM      3  N   UNL     1       7.175   6.989  17.102  0.00  0.00    +0.000 N 
ATOM      4  C   UNL     1       6.424   5.928  16.606  0.00  0.00    +0.000 A 
ATOM      5  C   UNL     1       5.502   5.261  17.401  0.00  0.00    +0.000 A 
ATOM      6  C   UNL     1       4.830   4.151  16.889  0.00  0.00    +0.000 A 
ATOM      7  C   UNL     1       5.133   3.750  15.589  0.00  0.00    +0.000 A 
ATOM      8  C   UNL     1       6.035   4.514  14.865  0.00  0.00    +0.000 A 
ATOM      9 CL   UNL     1       6.483   4.060  13.272  0.00  0.00    +0.000 Cl
ATOM     10  N   UNL     1       6.657   5.617  15.320  0.00  0.00    +0.000 NA
ATOM     11  H   UNL     1       7.607   7.555  16.382  0.00  0.00    +0.000 HD
ENDROOT
BRANCH   6  12
ATOM     12  C   UNL     1       3.846   3.433  17.700  0.00  0.00    +0.000 A 
ATOM     13  C   UNL     1       3.586   2.079  17.548  0.00  0.00    +0.000 A 
ATOM     14  N   UNL     1       2.607   1.723  18.440  0.00  0.00    +0.000 N 
ATOM     15  C   UNL     1       2.215   2.814  19.161  0.00  0.00    +0.000 A 
ATOM     16  N   UNL     1       1.263   2.787  20.112  0.00  0.00    +0.000 NA
ATOM     17  C   UNL     1       1.053   3.994  20.682  0.00  0.00    +0.000 A 
ATOM     18  C   UNL     1       1.719   5.167  20.358  0.00  0.00    +0.000 A 
ATOM     19  C   UNL     1       2.705   5.134  19.373  0.00  0.00    +0.000 A 
ATOM     20  C   UNL     1       2.965   3.906  18.732  0.00  0.00    +0.000 A 
ATOM     21  H   UNL     1       2.215   0.801  18.571  0.00  0.00    +0.000 HD
ENDBRANCH   6  12
BRANCH   1  22
ATOM     22  C   UNL     1       8.587   8.160  18.681  0.00  0.00    +0.000 C 
BRANCH  22  24
ATOM     23  C   UNL     1       8.898  10.619  18.155  0.00  0.00    +0.000 C 
ATOM     24  C   UNL     1       8.140   9.338  17.822  0.00  0.00    +0.000 C 
ENDBRANCH  22  24
ENDBRANCH   1  22
TORSDOF 3
ENDMDL
MODEL 2
REMARK VINA RESULT:      -8.7      2.697      4.740
REMARK  Name = 
REMARK  4 active torsions:
REMARK  status: ('A' for Active; 'I' for Inactive)
REMARK    1  A    between atoms: C_1  and  C_2
REMARK    2  A    between atoms: C_2  and  C_3
REMARK    3  A    between atoms: C_3  and  C_4
REMARK    4  A    between atoms: C_9  and  C_10
REMARK                            x       y       z     vdW  Elec       q    Type
REMARK                         _______ _______ _______ _____ _____    ______ ____
ROOT
ATOM      1  C   UNL     1       6.102   3.973  13.466  0.00  0.00    +0.000 C 
ATOM      2  O   UNL     1       4.894   3.986  13.713  0.00  0.00    +0.000 OA
ATOM      3  N   UNL     1       7.094   4.340  14.349  0.00  0.00    +0.000 N 
ATOM      4  C   UNL     1       6.799   4.773  15.638  0.00  0.00    +0.000 A 
ATOM      5  C   UNL     1       5.933   4.064  16.458  0.00  0.00    +0.000 A 
ATOM      6  C   UNL     1       5.601   4.577  17.713  0.00  0.00    +0.000 A 
ATOM      7  C   UNL     1       6.152   5.803  18.079  0.00  0.00    +0.000 A 
ATOM      8  C   UNL     1       7.042   6.407  17.205  0.00  0.00    +0.000 A 
ATOM      9 CL   UNL     1       7.731   7.934  17.575  0.00  0.00    +0.000 Cl
ATOM     10  N   UNL     1       7.416   5.906  16.013  0.00  0.00    +0.000 NA
ATOM     11  H   UNL     1       7.917   4.774  13.951  0.00  0.00    +0.000 HD
ENDROOT
BRANCH   6  12
ATOM     12  C   UNL     1       4.698   3.848  18.603  0.00  0.00    +0.000 A 
ATOM     13  C   UNL     1       5.138   3.145  19.715  0.00  0.00    +0.000 A 
ATOM     14  N   UNL     1       4.052   2.565  20.319  0.00  0.00    +0.000 N 
ATOM     15  C   UNL     1       2.917   2.865  19.622  0.00  0.00    +0.000 A 
ATOM     16  N   UNL     1       1.688   2.434  19.962  0.00  0.00    +0.000 NA
ATOM     17  C   UNL     1       0.726   2.863  19.116  0.00  0.00    +0.000 A 
ATOM     18  C   UNL     1       0.930   3.661  18.000  0.00  0.00    +0.000 A 
ATOM     19  C   UNL     1       2.223   4.088  17.702  0.00  0.00    +0.000 A 
ATOM     20  C   UNL     1       3.274   3.666  18.541  0.00  0.00    +0.000 A 
ATOM     21  H   UNL     1       4.057   1.999  21.156  0.00  0.00    +0.000 HD
ENDBRANCH   6  12
BRANCH   1  22
ATOM     22  C   UNL     1       6.620   3.512  12.124  0.00  0.00    +0.000 C 
BRANCH  22  24
ATOM     23  C   UNL     1       6.510   1.208  11.078  0.00  0.00    +0.000 C 
ATOM     24  C   UNL     1       5.721   2.431  11.532  0.00  0.00    +0.000 C 
ENDBRANCH  22  24
ENDBRANCH   1  22
TORSDOF 3
ENDMDL
MODEL 3
REMARK VINA RESULT:      -8.7      3.361      6.504
REMARK  Name = 
REMARK  4 active torsions:
REMARK  status: ('A' for Active; 'I' for Inactive)
REMARK    1  A    between atoms: C_1  and  C_2
REMARK    2  A    between atoms: C_2  and  C_3
REMARK    3  A    between atoms: C_3  and  C_4
REMARK    4  A    between atoms: C_9  and  C_10
REMARK                            x       y       z     vdW  Elec       q    Type
REMARK                         _______ _______ _______ _____ _____    ______ ____
ROOT
ATOM      1  C   UNL     1       1.521   8.286  20.231  0.00  0.00    +0.000 C 
ATOM      2  O   UNL     1       1.985   8.489  19.106  0.00  0.00    +0.000 OA
ATOM      3  N   UNL     1       1.520   7.071  20.879  0.00  0.00    +0.000 N 
ATOM      4  C   UNL     1       2.062   5.931  20.292  0.00  0.00    +0.000 A 
ATOM      5  C   UNL     1       3.323   5.946  19.713  0.00  0.00    +0.000 A 
ATOM      6  C   UNL     1       3.794   4.805  19.063  0.00  0.00    +0.000 A 
ATOM      7  C   UNL     1       2.956   3.693  19.014  0.00  0.00    +0.000 A 
ATOM      8  C   UNL     1       1.734   3.768  19.665  0.00  0.00    +0.000 A 
ATOM      9 CL   UNL     1       0.636   2.450  19.616  0.00  0.00    +0.000 Cl
ATOM     10  N   UNL     1       1.281   4.839  20.340  0.00  0.00    +0.000 NA
ATOM     11  H   UNL     1       0.734   6.882  21.488  0.00  0.00    +0.000 HD
ENDROOT
BRANCH   6  12
ATOM     12  C   UNL     1       5.123   4.788  18.451  0.00  0.00    +0.000 A 
ATOM     13  C   UNL     1       6.293   4.931  19.181  0.00  0.00    +0.000 A 
ATOM     14  N   UNL     1       7.354   4.889  18.312  0.00  0.00    +0.000 N 
ATOM     15  C   UNL     1       6.902   4.734  17.034  0.00  0.00    +0.000 A 
ATOM     16  N   UNL     1       7.704   4.665  15.954  0.00  0.00    +0.000 NA
ATOM     17  C   UNL     1       7.020   4.511  14.800  0.00  0.00    +0.000 A 
ATOM     18  C   UNL     1       5.640   4.428  14.682  0.00  0.00    +0.000 A 
ATOM     19  C   UNL     1       4.859   4.494  15.836  0.00  0.00    +0.000 A 
ATOM     20  C   UNL     1       5.512   4.665  17.073  0.00  0.00    +0.000 A 
ATOM     21  H   UNL     1       8.333   4.958  18.551  0.00  0.00    +0.000 HD
ENDBRANCH   6  12
BRANCH   1  22
ATOM     22  C   UNL     1       0.908   9.407  21.037  0.00  0.00    +0.000 C 
BRANCH  22  24
ATOM     23  C   UNL     1      -0.375   9.767  23.191  0.00  0.00    +0.000 C 
ATOM     24  C   UNL     1      -0.183   8.882  21.964  0.00  0.00    +0.000 C 
ENDBRANCH  22  24
ENDBRANCH   1  22
TORSDOF 3
ENDMDL
MODEL 4
REMARK VINA RESULT:      -8.6      1.263      1.359
REMARK  Name = 
REMARK  4 active torsions:
REMARK  status: ('A' for Active; 'I' for Inactive)
REMARK    1  A    between atoms: C_1  and  C_2
REMARK    2  A    between atoms: C_2  and  C_3
REMARK    3  A    between atoms: C_3  and  C_4
REMARK    4  A    between atoms: C_9  and  C_10
REMARK                            x       y       z     vdW  Elec       q    Type
REMARK                         _______ _______ _______ _____ _____    ______ ____
ROOT
ATOM      1  C   UNL     1       7.688   7.848  17.790  0.00  0.00    +0.000 C 
ATOM      2  O   UNL     1       8.123   7.001  18.574  0.00  0.00    +0.000 OA
ATOM      3  N   UNL     1       6.688   7.633  16.868  0.00  0.00    +0.000 N 
ATOM      4  C   UNL     1       6.066   6.395  16.742  0.00  0.00    +0.000 A 
ATOM      5  C   UNL     1       5.586   5.711  17.850  0.00  0.00    +0.000 A 
ATOM      6  C   UNL     1       5.043   4.436  17.689  0.00  0.00    +0.000 A 
ATOM      7  C   UNL     1       5.024   3.897  16.403  0.00  0.00    +0.000 A 
ATOM      8  C   UNL     1       5.486   4.683  15.359  0.00  0.00    +0.000 A 
ATOM      9 CL   UNL     1       5.524   4.071  13.757  0.00  0.00    +0.000 Cl
ATOM     10  N   UNL     1       5.966   5.933  15.484  0.00  0.00    +0.000 NA
ATOM     11  H   UNL     1       6.755   8.147  15.998  0.00  0.00    +0.000 HD
ENDROOT
BRANCH   6  12
ATOM     12  C   UNL     1       4.522   3.694  18.836  0.00  0.00    +0.000 A 
ATOM     13  C   UNL     1       5.267   2.750  19.528  0.00  0.00    +0.000 A 
ATOM     14  N   UNL     1       4.486   2.230  20.528  0.00  0.00    +0.000 N 
ATOM     15  C   UNL     1       3.248   2.803  20.498  0.00  0.00    +0.000 A 
ATOM     16  N   UNL     1       2.253   2.495  21.351  0.00  0.00    +0.000 NA
ATOM     17  C   UNL     1       1.123   3.196  21.118  0.00  0.00    +0.000 A 
ATOM     18  C   UNL     1       0.951   4.144  20.119  0.00  0.00    +0.000 A 
ATOM     19  C   UNL     1       2.020   4.432  19.271  0.00  0.00    +0.000 A 
ATOM     20  C   UNL     1       3.225   3.726  19.456  0.00  0.00    +0.000 A 
ATOM     21  H   UNL     1       4.758   1.529  21.203  0.00  0.00    +0.000 HD
ENDBRANCH   6  12
BRANCH   1  22
ATOM     22  C   UNL     1       8.224   9.261  17.790  0.00  0.00    +0.000 C 
BRANCH  22  24
ATOM     23  C   UNL     1       9.636  10.941  19.055  0.00  0.00    +0.000 C 
ATOM     24  C   UNL     1       9.052   9.532  19.042  0.00  0.00    +0.000 C 
ENDBRANCH  22  24
ENDBRANCH   1  22
TORSDOF 3
ENDMDL
MODEL 5
REMARK VINA RESULT:      -8.6      2.596      4.697
REMARK  Name = 
REMARK  4 active torsions:
REMARK  status: ('A' for Active; 'I' for Inactive)
REMARK    1  A    between atoms: C_1  and  C_2
REMARK    2  A    between atoms: C_2  and  C_3
REMARK    3  A    between atoms: C_3  and  C_4
REMARK    4  A    between atoms: C_9  and  C_10
REMARK                            x       y       z     vdW  Elec       q    Type
REMARK                         _______ _______ _______ _____ _____    ______ ____
ROOT
ATOM      1  C   UNL     1       6.068   3.802  13.147  0.00  0.00    +0.000 C 
ATOM      2  O   UNL     1       4.848   3.938  13.265  0.00  0.00    +0.000 OA
ATOM      3  N   UNL     1       6.993   4.057  14.136  0.00  0.00    +0.000 N 
ATOM      4  C   UNL     1       6.607   4.509  15.395  0.00  0.00    +0.000 A 
ATOM      5  C   UNL     1       5.591   3.888  16.106  0.00  0.00    +0.000 A 
ATOM      6  C   UNL     1       5.181   4.423  17.327  0.00  0.00    +0.000 A 
ATOM      7  C   UNL     1       5.813   5.583  17.773  0.00  0.00    +0.000 A 
ATOM      8  C   UNL     1       6.849   6.097  17.008  0.00  0.00    +0.000 A 
ATOM      9 CL   UNL     1       7.648   7.541  17.477  0.00  0.00    +0.000 Cl
ATOM     10  N   UNL     1       7.294   5.569  15.854  0.00  0.00    +0.000 NA
ATOM     11  H   UNL     1       7.894   4.406  13.835  0.00  0.00    +0.000 HD
ENDROOT
BRANCH   6  12
ATOM     12  C   UNL     1       4.118   3.786  18.104  0.00  0.00    +0.000 A 
ATOM     13  C   UNL     1       3.833   2.430  18.025  0.00  0.00    +0.000 A 
ATOM     14  N   UNL     1       2.778   2.160  18.858  0.00  0.00    +0.000 N 
ATOM     15  C   UNL     1       2.362   3.308  19.470  0.00  0.00    +0.000 A 
ATOM     16  N   UNL     1       1.338   3.369  20.342  0.00  0.00    +0.000 NA
ATOM     17  C   UNL     1       1.119   4.617  20.810  0.00  0.00    +0.000 A 
ATOM     18  C   UNL     1       1.841   5.749  20.462  0.00  0.00    +0.000 A 
ATOM     19  C   UNL     1       2.899   5.625  19.562  0.00  0.00    +0.000 A 
ATOM     20  C   UNL     1       3.173   4.350  19.028  0.00  0.00    +0.000 A 
ATOM     21  H   UNL     1       2.351   1.259  19.019  0.00  0.00    +0.000 HD
ENDBRANCH   6  12
BRANCH   1  22
ATOM     22  C   UNL     1       6.677   3.299  11.859  0.00  0.00    +0.000 C 
BRANCH  22  24
ATOM     23  C   UNL     1       6.607   0.890  11.079  0.00  0.00    +0.000 C 
ATOM     24  C   UNL     1       5.827   2.189  11.248  0.00  0.00    +0.000 C 
ENDBRANCH  22  24
ENDBRANCH   1  22
TORSDOF 3
ENDMDL
MODEL 6
REMARK VINA RESULT:      -8.4      2.640      4.895
REMARK  Name = 
REMARK  4 active torsions:
REMARK  status: ('A' for Active; 'I' for Inactive)
REMARK    1  A    between atoms: C_1  and  C_2
REMARK    2  A    between atoms: C_2  and  C_3
REMARK    3  A    between atoms: C_3  and  C_4
REMARK    4  A    between atoms: C_9  and  C_10
REMARK                            x       y       z     vdW  Elec       q    Type
REMARK                         _______ _______ _______ _____ _____    ______ ____
ROOT
ATOM      1  C   UNL     1       6.081   4.090  13.677  0.00  0.00    +0.000 C 
ATOM      2  O   UNL     1       4.902   4.450  13.642  0.00  0.00    +0.000 OA
ATOM      3  N   UNL     1       6.958   4.351  14.706  0.00  0.00    +0.000 N 
ATOM      4  C   UNL     1       6.567   5.071  15.832  0.00  0.00    +0.000 A 
ATOM      5  C   UNL     1       5.402   4.763  16.519  0.00  0.00    +0.000 A 
ATOM      6  C   UNL     1       5.006   5.562  17.592  0.00  0.00    +0.000 A 
ATOM      7  C   UNL     1       5.805   6.657  17.916  0.00  0.00    +0.000 A 
ATOM      8  C   UNL     1       6.974   6.848  17.195  0.00  0.00    +0.000 A 
ATOM      9 CL   UNL     1       7.988   8.194  17.516  0.00  0.00    +0.000 Cl
ATOM     10  N   UNL     1       7.401   6.062  16.191  0.00  0.00    +0.000 NA
ATOM     11  H   UNL     1       7.929   4.484  14.452  0.00  0.00    +0.000 HD
ENDROOT
BRANCH   6  12
ATOM     12  C   UNL     1       3.787   5.257  18.341  0.00  0.00    +0.000 A 
ATOM     13  C   UNL     1       3.207   6.147  19.234  0.00  0.00    +0.000 A 
ATOM     14  N   UNL     1       2.097   5.553  19.778  0.00  0.00    +0.000 N 
ATOM     15  C   UNL     1       1.946   4.295  19.269  0.00  0.00    +0.000 A 
ATOM     16  N   UNL     1       0.951   3.457  19.615  0.00  0.00    +0.000 NA
ATOM     17  C   UNL     1       1.018   2.269  18.976  0.00  0.00    +0.000 A 
ATOM     18  C   UNL     1       1.987   1.899  18.054  0.00  0.00    +0.000 A 
ATOM     19  C   UNL     1       2.988   2.813  17.725  0.00  0.00    +0.000 A 
ATOM     20  C   UNL     1       2.981   4.068  18.366  0.00  0.00    +0.000 A 
ATOM     21  H   UNL     1       1.465   5.959  20.452  0.00  0.00    +0.000 HD
ENDBRANCH   6  12
BRANCH   1  22
ATOM     22  C   UNL     1       6.683   3.277  12.554  0.00  0.00    +0.000 C 
BRANCH  22  24
ATOM     23  C   UNL     1       6.121   1.243  11.154  0.00  0.00    +0.000 C 
ATOM     24  C   UNL     1       5.602   2.536  11.774  0.00  0.00    +0.000 C 
ENDBRANCH  22  24
ENDBRANCH   1  22
TORSDOF 3
ENDMDL
MODEL 7
REMARK VINA RESULT:      -8.3      3.107      6.426
REMARK  Name = 
REMARK  4 active torsions:
REMARK  status: ('A' for Active; 'I' for Inactive)
REMARK    1  A    between atoms: C_1  and  C_2
REMARK    2  A    between atoms: C_2  and  C_3
REMARK    3  A    between atoms: C_3  and  C_4
REMARK    4  A    between atoms: C_9  and  C_10
REMARK                            x       y       z     vdW  Elec       q    Type
REMARK                         _______ _______ _______ _____ _____    ______ ____
ROOT
ATOM      1  C   UNL     1       1.690   7.819  20.354  0.00  0.00    +0.000 C 
ATOM      2  O   UNL     1       1.925   8.321  19.253  0.00  0.00    +0.000 OA
ATOM      3  N   UNL     1       1.947   6.510  20.699  0.00  0.00    +0.000 N 
ATOM      4  C   UNL     1       2.513   5.616  19.795  0.00  0.00    +0.000 A 
ATOM      5  C   UNL     1       3.644   5.947  19.063  0.00  0.00    +0.000 A 
ATOM      6  C   UNL     1       4.131   5.054  18.109  0.00  0.00    +0.000 A 
ATOM      7  C   UNL     1       3.436   3.859  17.924  0.00  0.00    +0.000 A 
ATOM      8  C   UNL     1       2.344   3.606  18.740  0.00  0.00    +0.000 A 
ATOM      9 CL   UNL     1       1.421   2.173  18.544  0.00  0.00    +0.000 Cl
ATOM     10  N   UNL     1       1.889   4.430  19.701  0.00  0.00    +0.000 NA
ATOM     11  H   UNL     1       1.305   6.079  21.353  0.00  0.00    +0.000 HD
ENDROOT
BRANCH   6  12
ATOM     12  C   UNL     1       5.326   5.371  17.327  0.00  0.00    +0.000 A 
ATOM     13  C   UNL     1       6.319   6.227  17.780  0.00  0.00    +0.000 A 
ATOM     14  N   UNL     1       7.283   6.325  16.809  0.00  0.00    +0.000 N 
ATOM     15  C   UNL     1       6.937   5.561  15.732  0.00  0.00    +0.000 A 
ATOM     16  N   UNL     1       7.679   5.456  14.614  0.00  0.00    +0.000 NA
ATOM     17  C   UNL     1       7.124   4.642  13.689  0.00  0.00    +0.000 A 
ATOM     18  C   UNL     1       5.922   3.964  13.825  0.00  0.00    +0.000 A 
ATOM     19  C   UNL     1       5.200   4.102  15.011  0.00  0.00    +0.000 A 
ATOM     20  C   UNL     1       5.720   4.946  16.012  0.00  0.00    +0.000 A 
ATOM     21  H   UNL     1       8.133   6.868  16.855  0.00  0.00    +0.000 HD
ENDBRANCH   6  12
BRANCH   1  22
ATOM     22  C   UNL     1       1.094   8.639  21.475  0.00  0.00    +0.000 C 
BRANCH  22  24
ATOM     23  C   UNL     1      -0.523  10.520  20.965  0.00  0.00    +0.000 C 
ATOM     24  C   UNL     1       0.939  10.099  21.063  0.00  0.00    +0.000 C 
ENDBRANCH  22  24
ENDBRANCH   1  22
TORSDOF 3
ENDMDL
MODEL 8
REMARK VINA RESULT:      -8.2      3.815      6.531
REMARK  Name = 
REMARK  4 active torsions:
REMARK  status: ('A' for Active; 'I' for Inactive)
REMARK    1  A    between atoms: C_1  and  C_2
REMARK    2  A    between atoms: C_2  and  C_3
REMARK    3  A    between atoms: C_3  and  C_4
REMARK    4  A    between atoms: C_9  and  C_10
REMARK                            x       y       z     vdW  Elec       q    Type
REMARK                         _______ _______ _______ _____ _____    ______ ____
ROOT
ATOM      1  C   UNL     1       1.477   8.842  18.911  0.00  0.00    +0.000 C 
ATOM      2  O   UNL     1       1.855   8.530  17.780  0.00  0.00    +0.000 OA
ATOM      3  N   UNL     1       1.635   8.068  20.040  0.00  0.00    +0.000 N 
ATOM      4  C   UNL     1       2.255   6.823  19.990  0.00  0.00    +0.000 A 
ATOM      5  C   UNL     1       3.473   6.648  19.350  0.00  0.00    +0.000 A 
ATOM      6  C   UNL     1       4.020   5.368  19.252  0.00  0.00    +0.000 A 
ATOM      7  C   UNL     1       3.295   4.309  19.797  0.00  0.00    +0.000 A 
ATOM      8  C   UNL     1       2.111   4.600  20.456  0.00  0.00    +0.000 A 
ATOM      9 CL   UNL     1       1.150   3.343  21.119  0.00  0.00    +0.000 Cl
ATOM     10  N   UNL     1       1.591   5.831  20.606  0.00  0.00    +0.000 NA
ATOM     11  H   UNL     1       0.906   8.134  20.740  0.00  0.00    +0.000 HD
ENDROOT
BRANCH   6  12
ATOM     12  C   UNL     1       5.307   5.153  18.591  0.00  0.00    +0.000 A 
ATOM     13  C   UNL     1       6.518   5.182  19.267  0.00  0.00    +0.000 A 
ATOM     14  N   UNL     1       7.525   4.964  18.362  0.00  0.00    +0.000 N 
ATOM     15  C   UNL     1       7.000   4.804  17.112  0.00  0.00    +0.000 A 
ATOM     16  N   UNL     1       7.738   4.582  16.008  0.00  0.00    +0.000 NA
ATOM     17  C   UNL     1       6.989   4.460  14.890  0.00  0.00    +0.000 A 
ATOM     18  C   UNL     1       5.606   4.547  14.830  0.00  0.00    +0.000 A 
ATOM     19  C   UNL     1       4.892   4.767  16.008  0.00  0.00    +0.000 A 
ATOM     20  C   UNL     1       5.616   4.914  17.208  0.00  0.00    +0.000 A 
ATOM     21  H   UNL     1       8.514   4.919  18.559  0.00  0.00    +0.000 HD
ENDBRANCH   6  12
BRANCH   1  22
ATOM     22  C   UNL     1       0.801  10.168  19.171  0.00  0.00    +0.000 C 
BRANCH  22  24
ATOM     23  C   UNL     1      -1.456  10.770  18.192  0.00  0.00    +0.000 C 
ATOM     24  C   UNL     1      -0.711  10.000  19.277  0.00  0.00    +0.000 C 
ENDBRANCH  22  24
ENDBRANCH   1  22
TORSDOF 3
ENDMDL
MODEL 9
REMARK VINA RESULT:      -8.1      2.940      4.605
REMARK  Name = 
REMARK  4 active torsions:
REMARK  status: ('A' for Active; 'I' for Inactive)
REMARK    1  A    between atoms: C_1  and  C_2
REMARK    2  A    between atoms: C_2  and  C_3
REMARK    3  A    between atoms: C_3  and  C_4
REMARK    4  A    between atoms: C_9  and  C_10
REMARK                            x       y       z     vdW  Elec       q    Type
REMARK                         _______ _______ _______ _____ _____    ______ ____
ROOT
ATOM      1  C   UNL     1       6.116   4.208  13.730  0.00  0.00    +0.000 C 
ATOM      2  O   UNL     1       5.080   4.876  13.781  0.00  0.00    +0.000 OA
ATOM      3  N   UNL     1       6.834   3.776  14.823  0.00  0.00    +0.000 N 
ATOM      4  C   UNL     1       6.433   4.073  16.122  0.00  0.00    +0.000 A 
ATOM      5  C   UNL     1       5.126   3.869  16.540  0.00  0.00    +0.000 A 
ATOM      6  C   UNL     1       4.747   4.257  17.825  0.00  0.00    +0.000 A 
ATOM      7  C   UNL     1       5.712   4.854  18.634  0.00  0.00    +0.000 A 
ATOM      8  C   UNL     1       7.001   4.969  18.136  0.00  0.00    +0.000 A 
ATOM      9 CL   UNL     1       8.231   5.725  19.063  0.00  0.00    +0.000 Cl
ATOM     10  N   UNL     1       7.401   4.556  16.920  0.00  0.00    +0.000 NA
ATOM     11  H   UNL     1       7.838   3.713  14.710  0.00  0.00    +0.000 HD
ENDROOT
BRANCH   6  12
ATOM     12  C   UNL     1       3.378   4.048  18.297  0.00  0.00    +0.000 A 
ATOM     13  C   UNL     1       2.261   4.411  17.559  0.00  0.00    +0.000 A 
ATOM     14  N   UNL     1       1.141   4.098  18.286  0.00  0.00    +0.000 N 
ATOM     15  C   UNL     1       1.502   3.550  19.483  0.00  0.00    +0.000 A 
ATOM     16  N   UNL     1       0.625   3.146  20.422  0.00  0.00    +0.000 NA
ATOM     17  C   UNL     1       1.226   2.639  21.520  0.00  0.00    +0.000 A 
ATOM     18  C   UNL     1       2.595   2.526  21.712  0.00  0.00    +0.000 A 
ATOM     19  C   UNL     1       3.457   2.950  20.701  0.00  0.00    +0.000 A 
ATOM     20  C   UNL     1       2.892   3.499  19.533  0.00  0.00    +0.000 A 
ATOM     21  H   UNL     1       0.181   4.237  18.005  0.00  0.00    +0.000 HD
ENDBRANCH   6  12
BRANCH   1  22
ATOM     22  C   UNL     1       6.697   3.768  12.406  0.00  0.00    +0.000 C 
BRANCH  22  24
ATOM     23  C   UNL     1       4.520   3.007  11.358  0.00  0.00    +0.000 C 
ATOM     24  C   UNL     1       5.912   2.596  11.826  0.00  0.00    +0.000 C 
ENDBRANCH  22  24
ENDBRANCH   1  22
TORSDOF 3
ENDMDL
