MODEL 1
REMARK VINA RESULT:      -8.4      0.000      0.000
REMARK  Name = 
REMARK  6 active torsions:
REMARK  status: ('A' for Active; 'I' for Inactive)
REMARK    1  A    between atoms: C_1  and  O_2
REMARK    2  A    between atoms: O_2  and  C_3
REMARK    3  A    between atoms: C_6  and  C_7
REMARK    4  A    between atoms: N_9  and  C_10
REMARK    5  A    between atoms: C_15  and  C_16
REMARK    6  A    between atoms: C_16  and  C_17
REMARK                            x       y       z     vdW  Elec       q    Type
REMARK                         _______ _______ _______ _____ _____    ______ ____
ROOT
ATOM      1  C   UNL     1       0.825   9.669  19.509  0.00  0.00    +0.000 A 
ATOM      2  C   UNL     1       1.347  10.206  18.336  0.00  0.00    +0.000 A 
ATOM      3  C   UNL     1       2.330   9.518  17.619  0.00  0.00    +0.000 A 
ATOM      4  C   UNL     1       2.745   8.253  18.026  0.00  0.00    +0.000 A 
ATOM      5  F   UNL     1       3.649   7.619  17.268  0.00  0.00    +0.000 F 
ATOM      6  C   UNL     1       2.215   7.653  19.169  0.00  0.00    +0.000 A 
ATOM      7  C   UNL     1       1.328   8.443  19.959  0.00  0.00    +0.000 A 
ENDROOT
BRANCH   6   8
ATOM      8  C   UNL     1       2.414   6.152  19.519  0.00  0.00    +0.000 C 
ATOM      9  C   UNL     1       1.626   5.893  20.819  0.00  0.00    +0.000 C 
ATOM     10  C   UNL     1       3.867   5.690  19.650  0.00  0.00    +0.000 C 
ATOM     11  S   UNL     1       4.060   3.920  19.646  0.00  0.00    +0.000 S 
ATOM     12  O   UNL     1       3.376   3.373  20.805  0.00  0.00    +0.000 OA
ATOM     13  O   UNL     1       5.495   3.696  19.538  0.00  0.00    +0.000 OA
ATOM     14  C   UNL     1       3.209   3.402  18.148  0.00  0.00    +0.000 C 
ATOM     15  C   UNL     1       3.187   1.863  17.954  0.00  0.00    +0.000 C 
ATOM     16  N   UNL     1       4.402   1.964  17.133  0.00  0.00    +0.000 NA
ATOM     17  C   UNL     1       4.124   3.392  16.896  0.00  0.00    +0.000 C 
ATOM     18  C   UNL     1       1.879   4.171  18.001  0.00  0.00    +0.000 C 
ATOM     19  N   UNL     1       0.804   3.742  17.423  0.00  0.00    +0.000 NA
ATOM     20  N   UNL     1       1.813   5.463  18.385  0.00  0.00    +0.000 N 
ATOM     21  H   UNL     1       4.443   1.370  16.307  0.00  0.00    +0.000 HD
ATOM     22  H   UNL     1       0.892   2.780  17.079  0.00  0.00    +0.000 HD
ATOM     23  H   UNL     1       0.924   5.842  18.066  0.00  0.00    +0.000 HD
ENDBRANCH   6   8
BRANCH   1  26
ATOM     24  C   UNL     1      -0.109  11.268  21.180  0.00  0.00    +0.000 C 
ATOM     25  O   UNL     1       0.938  11.784  21.557  0.00  0.00    +0.000 OA
ATOM     26  N   UNL     1      -0.235  10.259  20.235  0.00  0.00    +0.000 N 
ATOM     27  H   UNL     1      -1.191  10.066  19.954  0.00  0.00    +0.000 HD
BRANCH  24  31
ATOM     28  C   UNL     1      -3.812  12.698  22.714  0.00  0.00    +0.000 A 
ATOM     29  C   UNL     1      -2.910  12.091  23.580  0.00  0.00    +0.000 A 
ATOM     30  C   UNL     1      -1.691  11.626  23.080  0.00  0.00    +0.000 A 
ATOM     31  C   UNL     1      -1.411  11.784  21.725  0.00  0.00    +0.000 A 
ATOM     32  N   UNL     1      -2.255  12.388  20.849  0.00  0.00    +0.000 NA
ATOM     33  C   UNL     1      -3.435  12.821  21.374  0.00  0.00    +0.000 A 
BRANCH  28  35
ATOM     34  C   UNL     1      -6.097  12.960  22.117  0.00  0.00    +0.000 C 
ATOM     35  O   UNL     1      -5.040  13.193  23.043  0.00  0.00    +0.000 OA
ENDBRANCH  28  35
ENDBRANCH  24  31
ENDBRANCH   1  26
TORSDOF 4
ENDMDL
MODEL 2
REMARK VINA RESULT:      -8.2      1.075      1.208
REMARK  Name = 
REMARK  6 active torsions:
REMARK  status: ('A' for Active; 'I' for Inactive)
REMARK    1  A    between atoms: C_1  and  O_2
REMARK    2  A    between atoms: O_2  and  C_3
REMARK    3  A    between atoms: C_6  and  C_7
REMARK    4  A    between atoms: N_9  and  C_10
REMARK    5  A    between atoms: C_15  and  C_16
REMARK    6  A    between atoms: C_16  and  C_17
REMARK                            x       y       z     vdW  Elec       q    Type
REMARK                         _______ _______ _______ _____ _____    ______ ____
ROOT
ATOM      1  C   UNL     1       1.114   9.789  19.701  0.00  0.00    +0.000 A 
ATOM      2  C   UNL     1       1.437  10.253  18.429  0.00  0.00    +0.000 A 
ATOM      3  C   UNL     1       2.207   9.471  17.564  0.00  0.00    +0.000 A 
ATOM      4  C   UNL     1       2.598   8.187  17.933  0.00  0.00    +0.000 A 
ATOM      5  F   UNL     1       3.287   7.464  17.041  0.00  0.00    +0.000 F 
ATOM      6  C   UNL     1       2.257   7.659  19.179  0.00  0.00    +0.000 A 
ATOM      7  C   UNL     1       1.602   8.537  20.093  0.00  0.00    +0.000 A 
ENDROOT
BRANCH   6   8
ATOM      8  C   UNL     1       2.408   6.155  19.543  0.00  0.00    +0.000 C 
ATOM      9  C   UNL     1       1.592   5.929  20.832  0.00  0.00    +0.000 C 
ATOM     10  C   UNL     1       3.845   5.654  19.701  0.00  0.00    +0.000 C 
ATOM     11  S   UNL     1       3.988   3.879  19.713  0.00  0.00    +0.000 S 
ATOM     12  O   UNL     1       3.270   3.360  20.865  0.00  0.00    +0.000 OA
ATOM     13  O   UNL     1       5.417   3.614  19.630  0.00  0.00    +0.000 OA
ATOM     14  C   UNL     1       3.147   3.374  18.204  0.00  0.00    +0.000 C 
ATOM     15  C   UNL     1       3.084   1.835  18.022  0.00  0.00    +0.000 C 
ATOM     16  N   UNL     1       4.315   1.896  17.220  0.00  0.00    +0.000 NA
ATOM     17  C   UNL     1       4.081   3.328  16.968  0.00  0.00    +0.000 C 
ATOM     18  C   UNL     1       1.842   4.179  18.030  0.00  0.00    +0.000 C 
ATOM     19  N   UNL     1       0.765   3.777  17.438  0.00  0.00    +0.000 NA
ATOM     20  N   UNL     1       1.806   5.476  18.404  0.00  0.00    +0.000 N 
ATOM     21  H   UNL     1       4.353   1.294  16.399  0.00  0.00    +0.000 HD
ATOM     22  H   UNL     1       0.831   2.809  17.102  0.00  0.00    +0.000 HD
ATOM     23  H   UNL     1       0.934   5.876  18.068  0.00  0.00    +0.000 HD
ENDBRANCH   6   8
BRANCH   1  26
ATOM     24  C   UNL     1       0.570  11.657  21.261  0.00  0.00    +0.000 C 
ATOM     25  O   UNL     1       1.634  12.265  21.208  0.00  0.00    +0.000 OA
ATOM     26  N   UNL     1       0.263  10.479  20.593  0.00  0.00    +0.000 N 
ATOM     27  H   UNL     1      -0.714  10.209  20.650  0.00  0.00    +0.000 HD
BRANCH  24  31
ATOM     28  C   UNL     1      -2.643  13.293  23.521  0.00  0.00    +0.000 A 
ATOM     29  C   UNL     1      -2.542  11.913  23.389  0.00  0.00    +0.000 A 
ATOM     30  C   UNL     1      -1.485  11.373  22.652  0.00  0.00    +0.000 A 
ATOM     31  C   UNL     1      -0.558  12.233  22.069  0.00  0.00    +0.000 A 
ATOM     32  N   UNL     1      -0.608  13.585  22.189  0.00  0.00    +0.000 NA
ATOM     33  C   UNL     1      -1.657  14.073  22.909  0.00  0.00    +0.000 A 
BRANCH  28  35
ATOM     34  C   UNL     1      -3.204  14.732  25.328  0.00  0.00    +0.000 C 
ATOM     35  O   UNL     1      -3.616  13.972  24.195  0.00  0.00    +0.000 OA
ENDBRANCH  28  35
ENDBRANCH  24  31
ENDBRANCH   1  26
TORSDOF 4
ENDMDL
MODEL 3
REMARK VINA RESULT:      -7.8      3.469      4.641
REMARK  Name = 
REMARK  6 active torsions:
REMARK  status: ('A' for Active; 'I' for Inactive)
REMARK    1  A    between atoms: C_1  and  O_2
REMARK    2  A    between atoms: O_2  and  C_3
REMARK    3  A    between atoms: C_6  and  C_7
REMARK    4  A    between atoms: N_9  and  C_10
REMARK    5  A    between atoms: C_15  and  C_16
REMARK    6  A    between atoms: C_16  and  C_17
REMARK                            x       y       z     vdW  Elec       q    Type
REMARK                         _______ _______ _______ _____ _____    ______ ____
ROOT
ATOM      1  C   UNL     1       1.494   9.159  19.872  0.00  0.00    +0.000 A 
ATOM      2  C   UNL     1       0.925   8.819  21.096  0.00  0.00    +0.000 A 
ATOM      3  C   UNL     1       0.792   7.479  21.468  0.00  0.00    +0.000 A 
ATOM      4  C   UNL     1       1.294   6.468  20.653  0.00  0.00    +0.000 A 
ATOM      5  F   UNL     1       1.187   5.206  21.087  0.00  0.00    +0.000 F 
ATOM      6  C   UNL     1       1.916   6.762  19.439  0.00  0.00    +0.000 A 
ATOM      7  C   UNL     1       1.901   8.126  19.020  0.00  0.00    +0.000 A 
ENDROOT
BRANCH   6   8
ATOM      8  C   UNL     1       2.743   5.726  18.627  0.00  0.00    +0.000 C 
ATOM      9  C   UNL     1       1.778   5.094  17.604  0.00  0.00    +0.000 C 
ATOM     10  C   UNL     1       3.455   4.653  19.454  0.00  0.00    +0.000 C 
ATOM     11  S   UNL     1       4.695   3.753  18.546  0.00  0.00    +0.000 S 
ATOM     12  O   UNL     1       4.050   3.036  17.459  0.00  0.00    +0.000 OA
ATOM     13  O   UNL     1       5.403   2.969  19.548  0.00  0.00    +0.000 OA
ATOM     14  C   UNL     1       5.750   5.045  17.870  0.00  0.00    +0.000 C 
ATOM     15  C   UNL     1       6.890   4.499  16.970  0.00  0.00    +0.000 C 
ATOM     16  N   UNL     1       7.784   4.490  18.137  0.00  0.00    +0.000 NA
ATOM     17  C   UNL     1       6.904   5.453  18.821  0.00  0.00    +0.000 C 
ATOM     18  C   UNL     1       4.887   6.203  17.325  0.00  0.00    +0.000 C 
ATOM     19  N   UNL     1       5.191   6.993  16.348  0.00  0.00    +0.000 NA
ATOM     20  N   UNL     1       3.752   6.547  17.972  0.00  0.00    +0.000 N 
ATOM     21  H   UNL     1       8.744   4.792  17.976  0.00  0.00    +0.000 HD
ATOM     22  H   UNL     1       6.088   6.758  15.909  0.00  0.00    +0.000 HD
ATOM     23  H   UNL     1       3.413   7.418  17.570  0.00  0.00    +0.000 HD
ENDBRANCH   6   8
BRANCH   1  26
ATOM     24  C   UNL     1       0.812  11.373  18.948  0.00  0.00    +0.000 C 
ATOM     25  O   UNL     1      -0.369  11.130  18.723  0.00  0.00    +0.000 OA
ATOM     26  N   UNL     1       1.747  10.490  19.470  0.00  0.00    +0.000 N 
ATOM     27  H   UNL     1       2.634  10.918  19.717  0.00  0.00    +0.000 HD
BRANCH  24  31
ATOM     28  C   UNL     1       2.285  15.310  18.283  0.00  0.00    +0.000 A 
ATOM     29  C   UNL     1       3.104  14.223  17.997  0.00  0.00    +0.000 A 
ATOM     30  C   UNL     1       2.621  12.929  18.209  0.00  0.00    +0.000 A 
ATOM     31  C   UNL     1       1.329  12.762  18.701  0.00  0.00    +0.000 A 
ATOM     32  N   UNL     1       0.490  13.795  18.975  0.00  0.00    +0.000 NA
ATOM     33  C   UNL     1       1.000  15.040  18.762  0.00  0.00    +0.000 A 
BRANCH  28  35
ATOM     34  C   UNL     1       1.532  17.550  18.035  0.00  0.00    +0.000 C 
ATOM     35  O   UNL     1       2.612  16.627  18.141  0.00  0.00    +0.000 OA
ENDBRANCH  28  35
ENDBRANCH  24  31
ENDBRANCH   1  26
TORSDOF 4
ENDMDL
MODEL 4
REMARK VINA RESULT:      -7.8      0.808      1.083
REMARK  Name = 
REMARK  6 active torsions:
REMARK  status: ('A' for Active; 'I' for Inactive)
REMARK    1  A    between atoms: C_1  and  O_2
REMARK    2  A    between atoms: O_2  and  C_3
REMARK    3  A    between atoms: C_6  and  C_7
REMARK    4  A    between atoms: N_9  and  C_10
REMARK    5  A    between atoms: C_15  and  C_16
REMARK    6  A    between atoms: C_16  and  C_17
REMARK                            x       y       z     vdW  Elec       q    Type
REMARK                         _______ _______ _______ _____ _____    ______ ____
ROOT
ATOM      1  C   UNL     1       1.073   9.542  19.283  0.00  0.00    +0.000 A 
ATOM      2  C   UNL     1       1.666   9.962  18.096  0.00  0.00    +0.000 A 
ATOM      3  C   UNL     1       2.638   9.175  17.473  0.00  0.00    +0.000 A 
ATOM      4  C   UNL     1       2.972   7.926  17.990  0.00  0.00    +0.000 A 
ATOM      5  F   UNL     1       3.870   7.193  17.320  0.00  0.00    +0.000 F 
ATOM      6  C   UNL     1       2.369   7.441  19.151  0.00  0.00    +0.000 A 
ATOM      7  C   UNL     1       1.494   8.331  19.843  0.00  0.00    +0.000 A 
ENDROOT
BRANCH   6   8
ATOM      8  C   UNL     1       2.477   5.963  19.620  0.00  0.00    +0.000 C 
ATOM      9  C   UNL     1       1.698   5.862  20.947  0.00  0.00    +0.000 C 
ATOM     10  C   UNL     1       3.900   5.418  19.769  0.00  0.00    +0.000 C 
ATOM     11  S   UNL     1       3.977   3.644  19.907  0.00  0.00    +0.000 S 
ATOM     12  O   UNL     1       3.281   3.239  21.116  0.00  0.00    +0.000 OA
ATOM     13  O   UNL     1       5.392   3.318  19.799  0.00  0.00    +0.000 OA
ATOM     14  C   UNL     1       3.067   3.065  18.467  0.00  0.00    +0.000 C 
ATOM     15  C   UNL     1       2.941   1.520  18.400  0.00  0.00    +0.000 C 
ATOM     16  N   UNL     1       4.145   1.475  17.557  0.00  0.00    +0.000 NA
ATOM     17  C   UNL     1       3.956   2.894  17.208  0.00  0.00    +0.000 C 
ATOM     18  C   UNL     1       1.787   3.906  18.275  0.00  0.00    +0.000 C 
ATOM     19  N   UNL     1       0.676   3.504  17.749  0.00  0.00    +0.000 NA
ATOM     20  N   UNL     1       1.812   5.227  18.554  0.00  0.00    +0.000 N 
ATOM     21  H   UNL     1       4.133   0.815  16.782  0.00  0.00    +0.000 HD
ATOM     22  H   UNL     1       0.695   2.513  17.483  0.00  0.00    +0.000 HD
ATOM     23  H   UNL     1       0.944   5.636  18.217  0.00  0.00    +0.000 HD
ENDBRANCH   6   8
BRANCH   1  26
ATOM     24  C   UNL     1       0.054  10.771  21.200  0.00  0.00    +0.000 C 
ATOM     25  O   UNL     1       0.988  10.698  21.991  0.00  0.00    +0.000 OA
ATOM     26  N   UNL     1       0.019  10.236  19.919  0.00  0.00    +0.000 N 
ATOM     27  H   UNL     1      -0.784  10.525  19.368  0.00  0.00    +0.000 HD
BRANCH  24  31
ATOM     28  C   UNL     1      -3.392  13.003  22.318  0.00  0.00    +0.000 A 
ATOM     29  C   UNL     1      -2.868  13.162  21.041  0.00  0.00    +0.000 A 
ATOM     30  C   UNL     1      -1.740  12.426  20.669  0.00  0.00    +0.000 A 
ATOM     31  C   UNL     1      -1.170  11.550  21.589  0.00  0.00    +0.000 A 
ATOM     32  N   UNL     1      -1.662  11.350  22.840  0.00  0.00    +0.000 NA
ATOM     33  C   UNL     1      -2.757  12.091  23.166  0.00  0.00    +0.000 A 
BRANCH  28  35
ATOM     34  C   UNL     1      -4.805  13.377  24.192  0.00  0.00    +0.000 C 
ATOM     35  O   UNL     1      -4.476  13.652  22.834  0.00  0.00    +0.000 OA
ENDBRANCH  28  35
ENDBRANCH  24  31
ENDBRANCH   1  26
TORSDOF 4
ENDMDL
MODEL 5
REMARK VINA RESULT:      -7.7      3.515     10.091
REMARK  Name = 
REMARK  6 active torsions:
REMARK  status: ('A' for Active; 'I' for Inactive)
REMARK    1  A    between atoms: C_1  and  O_2
REMARK    2  A    between atoms: O_2  and  C_3
REMARK    3  A    between atoms: C_6  and  C_7
REMARK    4  A    between atoms: N_9  and  C_10
REMARK    5  A    between atoms: C_15  and  C_16
REMARK    6  A    between atoms: C_16  and  C_17
REMARK                            x       y       z     vdW  Elec       q    Type
REMARK                         _______ _______ _______ _____ _____    ______ ____
ROOT
ATOM      1  C   UNL     1       2.466   7.043  19.143  0.00  0.00    +0.000 A 
ATOM      2  C   UNL     1       1.948   6.269  20.178  0.00  0.00    +0.000 A 
ATOM      3  C   UNL     1       1.117   6.842  21.143  0.00  0.00    +0.000 A 
ATOM      4  C   UNL     1       0.733   8.177  21.041  0.00  0.00    +0.000 A 
ATOM      5  F   UNL     1      -0.110   8.656  21.965  0.00  0.00    +0.000 F 
ATOM      6  C   UNL     1       1.187   8.980  19.994  0.00  0.00    +0.000 A 
ATOM      7  C   UNL     1       2.152   8.406  19.114  0.00  0.00    +0.000 A 
ENDROOT
BRANCH   6   8
ATOM      8  C   UNL     1       0.585  10.373  19.659  0.00  0.00    +0.000 C 
ATOM      9  C   UNL     1      -0.815  10.117  19.064  0.00  0.00    +0.000 C 
ATOM     10  C   UNL     1       1.428  11.254  18.734  0.00  0.00    +0.000 C 
ATOM     11  S   UNL     1       0.915  12.959  18.703  0.00  0.00    +0.000 S 
ATOM     12  O   UNL     1      -0.438  13.030  18.176  0.00  0.00    +0.000 OA
ATOM     13  O   UNL     1       1.963  13.656  17.973  0.00  0.00    +0.000 OA
ATOM     14  C   UNL     1       0.908  13.433  20.439  0.00  0.00    +0.000 C 
ATOM     15  C   UNL     1       0.424  14.887  20.677  0.00  0.00    +0.000 C 
ATOM     16  N   UNL     1       1.822  15.341  20.641  0.00  0.00    +0.000 NA
ATOM     17  C   UNL     1       2.276  13.971  20.932  0.00  0.00    +0.000 C 
ATOM     18  C   UNL     1       0.280  12.311  21.293  0.00  0.00    +0.000 C 
ATOM     19  N   UNL     1      -0.367  12.461  22.402  0.00  0.00    +0.000 NA
ATOM     20  N   UNL     1       0.501  11.021  20.961  0.00  0.00    +0.000 N 
ATOM     21  H   UNL     1       2.084  16.057  21.317  0.00  0.00    +0.000 HD
ATOM     22  H   UNL     1      -0.470  13.445  22.674  0.00  0.00    +0.000 HD
ATOM     23  H   UNL     1       0.153  10.437  21.718  0.00  0.00    +0.000 HD
ENDBRANCH   6   8
BRANCH   1  26
ATOM     24  C   UNL     1       4.448   5.854  18.207  0.00  0.00    +0.000 C 
ATOM     25  O   UNL     1       5.060   5.651  19.250  0.00  0.00    +0.000 OA
ATOM     26  N   UNL     1       3.234   6.515  18.081  0.00  0.00    +0.000 N 
ATOM     27  H   UNL     1       2.820   6.456  17.155  0.00  0.00    +0.000 HD
BRANCH  24  31
ATOM     28  C   UNL     1       5.979   4.286  14.558  0.00  0.00    +0.000 A 
ATOM     29  C   UNL     1       5.672   5.639  14.637  0.00  0.00    +0.000 A 
ATOM     30  C   UNL     1       5.175   6.158  15.836  0.00  0.00    +0.000 A 
ATOM     31  C   UNL     1       5.000   5.304  16.922  0.00  0.00    +0.000 A 
ATOM     32  N   UNL     1       5.305   3.980  16.893  0.00  0.00    +0.000 NA
ATOM     33  C   UNL     1       5.780   3.512  15.705  0.00  0.00    +0.000 A 
BRANCH  28  35
ATOM     34  C   UNL     1       5.551   3.423  12.385  0.00  0.00    +0.000 C 
ATOM     35  O   UNL     1       6.460   3.629  13.463  0.00  0.00    +0.000 OA
ENDBRANCH  28  35
ENDBRANCH  24  31
ENDBRANCH   1  26
TORSDOF 4
ENDMDL
MODEL 6
REMARK VINA RESULT:      -7.6      3.526     10.307
REMARK  Name = 
REMARK  6 active torsions:
REMARK  status: ('A' for Active; 'I' for Inactive)
REMARK    1  A    between atoms: C_1  and  O_2
REMARK    2  A    between atoms: O_2  and  C_3
REMARK    3  A    between atoms: C_6  and  C_7
REMARK    4  A    between atoms: N_9  and  C_10
REMARK    5  A    between atoms: C_15  and  C_16
REMARK    6  A    between atoms: C_16  and  C_17
REMARK                            x       y       z     vdW  Elec       q    Type
REMARK                         _______ _______ _______ _____ _____    ______ ____
ROOT
ATOM      1  C   UNL     1       0.881  10.449  19.546  0.00  0.00    +0.000 A 
ATOM      2  C   UNL     1       1.332  11.531  18.795  0.00  0.00    +0.000 A 
ATOM      3  C   UNL     1       0.753  12.793  18.953  0.00  0.00    +0.000 A 
ATOM      4  C   UNL     1      -0.230  13.002  19.916  0.00  0.00    +0.000 A 
ATOM      5  F   UNL     1      -0.708  14.245  20.059  0.00  0.00    +0.000 F 
ATOM      6  C   UNL     1      -0.680  11.959  20.727  0.00  0.00    +0.000 A 
ATOM      7  C   UNL     1      -0.178  10.656  20.438  0.00  0.00    +0.000 A 
ENDROOT
BRANCH   6   8
ATOM      8  C   UNL     1      -1.551  12.175  21.996  0.00  0.00    +0.000 C 
ATOM      9  C   UNL     1      -1.268  10.984  22.934  0.00  0.00    +0.000 C 
ATOM     10  C   UNL     1      -3.052  12.341  21.748  0.00  0.00    +0.000 C 
ATOM     11  S   UNL     1      -3.945  12.980  23.150  0.00  0.00    +0.000 S 
ATOM     12  O   UNL     1      -3.838  12.031  24.244  0.00  0.00    +0.000 OA
ATOM     13  O   UNL     1      -5.276  13.284  22.645  0.00  0.00    +0.000 OA
ATOM     14  C   UNL     1      -3.053  14.485  23.572  0.00  0.00    +0.000 C 
ATOM     15  C   UNL     1      -3.617  15.202  24.827  0.00  0.00    +0.000 C 
ATOM     16  N   UNL     1      -4.454  16.038  23.954  0.00  0.00    +0.000 NA
ATOM     17  C   UNL     1      -3.570  15.736  22.815  0.00  0.00    +0.000 C 
ATOM     18  C   UNL     1      -1.531  14.237  23.500  0.00  0.00    +0.000 C 
ATOM     19  N   UNL     1      -0.623  14.833  24.201  0.00  0.00    +0.000 NA
ATOM     20  N   UNL     1      -1.036  13.421  22.545  0.00  0.00    +0.000 N 
ATOM     21  H   UNL     1      -4.539  17.020  24.211  0.00  0.00    +0.000 HD
ATOM     22  H   UNL     1      -1.013  15.498  24.878  0.00  0.00    +0.000 HD
ATOM     23  H   UNL     1      -0.022  13.510  22.551  0.00  0.00    +0.000 HD
ENDBRANCH   6   8
BRANCH   1  26
ATOM     24  C   UNL     1       2.032   8.561  18.391  0.00  0.00    +0.000 C 
ATOM     25  O   UNL     1       2.061   9.022  17.255  0.00  0.00    +0.000 OA
ATOM     26  N   UNL     1       1.479   9.169  19.511  0.00  0.00    +0.000 N 
ATOM     27  H   UNL     1       1.681   8.695  20.386  0.00  0.00    +0.000 HD
BRANCH  24  31
ATOM     28  C   UNL     1       3.935   4.834  19.162  0.00  0.00    +0.000 A 
ATOM     29  C   UNL     1       2.910   5.256  20.000  0.00  0.00    +0.000 A 
ATOM     30  C   UNL     1       2.279   6.477  19.746  0.00  0.00    +0.000 A 
ATOM     31  C   UNL     1       2.694   7.239  18.657  0.00  0.00    +0.000 A 
ATOM     32  N   UNL     1       3.678   6.855  17.802  0.00  0.00    +0.000 NA
ATOM     33  C   UNL     1       4.272   5.663  18.088  0.00  0.00    +0.000 A 
BRANCH  28  35
ATOM     34  C   UNL     1       4.029   2.604  19.978  0.00  0.00    +0.000 C 
ATOM     35  O   UNL     1       4.651   3.679  19.281  0.00  0.00    +0.000 OA
ENDBRANCH  28  35
ENDBRANCH  24  31
ENDBRANCH   1  26
TORSDOF 4
ENDMDL
MODEL 7
REMARK VINA RESULT:      -7.4      2.940      4.471
REMARK  Name = 
REMARK  6 active torsions:
REMARK  status: ('A' for Active; 'I' for Inactive)
REMARK    1  A    between atoms: C_1  and  O_2
REMARK    2  A    between atoms: O_2  and  C_3
REMARK    3  A    between atoms: C_6  and  C_7
REMARK    4  A    between atoms: N_9  and  C_10
REMARK    5  A    between atoms: C_15  and  C_16
REMARK    6  A    between atoms: C_16  and  C_17
REMARK                            x       y       z     vdW  Elec       q    Type
REMARK                         _______ _______ _______ _____ _____    ______ ____
ROOT
ATOM      1  C   UNL     1       1.677   5.626  20.447  0.00  0.00    +0.000 A 
ATOM      2  C   UNL     1       1.115   4.395  20.772  0.00  0.00    +0.000 A 
ATOM      3  C   UNL     1       1.650   3.213  20.253  0.00  0.00    +0.000 A 
ATOM      4  C   UNL     1       2.798   3.244  19.465  0.00  0.00    +0.000 A 
ATOM      5  F   UNL     1       3.297   2.076  19.043  0.00  0.00    +0.000 F 
ATOM      6  C   UNL     1       3.425   4.451  19.153  0.00  0.00    +0.000 A 
ATOM      7  C   UNL     1       2.769   5.646  19.571  0.00  0.00    +0.000 A 
ENDROOT
BRANCH   6   8
ATOM      8  C   UNL     1       4.847   4.542  18.530  0.00  0.00    +0.000 C 
ATOM      9  C   UNL     1       5.818   3.922  19.555  0.00  0.00    +0.000 C 
ATOM     10  C   UNL     1       5.300   5.944  18.116  0.00  0.00    +0.000 C 
ATOM     11  S   UNL     1       6.731   5.951  17.057  0.00  0.00    +0.000 S 
ATOM     12  O   UNL     1       7.854   5.383  17.784  0.00  0.00    +0.000 OA
ATOM     13  O   UNL     1       6.852   7.325  16.592  0.00  0.00    +0.000 OA
ATOM     14  C   UNL     1       6.271   4.849  15.710  0.00  0.00    +0.000 C 
ATOM     15  C   UNL     1       7.404   4.641  14.671  0.00  0.00    +0.000 C 
ATOM     16  N   UNL     1       6.841   5.734  13.864  0.00  0.00    +0.000 NA
ATOM     17  C   UNL     1       5.546   5.574  14.547  0.00  0.00    +0.000 C 
ATOM     18  C   UNL     1       5.560   3.598  16.269  0.00  0.00    +0.000 C 
ATOM     19  N   UNL     1       5.567   2.415  15.747  0.00  0.00    +0.000 NA
ATOM     20  N   UNL     1       4.739   3.720  17.333  0.00  0.00    +0.000 N 
ATOM     21  H   UNL     1       6.838   5.597  12.854  0.00  0.00    +0.000 HD
ATOM     22  H   UNL     1       6.145   2.354  14.901  0.00  0.00    +0.000 HD
ATOM     23  H   UNL     1       4.244   2.839  17.451  0.00  0.00    +0.000 HD
ENDBRANCH   6   8
BRANCH   1  26
ATOM     24  C   UNL     1       1.345   8.098  20.399  0.00  0.00    +0.000 C 
ATOM     25  O   UNL     1       1.839   8.335  19.302  0.00  0.00    +0.000 OA
ATOM     26  N   UNL     1       1.252   6.852  21.006  0.00  0.00    +0.000 N 
ATOM     27  H   UNL     1       0.683   6.839  21.847  0.00  0.00    +0.000 HD
BRANCH  24  31
ATOM     28  C   UNL     1      -0.454  11.281  22.576  0.00  0.00    +0.000 A 
ATOM     29  C   UNL     1      -0.500   9.994  23.098  0.00  0.00    +0.000 A 
ATOM     30  C   UNL     1       0.095   8.947  22.388  0.00  0.00    +0.000 A 
ATOM     31  C   UNL     1       0.720   9.223  21.175  0.00  0.00    +0.000 A 
ATOM     32  N   UNL     1       0.804  10.468  20.639  0.00  0.00    +0.000 NA
ATOM     33  C   UNL     1       0.206  11.459  21.357  0.00  0.00    +0.000 A 
BRANCH  28  35
ATOM     34  C   UNL     1      -0.669  13.648  22.530  0.00  0.00    +0.000 C 
ATOM     35  O   UNL     1      -0.993  12.401  23.138  0.00  0.00    +0.000 OA
ENDBRANCH  28  35
ENDBRANCH  24  31
ENDBRANCH   1  26
TORSDOF 4
ENDMDL
MODEL 8
REMARK VINA RESULT:      -7.3      4.610      9.688
REMARK  Name = 
REMARK  6 active torsions:
REMARK  status: ('A' for Active; 'I' for Inactive)
REMARK    1  A    between atoms: C_1  and  O_2
REMARK    2  A    between atoms: O_2  and  C_3
REMARK    3  A    between atoms: C_6  and  C_7
REMARK    4  A    between atoms: N_9  and  C_10
REMARK    5  A    between atoms: C_15  and  C_16
REMARK    6  A    between atoms: C_16  and  C_17
REMARK                            x       y       z     vdW  Elec       q    Type
REMARK                         _______ _______ _______ _____ _____    ______ ____
ROOT
ATOM      1  C   UNL     1       0.156  10.308  19.595  0.00  0.00    +0.000 A 
ATOM      2  C   UNL     1      -1.175  10.352  19.193  0.00  0.00    +0.000 A 
ATOM      3  C   UNL     1      -1.902  11.543  19.277  0.00  0.00    +0.000 A 
ATOM      4  C   UNL     1      -1.282  12.719  19.693  0.00  0.00    +0.000 A 
ATOM      5  F   UNL     1      -2.014  13.841  19.700  0.00  0.00    +0.000 F 
ATOM      6  C   UNL     1       0.064  12.734  20.060  0.00  0.00    +0.000 A 
ATOM      7  C   UNL     1       0.734  11.476  20.107  0.00  0.00    +0.000 A 
ENDROOT
BRANCH   6   8
ATOM      8  C   UNL     1       0.884  14.041  20.254  0.00  0.00    +0.000 C 
ATOM      9  C   UNL     1       0.168  14.852  21.354  0.00  0.00    +0.000 C 
ATOM     10  C   UNL     1       1.096  14.883  18.994  0.00  0.00    +0.000 C 
ATOM     11  S   UNL     1       2.356  16.129  19.168  0.00  0.00    +0.000 S 
ATOM     12  O   UNL     1       1.943  17.070  20.196  0.00  0.00    +0.000 OA
ATOM     13  O   UNL     1       2.567  16.645  17.823  0.00  0.00    +0.000 OA
ATOM     14  C   UNL     1       3.791  15.207  19.741  0.00  0.00    +0.000 C 
ATOM     15  C   UNL     1       5.023  16.104  20.031  0.00  0.00    +0.000 C 
ATOM     16  N   UNL     1       5.506  15.853  18.665  0.00  0.00    +0.000 NA
ATOM     17  C   UNL     1       4.661  14.649  18.586  0.00  0.00    +0.000 C 
ATOM     18  C   UNL     1       3.369  14.185  20.819  0.00  0.00    +0.000 C 
ATOM     19  N   UNL     1       4.097  13.756  21.797  0.00  0.00    +0.000 NA
ATOM     20  N   UNL     1       2.180  13.555  20.707  0.00  0.00    +0.000 N 
ATOM     21  H   UNL     1       6.509  15.708  18.558  0.00  0.00    +0.000 HD
ATOM     22  H   UNL     1       5.023  14.197  21.829  0.00  0.00    +0.000 HD
ATOM     23  H   UNL     1       2.150  12.815  21.404  0.00  0.00    +0.000 HD
ENDBRANCH   6   8
BRANCH   1  26
ATOM     24  C   UNL     1       1.833   8.912  18.388  0.00  0.00    +0.000 C 
ATOM     25  O   UNL     1       1.985   9.613  17.393  0.00  0.00    +0.000 OA
ATOM     26  N   UNL     1       0.979   9.168  19.452  0.00  0.00    +0.000 N 
ATOM     27  H   UNL     1       1.101   8.546  20.245  0.00  0.00    +0.000 HD
BRANCH  24  31
ATOM     28  C   UNL     1       4.181   5.387  18.800  0.00  0.00    +0.000 A 
ATOM     29  C   UNL     1       4.426   6.242  17.732  0.00  0.00    +0.000 A 
ATOM     30  C   UNL     1       3.660   7.403  17.597  0.00  0.00    +0.000 A 
ATOM     31  C   UNL     1       2.671   7.674  18.539  0.00  0.00    +0.000 A 
ATOM     32  N   UNL     1       2.413   6.876  19.608  0.00  0.00    +0.000 NA
ATOM     33  C   UNL     1       3.175   5.751  19.700  0.00  0.00    +0.000 A 
BRANCH  28  35
ATOM     34  C   UNL     1       4.066   3.176  19.666  0.00  0.00    +0.000 C 
ATOM     35  O   UNL     1       4.831   4.216  19.064  0.00  0.00    +0.000 OA
ENDBRANCH  28  35
ENDBRANCH  24  31
ENDBRANCH   1  26
TORSDOF 4
ENDMDL
MODEL 9
REMARK VINA RESULT:      -7.3      4.115     10.378
REMARK  Name = 
REMARK  6 active torsions:
REMARK  status: ('A' for Active; 'I' for Inactive)
REMARK    1  A    between atoms: C_1  and  O_2
REMARK    2  A    between atoms: O_2  and  C_3
REMARK    3  A    between atoms: C_6  and  C_7
REMARK    4  A    between atoms: N_9  and  C_10
REMARK    5  A    between atoms: C_15  and  C_16
REMARK    6  A    between atoms: C_16  and  C_17
REMARK                            x       y       z     vdW  Elec       q    Type
REMARK                         _______ _______ _______ _____ _____    ______ ____
ROOT
ATOM      1  C   UNL     1       1.072   9.500  18.053  0.00  0.00    +0.000 A 
ATOM      2  C   UNL     1      -0.288   9.410  17.769  0.00  0.00    +0.000 A 
ATOM      3  C   UNL     1      -1.150  10.461  18.092  0.00  0.00    +0.000 A 
ATOM      4  C   UNL     1      -0.651  11.642  18.634  0.00  0.00    +0.000 A 
ATOM      5  F   UNL     1      -1.518  12.635  18.871  0.00  0.00    +0.000 F 
ATOM      6  C   UNL     1       0.711  11.798  18.892  0.00  0.00    +0.000 A 
ATOM      7  C   UNL     1       1.541  10.654  18.692  0.00  0.00    +0.000 A 
ENDROOT
BRANCH   6   8
ATOM      8  C   UNL     1       1.370  13.167  19.221  0.00  0.00    +0.000 C 
ATOM      9  C   UNL     1       2.520  13.359  18.210  0.00  0.00    +0.000 C 
ATOM     10  C   UNL     1       1.863  13.335  20.660  0.00  0.00    +0.000 C 
ATOM     11  S   UNL     1       2.230  15.021  21.100  0.00  0.00    +0.000 S 
ATOM     12  O   UNL     1       3.318  15.497  20.262  0.00  0.00    +0.000 OA
ATOM     13  O   UNL     1       2.445  14.999  22.539  0.00  0.00    +0.000 OA
ATOM     14  C   UNL     1       0.721  15.908  20.684  0.00  0.00    +0.000 C 
ATOM     15  C   UNL     1       0.821  17.438  20.924  0.00  0.00    +0.000 C 
ATOM     16  N   UNL     1       0.245  17.248  22.264  0.00  0.00    +0.000 NA
ATOM     17  C   UNL     1      -0.306  15.948  21.844  0.00  0.00    +0.000 C 
ATOM     18  C   UNL     1       0.179  15.422  19.323  0.00  0.00    +0.000 C 
ATOM     19  N   UNL     1      -0.504  16.120  18.475  0.00  0.00    +0.000 NA
ATOM     20  N   UNL     1       0.292  14.118  18.990  0.00  0.00    +0.000 N 
ATOM     21  H   UNL     1      -0.430  17.946  22.571  0.00  0.00    +0.000 HD
ATOM     22  H   UNL     1      -0.637  17.093  18.773  0.00  0.00    +0.000 HD
ATOM     23  H   UNL     1      -0.258  13.960  18.149  0.00  0.00    +0.000 HD
ENDBRANCH   6   8
BRANCH   1  26
ATOM     24  C   UNL     1       2.502   7.502  18.479  0.00  0.00    +0.000 C 
ATOM     25  O   UNL     1       2.212   7.307  19.655  0.00  0.00    +0.000 OA
ATOM     26  N   UNL     1       2.017   8.522  17.672  0.00  0.00    +0.000 N 
ATOM     27  H   UNL     1       2.263   8.431  16.690  0.00  0.00    +0.000 HD
BRANCH  24  31
ATOM     28  C   UNL     1       5.088   4.767  16.493  0.00  0.00    +0.000 A 
ATOM     29  C   UNL     1       5.325   6.132  16.374  0.00  0.00    +0.000 A 
ATOM     30  C   UNL     1       4.481   7.032  17.029  0.00  0.00    +0.000 A 
ATOM     31  C   UNL     1       3.423   6.537  17.787  0.00  0.00    +0.000 A 
ATOM     32  N   UNL     1       3.167   5.212  17.946  0.00  0.00    +0.000 NA
ATOM     33  C   UNL     1       4.008   4.368  17.286  0.00  0.00    +0.000 A 
BRANCH  28  35
ATOM     34  C   UNL     1       6.249   3.986  14.572  0.00  0.00    +0.000 C 
ATOM     35  O   UNL     1       5.810   3.767  15.910  0.00  0.00    +0.000 OA
ENDBRANCH  28  35
ENDBRANCH  24  31
ENDBRANCH   1  26
TORSDOF 4
ENDMDL
