MODEL 1
REMARK VINA RESULT:      -7.9      0.000      0.000
REMARK  Name = 
REMARK  7 active torsions:
REMARK  status: ('A' for Active; 'I' for Inactive)
REMARK    1  A    between atoms: C_1  and  C_2
REMARK    2  A    between atoms: C_2  and  O_3
REMARK    3  A    between atoms: O_3  and  C_4
REMARK    4  A    between atoms: C_4  and  C_6
REMARK    5  A    between atoms: C_6  and  C_7
REMARK    6  A    between atoms: C_9  and  O_10
REMARK    7  A    between atoms: C_14  and  C_15
REMARK                            x       y       z     vdW  Elec       q    Type
REMARK                         _______ _______ _______ _____ _____    ______ ____
ROOT
ATOM      1  C   UNL     1       4.626   4.954  17.079  0.00  0.00    +0.000 A 
ATOM      2  C   UNL     1       4.832   3.568  17.605  0.00  0.00    +0.000 A 
ATOM      3  C   UNL     1       4.198   3.269  18.750  0.00  0.00    +0.000 A 
ATOM      4  N   UNL     1       3.389   4.243  19.371  0.00  0.00    +0.000 N 
ATOM      5  N   UNL     1       2.678   4.135  20.524  0.00  0.00    +0.000 NA
ATOM      6  C   UNL     1       2.098   5.322  20.673  0.00  0.00    +0.000 A 
ATOM      7  C   UNL     1       2.409   6.231  19.642  0.00  0.00    +0.000 A 
ATOM      8  C   UNL     1       3.248   5.519  18.803  0.00  0.00    +0.000 A 
ATOM      9  N   UNL     1       3.881   5.860  17.637  0.00  0.00    +0.000 NA
ENDROOT
BRANCH   7  10
ATOM     10  C   UNL     1       1.965   7.607  19.442  0.00  0.00    +0.000 A 
ATOM     11  C   UNL     1       2.118   8.258  18.211  0.00  0.00    +0.000 A 
ATOM     12  C   UNL     1       1.675   9.572  18.032  0.00  0.00    +0.000 A 
ATOM     13  C   UNL     1       1.082  10.251  19.093  0.00  0.00    +0.000 A 
ATOM     14 CL   UNL     1       0.528  11.864  18.873  0.00  0.00    +0.000 Cl
ATOM     15  C   UNL     1       0.932   9.628  20.327  0.00  0.00    +0.000 A 
ATOM     16  C   UNL     1       1.373   8.311  20.502  0.00  0.00    +0.000 A 
ENDBRANCH   7  10
BRANCH   3  17
ATOM     17  O   UNL     1       4.323   2.022  19.346  0.00  0.00    +0.000 OA
ATOM     18  H   UNL     1       4.829   1.430  18.767  0.00  0.00    +0.000 HD
ENDBRANCH   3  17
BRANCH   1  19
ATOM     19  C   UNL     1       5.358   5.334  15.819  0.00  0.00    +0.000 C 
BRANCH  19  20
ATOM     20  C   UNL     1       6.810   5.618  16.047  0.00  0.00    +0.000 C 
ATOM     21  O   UNL     1       7.695   4.774  16.016  0.00  0.00    +0.000 OA
BRANCH  20  22
ATOM     22  O   UNL     1       6.958   6.907  16.464  0.00  0.00    +0.000 OA
BRANCH  22  24
ATOM     23  C   UNL     1       8.062   8.509  17.841  0.00  0.00    +0.000 C 
ATOM     24  C   UNL     1       7.580   7.073  17.745  0.00  0.00    +0.000 C 
ENDBRANCH  22  24
ENDBRANCH  20  22
ENDBRANCH  19  20
ENDBRANCH   1  19
TORSDOF 6
ENDMDL
MODEL 2
REMARK VINA RESULT:      -7.9      0.071      1.008
REMARK  Name = 
REMARK  7 active torsions:
REMARK  status: ('A' for Active; 'I' for Inactive)
REMARK    1  A    between atoms: C_1  and  C_2
REMARK    2  A    between atoms: C_2  and  O_3
REMARK    3  A    between atoms: O_3  and  C_4
REMARK    4  A    between atoms: C_4  and  C_6
REMARK    5  A    between atoms: C_6  and  C_7
REMARK    6  A    between atoms: C_9  and  O_10
REMARK    7  A    between atoms: C_14  and  C_15
REMARK                            x       y       z     vdW  Elec       q    Type
REMARK                         _______ _______ _______ _____ _____    ______ ____
ROOT
ATOM      1  C   UNL     1       4.574   4.924  17.078  0.00  0.00    +0.000 A 
ATOM      2  C   UNL     1       4.792   3.544  17.616  0.00  0.00    +0.000 A 
ATOM      3  C   UNL     1       4.181   3.257  18.777  0.00  0.00    +0.000 A 
ATOM      4  N   UNL     1       3.382   4.238  19.402  0.00  0.00    +0.000 N 
ATOM      5  N   UNL     1       2.693   4.142  20.570  0.00  0.00    +0.000 NA
ATOM      6  C   UNL     1       2.115   5.330  20.716  0.00  0.00    +0.000 A 
ATOM      7  C   UNL     1       2.405   6.228  19.669  0.00  0.00    +0.000 A 
ATOM      8  C   UNL     1       3.229   5.507  18.822  0.00  0.00    +0.000 A 
ATOM      9  N   UNL     1       3.838   5.836  17.640  0.00  0.00    +0.000 NA
ENDROOT
BRANCH   7  10
ATOM     10  C   UNL     1       1.955   7.601  19.462  0.00  0.00    +0.000 A 
ATOM     11  C   UNL     1       1.358   8.343  20.489  0.00  0.00    +0.000 A 
ATOM     12  C   UNL     1       0.945   9.662  20.278  0.00  0.00    +0.000 A 
ATOM     13  C   UNL     1       1.118  10.247  19.027  0.00  0.00    +0.000 A 
ATOM     14 CL   UNL     1       0.618  11.872  18.767  0.00  0.00    +0.000 Cl
ATOM     15  C   UNL     1       1.695   9.524  17.989  0.00  0.00    +0.000 A 
ATOM     16  C   UNL     1       2.112   8.205  18.205  0.00  0.00    +0.000 A 
ENDBRANCH   7  10
BRANCH   3  17
ATOM     17  O   UNL     1       4.319   2.018  19.384  0.00  0.00    +0.000 OA
ATOM     18  H   UNL     1       5.230   1.702  19.283  0.00  0.00    +0.000 HD
ENDBRANCH   3  17
BRANCH   1  19
ATOM     19  C   UNL     1       5.281   5.290  15.800  0.00  0.00    +0.000 C 
BRANCH  19  20
ATOM     20  C   UNL     1       6.728   5.619  16.003  0.00  0.00    +0.000 C 
ATOM     21  O   UNL     1       7.643   4.814  15.907  0.00  0.00    +0.000 OA
BRANCH  20  22
ATOM     22  O   UNL     1       6.838   6.891  16.481  0.00  0.00    +0.000 OA
BRANCH  22  24
ATOM     23  C   UNL     1       8.038   8.447  17.830  0.00  0.00    +0.000 C 
ATOM     24  C   UNL     1       7.525   7.022  17.733  0.00  0.00    +0.000 C 
ENDBRANCH  22  24
ENDBRANCH  20  22
ENDBRANCH  19  20
ENDBRANCH   1  19
TORSDOF 6
ENDMDL
MODEL 3
REMARK VINA RESULT:      -7.8      1.134      1.988
REMARK  Name = 
REMARK  7 active torsions:
REMARK  status: ('A' for Active; 'I' for Inactive)
REMARK    1  A    between atoms: C_1  and  C_2
REMARK    2  A    between atoms: C_2  and  O_3
REMARK    3  A    between atoms: O_3  and  C_4
REMARK    4  A    between atoms: C_4  and  C_6
REMARK    5  A    between atoms: C_6  and  C_7
REMARK    6  A    between atoms: C_9  and  O_10
REMARK    7  A    between atoms: C_14  and  C_15
REMARK                            x       y       z     vdW  Elec       q    Type
REMARK                         _______ _______ _______ _____ _____    ______ ____
ROOT
ATOM      1  C   UNL     1       5.411   5.634  17.813  0.00  0.00    +0.000 A 
ATOM      2  C   UNL     1       5.638   4.232  18.286  0.00  0.00    +0.000 A 
ATOM      3  C   UNL     1       4.763   3.762  19.189  0.00  0.00    +0.000 A 
ATOM      4  N   UNL     1       3.703   4.586  19.622  0.00  0.00    +0.000 N 
ATOM      5  N   UNL     1       2.728   4.297  20.525  0.00  0.00    +0.000 NA
ATOM      6  C   UNL     1       1.987   5.399  20.583  0.00  0.00    +0.000 A 
ATOM      7  C   UNL     1       2.448   6.430  19.739  0.00  0.00    +0.000 A 
ATOM      8  C   UNL     1       3.563   5.889  19.121  0.00  0.00    +0.000 A 
ATOM      9  N   UNL     1       4.437   6.403  18.200  0.00  0.00    +0.000 NA
ENDROOT
BRANCH   7  10
ATOM     10  C   UNL     1       1.907   7.766  19.513  0.00  0.00    +0.000 A 
ATOM     11  C   UNL     1       1.973   8.383  18.256  0.00  0.00    +0.000 A 
ATOM     12  C   UNL     1       1.438   9.659  18.052  0.00  0.00    +0.000 A 
ATOM     13  C   UNL     1       0.840  10.334  19.113  0.00  0.00    +0.000 A 
ATOM     14 CL   UNL     1       0.174  11.899  18.863  0.00  0.00    +0.000 Cl
ATOM     15  C   UNL     1       0.777   9.745  20.372  0.00  0.00    +0.000 A 
ATOM     16  C   UNL     1       1.309   8.466  20.572  0.00  0.00    +0.000 A 
ENDBRANCH   7  10
BRANCH   3  17
ATOM     17  O   UNL     1       4.876   2.484  19.715  0.00  0.00    +0.000 OA
ATOM     18  H   UNL     1       3.998   2.148  19.956  0.00  0.00    +0.000 HD
ENDBRANCH   3  17
BRANCH   1  19
ATOM     19  C   UNL     1       6.400   6.204  16.832  0.00  0.00    +0.000 C 
BRANCH  19  20
ATOM     20  C   UNL     1       6.918   5.188  15.863  0.00  0.00    +0.000 C 
ATOM     21  O   UNL     1       7.898   4.483  16.054  0.00  0.00    +0.000 OA
BRANCH  20  22
ATOM     22  O   UNL     1       6.242   5.303  14.685  0.00  0.00    +0.000 OA
BRANCH  22  24
ATOM     23  C   UNL     1       6.500   3.887  12.783  0.00  0.00    +0.000 C 
ATOM     24  C   UNL     1       5.788   4.069  14.112  0.00  0.00    +0.000 C 
ENDBRANCH  22  24
ENDBRANCH  20  22
ENDBRANCH  19  20
ENDBRANCH   1  19
TORSDOF 6
ENDMDL
MODEL 4
REMARK VINA RESULT:      -7.7      1.339      2.443
REMARK  Name = 
REMARK  7 active torsions:
REMARK  status: ('A' for Active; 'I' for Inactive)
REMARK    1  A    between atoms: C_1  and  C_2
REMARK    2  A    between atoms: C_2  and  O_3
REMARK    3  A    between atoms: O_3  and  C_4
REMARK    4  A    between atoms: C_4  and  C_6
REMARK    5  A    between atoms: C_6  and  C_7
REMARK    6  A    between atoms: C_9  and  O_10
REMARK    7  A    between atoms: C_14  and  C_15
REMARK                            x       y       z     vdW  Elec       q    Type
REMARK                         _______ _______ _______ _____ _____    ______ ____
ROOT
ATOM      1  C   UNL     1       4.591   4.998  17.008  0.00  0.00    +0.000 A 
ATOM      2  C   UNL     1       4.819   3.616  17.536  0.00  0.00    +0.000 A 
ATOM      3  C   UNL     1       4.215   3.317  18.696  0.00  0.00    +0.000 A 
ATOM      4  N   UNL     1       3.412   4.288  19.331  0.00  0.00    +0.000 N 
ATOM      5  N   UNL     1       2.728   4.180  20.501  0.00  0.00    +0.000 NA
ATOM      6  C   UNL     1       2.143   5.363  20.659  0.00  0.00    +0.000 A 
ATOM      7  C   UNL     1       2.424   6.270  19.617  0.00  0.00    +0.000 A 
ATOM      8  C   UNL     1       3.249   5.561  18.761  0.00  0.00    +0.000 A 
ATOM      9  N   UNL     1       3.852   5.901  17.579  0.00  0.00    +0.000 NA
ENDROOT
BRANCH   7  10
ATOM     10  C   UNL     1       1.965   7.642  19.421  0.00  0.00    +0.000 A 
ATOM     11  C   UNL     1       1.371   8.374  20.458  0.00  0.00    +0.000 A 
ATOM     12  C   UNL     1       0.949   9.693  20.258  0.00  0.00    +0.000 A 
ATOM     13  C   UNL     1       1.110  10.286  19.009  0.00  0.00    +0.000 A 
ATOM     14 CL   UNL     1       0.599  11.909  18.762  0.00  0.00    +0.000 Cl
ATOM     15  C   UNL     1       1.684   9.572  17.962  0.00  0.00    +0.000 A 
ATOM     16  C   UNL     1       2.110   8.254  18.167  0.00  0.00    +0.000 A 
ENDBRANCH   7  10
BRANCH   3  17
ATOM     17  O   UNL     1       4.362   2.074  19.294  0.00  0.00    +0.000 OA
ATOM     18  H   UNL     1       4.808   1.466  18.683  0.00  0.00    +0.000 HD
ENDBRANCH   3  17
BRANCH   1  19
ATOM     19  C   UNL     1       5.291   5.378  15.731  0.00  0.00    +0.000 C 
BRANCH  19  20
ATOM     20  C   UNL     1       6.501   4.539  15.453  0.00  0.00    +0.000 C 
ATOM     21  O   UNL     1       7.613   4.751  15.913  0.00  0.00    +0.000 OA
BRANCH  20  22
ATOM     22  O   UNL     1       6.205   3.630  14.481  0.00  0.00    +0.000 OA
BRANCH  22  24
ATOM     23  C   UNL     1       5.648   3.240  12.196  0.00  0.00    +0.000 C 
ATOM     24  C   UNL     1       6.534   4.029  13.143  0.00  0.00    +0.000 C 
ENDBRANCH  22  24
ENDBRANCH  20  22
ENDBRANCH  19  20
ENDBRANCH   1  19
TORSDOF 6
ENDMDL
MODEL 5
REMARK VINA RESULT:      -7.6      1.112      2.219
REMARK  Name = 
REMARK  7 active torsions:
REMARK  status: ('A' for Active; 'I' for Inactive)
REMARK    1  A    between atoms: C_1  and  C_2
REMARK    2  A    between atoms: C_2  and  O_3
REMARK    3  A    between atoms: O_3  and  C_4
REMARK    4  A    between atoms: C_4  and  C_6
REMARK    5  A    between atoms: C_6  and  C_7
REMARK    6  A    between atoms: C_9  and  O_10
REMARK    7  A    between atoms: C_14  and  C_15
REMARK                            x       y       z     vdW  Elec       q    Type
REMARK                         _______ _______ _______ _____ _____    ______ ____
ROOT
ATOM      1  C   UNL     1       5.589   5.594  18.081  0.00  0.00    +0.000 A 
ATOM      2  C   UNL     1       5.779   4.171  18.503  0.00  0.00    +0.000 A 
ATOM      3  C   UNL     1       4.833   3.659  19.305  0.00  0.00    +0.000 A 
ATOM      4  N   UNL     1       3.737   4.461  19.686  0.00  0.00    +0.000 N 
ATOM      5  N   UNL     1       2.690   4.130  20.487  0.00  0.00    +0.000 NA
ATOM      6  C   UNL     1       1.944   5.229  20.536  0.00  0.00    +0.000 A 
ATOM      7  C   UNL     1       2.472   6.299  19.785  0.00  0.00    +0.000 A 
ATOM      8  C   UNL     1       3.637   5.788  19.238  0.00  0.00    +0.000 A 
ATOM      9  N   UNL     1       4.584   6.345  18.421  0.00  0.00    +0.000 NA
ENDROOT
BRANCH   7  10
ATOM     10  C   UNL     1       1.948   7.645  19.578  0.00  0.00    +0.000 A 
ATOM     11  C   UNL     1       1.348   8.369  20.617  0.00  0.00    +0.000 A 
ATOM     12  C   UNL     1       0.864   9.664  20.406  0.00  0.00    +0.000 A 
ATOM     13  C   UNL     1       0.967  10.242  19.144  0.00  0.00    +0.000 A 
ATOM     14 CL   UNL     1       0.380  11.837  18.884  0.00  0.00    +0.000 Cl
ATOM     15  C   UNL     1       1.546   9.536  18.095  0.00  0.00    +0.000 A 
ATOM     16  C   UNL     1       2.034   8.241  18.311  0.00  0.00    +0.000 A 
ENDBRANCH   7  10
BRANCH   3  17
ATOM     17  O   UNL     1       4.905   2.356  19.776  0.00  0.00    +0.000 OA
ATOM     18  H   UNL     1       5.811   2.022  19.682  0.00  0.00    +0.000 HD
ENDBRANCH   3  17
BRANCH   1  19
ATOM     19  C   UNL     1       6.657   6.211  17.217  0.00  0.00    +0.000 C 
BRANCH  19  20
ATOM     20  C   UNL     1       6.315   6.193  15.759  0.00  0.00    +0.000 C 
ATOM     21  O   UNL     1       5.344   6.749  15.268  0.00  0.00    +0.000 OA
BRANCH  20  22
ATOM     22  O   UNL     1       7.143   5.324  15.112  0.00  0.00    +0.000 OA
BRANCH  22  24
ATOM     23  C   UNL     1       6.226   3.886  13.447  0.00  0.00    +0.000 C 
ATOM     24  C   UNL     1       6.616   4.006  14.909  0.00  0.00    +0.000 C 
ENDBRANCH  22  24
ENDBRANCH  20  22
ENDBRANCH  19  20
ENDBRANCH   1  19
TORSDOF 6
ENDMDL
MODEL 6
REMARK VINA RESULT:      -7.6      1.825      2.430
REMARK  Name = 
REMARK  7 active torsions:
REMARK  status: ('A' for Active; 'I' for Inactive)
REMARK    1  A    between atoms: C_1  and  C_2
REMARK    2  A    between atoms: C_2  and  O_3
REMARK    3  A    between atoms: O_3  and  C_4
REMARK    4  A    between atoms: C_4  and  C_6
REMARK    5  A    between atoms: C_6  and  C_7
REMARK    6  A    between atoms: C_9  and  O_10
REMARK    7  A    between atoms: C_14  and  C_15
REMARK                            x       y       z     vdW  Elec       q    Type
REMARK                         _______ _______ _______ _____ _____    ______ ____
ROOT
ATOM      1  C   UNL     1       6.334   6.356  17.178  0.00  0.00    +0.000 A 
ATOM      2  C   UNL     1       6.573   5.006  16.577  0.00  0.00    +0.000 A 
ATOM      3  C   UNL     1       5.526   4.167  16.570  0.00  0.00    +0.000 A 
ATOM      4  N   UNL     1       4.292   4.592  17.103  0.00  0.00    +0.000 N 
ATOM      5  N   UNL     1       3.128   3.895  17.191  0.00  0.00    +0.000 NA
ATOM      6  C   UNL     1       2.276   4.735  17.771  0.00  0.00    +0.000 A 
ATOM      7  C   UNL     1       2.846   5.986  18.081  0.00  0.00    +0.000 A 
ATOM      8  C   UNL     1       4.156   5.881  17.643  0.00  0.00    +0.000 A 
ATOM      9  N   UNL     1       5.202   6.764  17.668  0.00  0.00    +0.000 NA
ENDROOT
BRANCH   7  10
ATOM     10  C   UNL     1       2.243   7.162  18.700  0.00  0.00    +0.000 A 
ATOM     11  C   UNL     1       1.924   8.304  17.954  0.00  0.00    +0.000 A 
ATOM     12  C   UNL     1       1.333   9.418  18.561  0.00  0.00    +0.000 A 
ATOM     13  C   UNL     1       1.068   9.399  19.926  0.00  0.00    +0.000 A 
ATOM     14 CL   UNL     1       0.334  10.764  20.673  0.00  0.00    +0.000 Cl
ATOM     15  C   UNL     1       1.389   8.281  20.689  0.00  0.00    +0.000 A 
ATOM     16  C   UNL     1       1.976   7.166  20.078  0.00  0.00    +0.000 A 
ENDBRANCH   7  10
BRANCH   3  17
ATOM     17  O   UNL     1       5.627   2.882  16.056  0.00  0.00    +0.000 OA
ATOM     18  H   UNL     1       5.837   2.258  16.768  0.00  0.00    +0.000 HD
ENDBRANCH   3  17
BRANCH   1  19
ATOM     19  C   UNL     1       7.502   7.305  17.239  0.00  0.00    +0.000 C 
BRANCH  19  20
ATOM     20  C   UNL     1       8.238   7.247  18.542  0.00  0.00    +0.000 C 
ATOM     21  O   UNL     1       8.246   6.281  19.291  0.00  0.00    +0.000 OA
BRANCH  20  22
ATOM     22  O   UNL     1       8.735   8.481  18.834  0.00  0.00    +0.000 OA
BRANCH  22  24
ATOM     23  C   UNL     1       9.152  10.760  18.269  0.00  0.00    +0.000 C 
ATOM     24  C   UNL     1       8.292   9.543  17.978  0.00  0.00    +0.000 C 
ENDBRANCH  22  24
ENDBRANCH  20  22
ENDBRANCH  19  20
ENDBRANCH   1  19
TORSDOF 6
ENDMDL
MODEL 7
REMARK VINA RESULT:      -7.6      1.829      2.574
REMARK  Name = 
REMARK  7 active torsions:
REMARK  status: ('A' for Active; 'I' for Inactive)
REMARK    1  A    between atoms: C_1  and  C_2
REMARK    2  A    between atoms: C_2  and  O_3
REMARK    3  A    between atoms: O_3  and  C_4
REMARK    4  A    between atoms: C_4  and  C_6
REMARK    5  A    between atoms: C_6  and  C_7
REMARK    6  A    between atoms: C_9  and  O_10
REMARK    7  A    between atoms: C_14  and  C_15
REMARK                            x       y       z     vdW  Elec       q    Type
REMARK                         _______ _______ _______ _____ _____    ______ ____
ROOT
ATOM      1  C   UNL     1       6.321   6.279  17.191  0.00  0.00    +0.000 A 
ATOM      2  C   UNL     1       6.554   4.930  16.585  0.00  0.00    +0.000 A 
ATOM      3  C   UNL     1       5.501   4.097  16.572  0.00  0.00    +0.000 A 
ATOM      4  N   UNL     1       4.268   4.528  17.102  0.00  0.00    +0.000 N 
ATOM      5  N   UNL     1       3.099   3.838  17.183  0.00  0.00    +0.000 NA
ATOM      6  C   UNL     1       2.251   4.681  17.765  0.00  0.00    +0.000 A 
ATOM      7  C   UNL     1       2.828   5.927  18.082  0.00  0.00    +0.000 A 
ATOM      8  C   UNL     1       4.138   5.816  17.647  0.00  0.00    +0.000 A 
ATOM      9  N   UNL     1       5.191   6.692  17.679  0.00  0.00    +0.000 NA
ENDROOT
BRANCH   7  10
ATOM     10  C   UNL     1       2.231   7.104  18.704  0.00  0.00    +0.000 A 
ATOM     11  C   UNL     1       1.974   7.159  20.081  0.00  0.00    +0.000 A 
ATOM     12  C   UNL     1       1.413   8.300  20.664  0.00  0.00    +0.000 A 
ATOM     13  C   UNL     1       1.094   9.395  19.867  0.00  0.00    +0.000 A 
ATOM     14 CL   UNL     1       0.412  10.803  20.582  0.00  0.00    +0.000 Cl
ATOM     15  C   UNL     1       1.327   9.357  18.496  0.00  0.00    +0.000 A 
ATOM     16  C   UNL     1       1.893   8.215  17.916  0.00  0.00    +0.000 A 
ENDBRANCH   7  10
BRANCH   3  17
ATOM     17  O   UNL     1       5.595   2.814  16.052  0.00  0.00    +0.000 OA
ATOM     18  H   UNL     1       6.238   2.298  16.564  0.00  0.00    +0.000 HD
ENDBRANCH   3  17
BRANCH   1  19
ATOM     19  C   UNL     1       7.495   7.219  17.260  0.00  0.00    +0.000 C 
BRANCH  19  20
ATOM     20  C   UNL     1       8.220   7.158  18.568  0.00  0.00    +0.000 C 
ATOM     21  O   UNL     1       8.168   6.217  19.347  0.00  0.00    +0.000 OA
BRANCH  20  22
ATOM     22  O   UNL     1       8.790   8.369  18.825  0.00  0.00    +0.000 OA
BRANCH  22  24
ATOM     23  C   UNL     1       9.156  10.675  18.343  0.00  0.00    +0.000 C 
ATOM     24  C   UNL     1       8.294   9.462  18.041  0.00  0.00    +0.000 C 
ENDBRANCH  22  24
ENDBRANCH  20  22
ENDBRANCH  19  20
ENDBRANCH   1  19
TORSDOF 6
ENDMDL
MODEL 8
REMARK VINA RESULT:      -7.5      1.240      2.087
REMARK  Name = 
REMARK  7 active torsions:
REMARK  status: ('A' for Active; 'I' for Inactive)
REMARK    1  A    between atoms: C_1  and  C_2
REMARK    2  A    between atoms: C_2  and  O_3
REMARK    3  A    between atoms: O_3  and  C_4
REMARK    4  A    between atoms: C_4  and  C_6
REMARK    5  A    between atoms: C_6  and  C_7
REMARK    6  A    between atoms: C_9  and  O_10
REMARK    7  A    between atoms: C_14  and  C_15
REMARK                            x       y       z     vdW  Elec       q    Type
REMARK                         _______ _______ _______ _____ _____    ______ ____
ROOT
ATOM      1  C   UNL     1       5.172   5.245  18.246  0.00  0.00    +0.000 A 
ATOM      2  C   UNL     1       5.199   3.836  18.750  0.00  0.00    +0.000 A 
ATOM      3  C   UNL     1       4.210   3.486  19.586  0.00  0.00    +0.000 A 
ATOM      4  N   UNL     1       3.221   4.433  19.926  0.00  0.00    +0.000 N 
ATOM      5  N   UNL     1       2.153   4.274  20.752  0.00  0.00    +0.000 NA
ATOM      6  C   UNL     1       1.542   5.455  20.741  0.00  0.00    +0.000 A 
ATOM      7  C   UNL     1       2.181   6.409  19.925  0.00  0.00    +0.000 A 
ATOM      8  C   UNL     1       3.271   5.734  19.402  0.00  0.00    +0.000 A 
ATOM      9  N   UNL     1       4.266   6.127  18.547  0.00  0.00    +0.000 NA
ENDROOT
BRANCH   7  10
ATOM     10  C   UNL     1       1.817   7.794  19.643  0.00  0.00    +0.000 A 
ATOM     11  C   UNL     1       1.216   8.609  20.612  0.00  0.00    +0.000 A 
ATOM     12  C   UNL     1       0.885   9.938  20.330  0.00  0.00    +0.000 A 
ATOM     13  C   UNL     1       1.144  10.460  19.066  0.00  0.00    +0.000 A 
ATOM     14 CL   UNL     1       0.746  12.097  18.718  0.00  0.00    +0.000 Cl
ATOM     15  C   UNL     1       1.727   9.664  18.085  0.00  0.00    +0.000 A 
ATOM     16  C   UNL     1       2.062   8.336  18.372  0.00  0.00    +0.000 A 
ENDBRANCH   7  10
BRANCH   3  17
ATOM     17  O   UNL     1       4.135   2.213  20.132  0.00  0.00    +0.000 OA
ATOM     18  H   UNL     1       4.490   2.222  21.035  0.00  0.00    +0.000 HD
ENDBRANCH   3  17
BRANCH   1  19
ATOM     19  C   UNL     1       6.293   5.680  17.340  0.00  0.00    +0.000 C 
BRANCH  19  20
ATOM     20  C   UNL     1       7.451   4.731  17.342  0.00  0.00    +0.000 C 
ATOM     21  O   UNL     1       8.166   4.511  18.309  0.00  0.00    +0.000 OA
BRANCH  20  22
ATOM     22  O   UNL     1       7.684   4.301  16.070  0.00  0.00    +0.000 OA
BRANCH  22  24
ATOM     23  C   UNL     1       6.252   3.899  14.206  0.00  0.00    +0.000 C 
ATOM     24  C   UNL     1       6.930   4.966  15.047  0.00  0.00    +0.000 C 
ENDBRANCH  22  24
ENDBRANCH  20  22
ENDBRANCH  19  20
ENDBRANCH   1  19
TORSDOF 6
ENDMDL
MODEL 9
REMARK VINA RESULT:      -7.5      0.695      1.009
REMARK  Name = 
REMARK  7 active torsions:
REMARK  status: ('A' for Active; 'I' for Inactive)
REMARK    1  A    between atoms: C_1  and  C_2
REMARK    2  A    between atoms: C_2  and  O_3
REMARK    3  A    between atoms: O_3  and  C_4
REMARK    4  A    between atoms: C_4  and  C_6
REMARK    5  A    between atoms: C_6  and  C_7
REMARK    6  A    between atoms: C_9  and  O_10
REMARK    7  A    between atoms: C_14  and  C_15
REMARK                            x       y       z     vdW  Elec       q    Type
REMARK                         _______ _______ _______ _____ _____    ______ ____
ROOT
ATOM      1  C   UNL     1       4.462   4.471  17.088  0.00  0.00    +0.000 A 
ATOM      2  C   UNL     1       4.679   3.111  17.673  0.00  0.00    +0.000 A 
ATOM      3  C   UNL     1       4.126   2.887  18.875  0.00  0.00    +0.000 A 
ATOM      4  N   UNL     1       3.383   3.911  19.499  0.00  0.00    +0.000 N 
ATOM      5  N   UNL     1       2.757   3.881  20.705  0.00  0.00    +0.000 NA
ATOM      6  C   UNL     1       2.213   5.087  20.831  0.00  0.00    +0.000 A 
ATOM      7  C   UNL     1       2.465   5.933  19.733  0.00  0.00    +0.000 A 
ATOM      8  C   UNL     1       3.226   5.158  18.874  0.00  0.00    +0.000 A 
ATOM      9  N   UNL     1       3.778   5.423  17.649  0.00  0.00    +0.000 NA
ENDROOT
BRANCH   7  10
ATOM     10  C   UNL     1       2.034   7.306  19.491  0.00  0.00    +0.000 A 
ATOM     11  C   UNL     1       2.198   7.920  18.241  0.00  0.00    +0.000 A 
ATOM     12  C   UNL     1       1.767   9.232  18.022  0.00  0.00    +0.000 A 
ATOM     13  C   UNL     1       1.177   9.947  19.060  0.00  0.00    +0.000 A 
ATOM     14 CL   UNL     1       0.638  11.558  18.791  0.00  0.00    +0.000 Cl
ATOM     15  C   UNL     1       1.017   9.362  20.312  0.00  0.00    +0.000 A 
ATOM     16  C   UNL     1       1.445   8.047  20.527  0.00  0.00    +0.000 A 
ENDBRANCH   7  10
BRANCH   3  17
ATOM     17  O   UNL     1       4.270   1.671  19.528  0.00  0.00    +0.000 OA
ATOM     18  H   UNL     1       5.079   1.679  20.063  0.00  0.00    +0.000 HD
ENDBRANCH   3  17
BRANCH   1  19
ATOM     19  C   UNL     1       5.107   4.767  15.760  0.00  0.00    +0.000 C 
BRANCH  19  20
ATOM     20  C   UNL     1       5.692   6.143  15.685  0.00  0.00    +0.000 C 
ATOM     21  O   UNL     1       5.195   7.076  15.072  0.00  0.00    +0.000 OA
BRANCH  20  22
ATOM     22  O   UNL     1       6.934   6.136  16.248  0.00  0.00    +0.000 OA
BRANCH  22  24
ATOM     23  C   UNL     1       7.685   6.263  18.507  0.00  0.00    +0.000 C 
ATOM     24  C   UNL     1       7.122   7.050  17.337  0.00  0.00    +0.000 C 
ENDBRANCH  22  24
ENDBRANCH  20  22
ENDBRANCH  19  20
ENDBRANCH   1  19
TORSDOF 6
ENDMDL
