MODEL 1
REMARK VINA RESULT:      -8.7      0.000      0.000
REMARK  Name = 
REMARK  4 active torsions:
REMARK  status: ('A' for Active; 'I' for Inactive)
REMARK    1  A    between atoms: C_1  and  O_2
REMARK    2  A    between atoms: O_2  and  C_3
REMARK    3  A    between atoms: C_8  and  C_9
REMARK    4  A    between atoms: C_14  and  C_15
REMARK                            x       y       z     vdW  Elec       q    Type
REMARK                         _______ _______ _______ _____ _____    ______ ____
ROOT
ATOM      1  C   UNL     1       4.146   4.606  18.392  0.00  0.00    +0.000 C 
ATOM      2  C   UNL     1       3.968   3.599  19.269  0.00  0.00    +0.000 C 
ATOM      3  C   UNL     1       2.945   3.711  20.333  0.00  0.00    +0.000 C 
ATOM      4  O   UNL     1       2.792   2.775  21.115  0.00  0.00    +0.000 OA
ATOM      5  C   UNL     1       2.086   4.949  20.389  0.00  0.00    +0.000 C 
ATOM      6  C   UNL     1       2.818   6.162  19.784  0.00  0.00    +0.000 C 
ATOM      7  C   UNL     1       3.355   5.878  18.394  0.00  0.00    +0.000 C 
ENDROOT
BRANCH   6   8
ATOM      8  C   UNL     1       1.967   7.405  19.829  0.00  0.00    +0.000 A 
ATOM      9  C   UNL     1       1.279   7.797  21.006  0.00  0.00    +0.000 A 
ATOM     10  C   UNL     1       0.721   9.073  21.112  0.00  0.00    +0.000 A 
ATOM     11  C   UNL     1       0.898   9.920  20.042  0.00  0.00    +0.000 A 
ATOM     12  C   UNL     1       1.464   9.497  18.860  0.00  0.00    +0.000 A 
ATOM     13  C   UNL     1       1.968   8.235  18.704  0.00  0.00    +0.000 A 
ATOM     14  O   UNL     1       1.624  10.515  17.969  0.00  0.00    +0.000 OA
ATOM     15  C   UNL     1       1.504  11.612  18.894  0.00  0.00    +0.000 C 
ATOM     16  O   UNL     1       0.687  11.267  20.035  0.00  0.00    +0.000 OA
ENDBRANCH   6   8
BRANCH   1  22
ATOM     17  C   UNL     1       6.561   4.557  17.601  0.00  0.00    +0.000 A 
ATOM     18  C   UNL     1       7.432   4.535  16.500  0.00  0.00    +0.000 A 
ATOM     19  C   UNL     1       6.949   4.469  15.191  0.00  0.00    +0.000 A 
ATOM     20  C   UNL     1       5.579   4.442  14.959  0.00  0.00    +0.000 A 
ATOM     21  C   UNL     1       4.699   4.455  16.037  0.00  0.00    +0.000 A 
ATOM     22  C   UNL     1       5.175   4.502  17.363  0.00  0.00    +0.000 A 
BRANCH  17  24
ATOM     23  C   UNL     1       7.788   6.031  19.038  0.00  0.00    +0.000 C 
ATOM     24  O   UNL     1       7.213   4.760  18.786  0.00  0.00    +0.000 OA
ENDBRANCH  17  24
ENDBRANCH   1  22
TORSDOF 3
ENDMDL
MODEL 2
REMARK VINA RESULT:      -8.3      1.192      1.857
REMARK  Name = 
REMARK  4 active torsions:
REMARK  status: ('A' for Active; 'I' for Inactive)
REMARK    1  A    between atoms: C_1  and  O_2
REMARK    2  A    between atoms: O_2  and  C_3
REMARK    3  A    between atoms: C_8  and  C_9
REMARK    4  A    between atoms: C_14  and  C_15
REMARK                            x       y       z     vdW  Elec       q    Type
REMARK                         _______ _______ _______ _____ _____    ______ ____
ROOT
ATOM      1  C   UNL     1       3.586   4.794  18.611  0.00  0.00    +0.000 C 
ATOM      2  C   UNL     1       3.039   3.738  19.242  0.00  0.00    +0.000 C 
ATOM      3  C   UNL     1       1.904   3.935  20.174  0.00  0.00    +0.000 C 
ATOM      4  O   UNL     1       1.412   2.956  20.730  0.00  0.00    +0.000 OA
ATOM      5  C   UNL     1       1.354   5.326  20.366  0.00  0.00    +0.000 C 
ATOM      6  C   UNL     1       2.435   6.393  20.108  0.00  0.00    +0.000 C 
ATOM      7  C   UNL     1       3.119   6.208  18.766  0.00  0.00    +0.000 C 
ENDROOT
BRANCH   6   8
ATOM      8  C   UNL     1       1.895   7.787  20.291  0.00  0.00    +0.000 A 
ATOM      9  C   UNL     1       1.468   8.574  19.189  0.00  0.00    +0.000 A 
ATOM     10  C   UNL     1       0.729   9.741  19.392  0.00  0.00    +0.000 A 
ATOM     11  C   UNL     1       0.421  10.063  20.694  0.00  0.00    +0.000 A 
ATOM     12  C   UNL     1       0.934   9.362  21.763  0.00  0.00    +0.000 A 
ATOM     13  C   UNL     1       1.709   8.247  21.598  0.00  0.00    +0.000 A 
ATOM     14  O   UNL     1       0.431   9.792  22.954  0.00  0.00    +0.000 OA
ATOM     15  C   UNL     1      -0.720  10.493  22.445  0.00  0.00    +0.000 C 
ATOM     16  O   UNL     1      -0.501  10.981  21.102  0.00  0.00    +0.000 OA
ENDBRANCH   6   8
BRANCH   1  22
ATOM     17  C   UNL     1       6.075   4.690  18.099  0.00  0.00    +0.000 A 
ATOM     18  C   UNL     1       7.062   4.567  17.109  0.00  0.00    +0.000 A 
ATOM     19  C   UNL     1       6.727   4.364  15.768  0.00  0.00    +0.000 A 
ATOM     20  C   UNL     1       5.391   4.300  15.390  0.00  0.00    +0.000 A 
ATOM     21  C   UNL     1       4.397   4.413  16.358  0.00  0.00    +0.000 A 
ATOM     22  C   UNL     1       4.723   4.598  17.717  0.00  0.00    +0.000 A 
BRANCH  17  24
ATOM     23  C   UNL     1       7.827   5.711  19.376  0.00  0.00    +0.000 C 
ATOM     24  O   UNL     1       6.591   5.017  19.323  0.00  0.00    +0.000 OA
ENDBRANCH  17  24
ENDBRANCH   1  22
TORSDOF 3
ENDMDL
MODEL 3
REMARK VINA RESULT:      -8.2      0.956      1.613
REMARK  Name = 
REMARK  4 active torsions:
REMARK  status: ('A' for Active; 'I' for Inactive)
REMARK    1  A    between atoms: C_1  and  O_2
REMARK    2  A    between atoms: O_2  and  C_3
REMARK    3  A    between atoms: C_8  and  C_9
REMARK    4  A    between atoms: C_14  and  C_15
REMARK                            x       y       z     vdW  Elec       q    Type
REMARK                         _______ _______ _______ _____ _____    ______ ____
ROOT
ATOM      1  C   UNL     1       4.040   4.735  17.802  0.00  0.00    +0.000 C 
ATOM      2  C   UNL     1       3.611   3.699  18.547  0.00  0.00    +0.000 C 
ATOM      3  C   UNL     1       2.514   3.888  19.524  0.00  0.00    +0.000 C 
ATOM      4  O   UNL     1       2.130   2.926  20.184  0.00  0.00    +0.000 OA
ATOM      5  C   UNL     1       1.867   5.246  19.637  0.00  0.00    +0.000 C 
ATOM      6  C   UNL     1       2.846   6.364  19.232  0.00  0.00    +0.000 C 
ATOM      7  C   UNL     1       3.472   6.119  17.871  0.00  0.00    +0.000 C 
ENDROOT
BRANCH   6   8
ATOM      8  C   UNL     1       2.208   7.726  19.334  0.00  0.00    +0.000 A 
ATOM      9  C   UNL     1       1.962   8.524  18.187  0.00  0.00    +0.000 A 
ATOM     10  C   UNL     1       1.137   9.648  18.266  0.00  0.00    +0.000 A 
ATOM     11  C   UNL     1       0.567   9.916  19.490  0.00  0.00    +0.000 A 
ATOM     12  C   UNL     1       0.901   9.208  20.623  0.00  0.00    +0.000 A 
ATOM     13  C   UNL     1       1.750   8.137  20.589  0.00  0.00    +0.000 A 
ATOM     14  O   UNL     1       0.156   9.578  21.703  0.00  0.00    +0.000 OA
ATOM     15  C   UNL     1      -0.911  10.238  20.994  0.00  0.00    +0.000 C 
ATOM     16  O   UNL     1      -0.463  10.776  19.729  0.00  0.00    +0.000 OA
ENDBRANCH   6   8
BRANCH   1  22
ATOM     17  C   UNL     1       6.500   4.469  17.217  0.00  0.00    +0.000 A 
ATOM     18  C   UNL     1       7.457   4.381  16.195  0.00  0.00    +0.000 A 
ATOM     19  C   UNL     1       7.086   4.381  14.848  0.00  0.00    +0.000 A 
ATOM     20  C   UNL     1       5.744   4.487  14.500  0.00  0.00    +0.000 A 
ATOM     21  C   UNL     1       4.779   4.569  15.500  0.00  0.00    +0.000 A 
ATOM     22  C   UNL     1       5.141   4.550  16.862  0.00  0.00    +0.000 A 
BRANCH  17  24
ATOM     23  C   UNL     1       7.436   5.881  18.913  0.00  0.00    +0.000 C 
ATOM     24  O   UNL     1       7.063   4.591  18.458  0.00  0.00    +0.000 OA
ENDBRANCH  17  24
ENDBRANCH   1  22
TORSDOF 3
ENDMDL
MODEL 4
REMARK VINA RESULT:      -8.2      3.505      5.248
REMARK  Name = 
REMARK  4 active torsions:
REMARK  status: ('A' for Active; 'I' for Inactive)
REMARK    1  A    between atoms: C_1  and  O_2
REMARK    2  A    between atoms: O_2  and  C_3
REMARK    3  A    between atoms: C_8  and  C_9
REMARK    4  A    between atoms: C_14  and  C_15
REMARK                            x       y       z     vdW  Elec       q    Type
REMARK                         _______ _______ _______ _____ _____    ______ ____
ROOT
ATOM      1  C   UNL     1       6.149   4.855  15.746  0.00  0.00    +0.000 C 
ATOM      2  C   UNL     1       7.075   5.634  16.336  0.00  0.00    +0.000 C 
ATOM      3  C   UNL     1       6.888   6.084  17.735  0.00  0.00    +0.000 C 
ATOM      4  O   UNL     1       7.751   6.784  18.258  0.00  0.00    +0.000 OA
ATOM      5  C   UNL     1       5.668   5.620  18.490  0.00  0.00    +0.000 C 
ATOM      6  C   UNL     1       4.500   5.319  17.531  0.00  0.00    +0.000 C 
ATOM      7  C   UNL     1       4.899   4.372  16.415  0.00  0.00    +0.000 C 
ENDROOT
BRANCH   6   8
ATOM      8  C   UNL     1       3.277   4.848  18.275  0.00  0.00    +0.000 A 
ATOM      9  C   UNL     1       2.212   4.181  17.616  0.00  0.00    +0.000 A 
ATOM     10  C   UNL     1       1.224   3.520  18.348  0.00  0.00    +0.000 A 
ATOM     11  C   UNL     1       1.356   3.527  19.718  0.00  0.00    +0.000 A 
ATOM     12  C   UNL     1       2.324   4.271  20.356  0.00  0.00    +0.000 A 
ATOM     13  C   UNL     1       3.272   4.977  19.667  0.00  0.00    +0.000 A 
ATOM     14  O   UNL     1       2.332   4.065  21.703  0.00  0.00    +0.000 OA
ATOM     15  C   UNL     1       1.587   2.832  21.721  0.00  0.00    +0.000 C 
ATOM     16  O   UNL     1       0.682   2.734  20.598  0.00  0.00    +0.000 OA
ENDBRANCH   6   8
BRANCH   1  22
ATOM     17  C   UNL     1       7.366   4.867  13.513  0.00  0.00    +0.000 A 
ATOM     18  C   UNL     1       7.355   4.454  12.172  0.00  0.00    +0.000 A 
ATOM     19  C   UNL     1       6.335   3.643  11.669  0.00  0.00    +0.000 A 
ATOM     20  C   UNL     1       5.294   3.245  12.499  0.00  0.00    +0.000 A 
ATOM     21  C   UNL     1       5.290   3.638  13.834  0.00  0.00    +0.000 A 
ATOM     22  C   UNL     1       6.324   4.440  14.358  0.00  0.00    +0.000 A 
BRANCH  17  24
ATOM     23  C   UNL     1       9.204   6.185  12.721  0.00  0.00    +0.000 C 
ATOM     24  O   UNL     1       8.365   5.762  13.783  0.00  0.00    +0.000 OA
ENDBRANCH  17  24
ENDBRANCH   1  22
TORSDOF 3
ENDMDL
MODEL 5
REMARK VINA RESULT:      -8.0      2.766      7.549
REMARK  Name = 
REMARK  4 active torsions:
REMARK  status: ('A' for Active; 'I' for Inactive)
REMARK    1  A    between atoms: C_1  and  O_2
REMARK    2  A    between atoms: O_2  and  C_3
REMARK    3  A    between atoms: C_8  and  C_9
REMARK    4  A    between atoms: C_14  and  C_15
REMARK                            x       y       z     vdW  Elec       q    Type
REMARK                         _______ _______ _______ _____ _____    ______ ____
ROOT
ATOM      1  C   UNL     1       4.563   4.610  18.490  0.00  0.00    +0.000 C 
ATOM      2  C   UNL     1       5.543   4.912  19.363  0.00  0.00    +0.000 C 
ATOM      3  C   UNL     1       6.884   5.300  18.870  0.00  0.00    +0.000 C 
ATOM      4  O   UNL     1       7.760   5.583  19.684  0.00  0.00    +0.000 OA
ATOM      5  C   UNL     1       7.115   5.389  17.382  0.00  0.00    +0.000 C 
ATOM      6  C   UNL     1       6.168   4.446  16.615  0.00  0.00    +0.000 C 
ATOM      7  C   UNL     1       4.715   4.648  17.001  0.00  0.00    +0.000 C 
ENDROOT
BRANCH   6   8
ATOM      8  C   UNL     1       6.385   4.531  15.126  0.00  0.00    +0.000 A 
ATOM      9  C   UNL     1       7.426   5.317  14.567  0.00  0.00    +0.000 A 
ATOM     10  C   UNL     1       7.781   5.175  13.224  0.00  0.00    +0.000 A 
ATOM     11  C   UNL     1       7.095   4.230  12.496  0.00  0.00    +0.000 A 
ATOM     12  C   UNL     1       6.011   3.554  13.011  0.00  0.00    +0.000 A 
ATOM     13  C   UNL     1       5.603   3.713  14.307  0.00  0.00    +0.000 A 
ATOM     14  O   UNL     1       5.539   2.604  12.156  0.00  0.00    +0.000 OA
ATOM     15  C   UNL     1       6.699   2.504  11.307  0.00  0.00    +0.000 C 
ATOM     16  O   UNL     1       7.450   3.738  11.274  0.00  0.00    +0.000 OA
ENDBRANCH   6   8
BRANCH   1  22
ATOM     17  C   UNL     1       2.372   5.019  19.715  0.00  0.00    +0.000 A 
ATOM     18  C   UNL     1       1.180   4.459  20.200  0.00  0.00    +0.000 A 
ATOM     19  C   UNL     1       0.862   3.117  19.975  0.00  0.00    +0.000 A 
ATOM     20  C   UNL     1       1.744   2.305  19.272  0.00  0.00    +0.000 A 
ATOM     21  C   UNL     1       2.929   2.843  18.777  0.00  0.00    +0.000 A 
ATOM     22  C   UNL     1       3.251   4.200  18.981  0.00  0.00    +0.000 A 
BRANCH  17  24
ATOM     23  C   UNL     1       2.260   7.371  19.273  0.00  0.00    +0.000 C 
ATOM     24  O   UNL     1       2.569   6.301  20.149  0.00  0.00    +0.000 OA
ENDBRANCH  17  24
ENDBRANCH   1  22
TORSDOF 3
ENDMDL
MODEL 6
REMARK VINA RESULT:      -7.9      3.532      7.551
REMARK  Name = 
REMARK  4 active torsions:
REMARK  status: ('A' for Active; 'I' for Inactive)
REMARK    1  A    between atoms: C_1  and  O_2
REMARK    2  A    between atoms: O_2  and  C_3
REMARK    3  A    between atoms: C_8  and  C_9
REMARK    4  A    between atoms: C_14  and  C_15
REMARK                            x       y       z     vdW  Elec       q    Type
REMARK                         _______ _______ _______ _____ _____    ______ ____
ROOT
ATOM      1  C   UNL     1       4.726   4.791  18.638  0.00  0.00    +0.000 C 
ATOM      2  C   UNL     1       5.754   5.056  19.466  0.00  0.00    +0.000 C 
ATOM      3  C   UNL     1       7.091   5.372  18.915  0.00  0.00    +0.000 C 
ATOM      4  O   UNL     1       8.012   5.623  19.689  0.00  0.00    +0.000 OA
ATOM      5  C   UNL     1       7.266   5.431  17.418  0.00  0.00    +0.000 C 
ATOM      6  C   UNL     1       6.245   4.525  16.703  0.00  0.00    +0.000 C 
ATOM      7  C   UNL     1       4.820   4.802  17.143  0.00  0.00    +0.000 C 
ENDROOT
BRANCH   6   8
ATOM      8  C   UNL     1       6.405   4.580  15.206  0.00  0.00    +0.000 A 
ATOM      9  C   UNL     1       7.479   5.280  14.594  0.00  0.00    +0.000 A 
ATOM     10  C   UNL     1       7.765   5.100  13.240  0.00  0.00    +0.000 A 
ATOM     11  C   UNL     1       6.980   4.203  12.552  0.00  0.00    +0.000 A 
ATOM     12  C   UNL     1       5.871   3.616  13.119  0.00  0.00    +0.000 A 
ATOM     13  C   UNL     1       5.530   3.817  14.429  0.00  0.00    +0.000 A 
ATOM     14  O   UNL     1       5.293   2.697  12.296  0.00  0.00    +0.000 OA
ATOM     15  C   UNL     1       6.405   2.501  11.402  0.00  0.00    +0.000 C 
ATOM     16  O   UNL     1       7.245   3.675  11.323  0.00  0.00    +0.000 OA
ENDBRANCH   6   8
BRANCH   1  22
ATOM     17  C   UNL     1       2.680   3.298  18.859  0.00  0.00    +0.000 A 
ATOM     18  C   UNL     1       1.393   3.148  19.398  0.00  0.00    +0.000 A 
ATOM     19  C   UNL     1       0.838   4.118  20.237  0.00  0.00    +0.000 A 
ATOM     20  C   UNL     1       1.558   5.267  20.538  0.00  0.00    +0.000 A 
ATOM     21  C   UNL     1       2.840   5.431  20.018  0.00  0.00    +0.000 A 
ATOM     22  C   UNL     1       3.417   4.451  19.187  0.00  0.00    +0.000 A 
BRANCH  17  24
ATOM     23  C   UNL     1       3.783   1.222  18.392  0.00  0.00    +0.000 C 
ATOM     24  O   UNL     1       2.993   2.317  17.959  0.00  0.00    +0.000 OA
ENDBRANCH  17  24
ENDBRANCH   1  22
TORSDOF 3
ENDMDL
MODEL 7
REMARK VINA RESULT:      -7.9      1.979      2.887
REMARK  Name = 
REMARK  4 active torsions:
REMARK  status: ('A' for Active; 'I' for Inactive)
REMARK    1  A    between atoms: C_1  and  O_2
REMARK    2  A    between atoms: O_2  and  C_3
REMARK    3  A    between atoms: C_8  and  C_9
REMARK    4  A    between atoms: C_14  and  C_15
REMARK                            x       y       z     vdW  Elec       q    Type
REMARK                         _______ _______ _______ _____ _____    ______ ____
ROOT
ATOM      1  C   UNL     1       3.009   5.558  18.745  0.00  0.00    +0.000 C 
ATOM      2  C   UNL     1       2.846   4.533  19.602  0.00  0.00    +0.000 C 
ATOM      3  C   UNL     1       2.030   4.708  20.825  0.00  0.00    +0.000 C 
ATOM      4  O   UNL     1       1.885   3.756  21.588  0.00  0.00    +0.000 OA
ATOM      5  C   UNL     1       1.357   6.037  21.066  0.00  0.00    +0.000 C 
ATOM      6  C   UNL     1       2.132   7.184  20.391  0.00  0.00    +0.000 C 
ATOM      7  C   UNL     1       2.399   6.914  18.921  0.00  0.00    +0.000 C 
ENDROOT
BRANCH   6   8
ATOM      8  C   UNL     1       1.465   8.516  20.619  0.00  0.00    +0.000 A 
ATOM      9  C   UNL     1       0.905   9.264  19.551  0.00  0.00    +0.000 A 
ATOM     10  C   UNL     1       0.064  10.349  19.806  0.00  0.00    +0.000 A 
ATOM     11  C   UNL     1      -0.207  10.628  21.126  0.00  0.00    +0.000 A 
ATOM     12  C   UNL     1       0.429   9.974  22.158  0.00  0.00    +0.000 A 
ATOM     13  C   UNL     1       1.303   8.944  21.939  0.00  0.00    +0.000 A 
ATOM     14  O   UNL     1      -0.051  10.342  23.379  0.00  0.00    +0.000 OA
ATOM     15  C   UNL     1      -1.291  10.927  22.938  0.00  0.00    +0.000 C 
ATOM     16  O   UNL     1      -1.194  11.445  21.592  0.00  0.00    +0.000 OA
ENDBRANCH   6   8
BRANCH   1  22
ATOM     17  C   UNL     1       4.253   4.150  17.031  0.00  0.00    +0.000 A 
ATOM     18  C   UNL     1       5.126   4.144  15.932  0.00  0.00    +0.000 A 
ATOM     19  C   UNL     1       5.590   5.334  15.365  0.00  0.00    +0.000 A 
ATOM     20  C   UNL     1       5.200   6.555  15.902  0.00  0.00    +0.000 A 
ATOM     21  C   UNL     1       4.329   6.582  16.988  0.00  0.00    +0.000 A 
ATOM     22  C   UNL     1       3.839   5.388  17.556  0.00  0.00    +0.000 A 
BRANCH  17  24
ATOM     23  C   UNL     1       2.783   2.268  17.235  0.00  0.00    +0.000 C 
ATOM     24  O   UNL     1       4.020   2.896  17.527  0.00  0.00    +0.000 OA
ENDBRANCH  17  24
ENDBRANCH   1  22
TORSDOF 3
ENDMDL
MODEL 8
REMARK VINA RESULT:      -7.8      1.563      6.898
REMARK  Name = 
REMARK  4 active torsions:
REMARK  status: ('A' for Active; 'I' for Inactive)
REMARK    1  A    between atoms: C_1  and  O_2
REMARK    2  A    between atoms: O_2  and  C_3
REMARK    3  A    between atoms: C_8  and  C_9
REMARK    4  A    between atoms: C_14  and  C_15
REMARK                            x       y       z     vdW  Elec       q    Type
REMARK                         _______ _______ _______ _____ _____    ______ ____
ROOT
ATOM      1  C   UNL     1       1.779   6.960  20.371  0.00  0.00    +0.000 C 
ATOM      2  C   UNL     1       1.150   5.831  20.750  0.00  0.00    +0.000 C 
ATOM      3  C   UNL     1       1.750   4.510  20.455  0.00  0.00    +0.000 C 
ATOM      4  O   UNL     1       1.164   3.493  20.820  0.00  0.00    +0.000 OA
ATOM      5  C   UNL     1       3.090   4.457  19.764  0.00  0.00    +0.000 C 
ATOM      6  C   UNL     1       3.314   5.706  18.890  0.00  0.00    +0.000 C 
ATOM      7  C   UNL     1       3.097   6.996  19.659  0.00  0.00    +0.000 C 
ENDROOT
BRANCH   6   8
ATOM      8  C   UNL     1       4.654   5.667  18.200  0.00  0.00    +0.000 A 
ATOM      9  C   UNL     1       5.811   5.157  18.843  0.00  0.00    +0.000 A 
ATOM     10  C   UNL     1       6.968   4.880  18.111  0.00  0.00    +0.000 A 
ATOM     11  C   UNL     1       6.913   5.101  16.754  0.00  0.00    +0.000 A 
ATOM     12  C   UNL     1       5.829   5.704  16.154  0.00  0.00    +0.000 A 
ATOM     13  C   UNL     1       4.703   6.039  16.854  0.00  0.00    +0.000 A 
ATOM     14  O   UNL     1       5.944   5.743  14.797  0.00  0.00    +0.000 OA
ATOM     15  C   UNL     1       6.966   4.738  14.653  0.00  0.00    +0.000 C 
ATOM     16  O   UNL     1       7.805   4.652  15.826  0.00  0.00    +0.000 OA
ENDBRANCH   6   8
BRANCH   1  22
ATOM     17  C   UNL     1       0.892   9.234  19.663  0.00  0.00    +0.000 A 
ATOM     18  C   UNL     1       0.385  10.475  20.080  0.00  0.00    +0.000 A 
ATOM     19  C   UNL     1       0.165  10.754  21.431  0.00  0.00    +0.000 A 
ATOM     20  C   UNL     1       0.465   9.798  22.394  0.00  0.00    +0.000 A 
ATOM     21  C   UNL     1       0.961   8.558  21.999  0.00  0.00    +0.000 A 
ATOM     22  C   UNL     1       1.170   8.259  20.638  0.00  0.00    +0.000 A 
BRANCH  17  24
ATOM     23  C   UNL     1       2.124  10.104  17.801  0.00  0.00    +0.000 C 
ATOM     24  O   UNL     1       1.166   9.199  18.323  0.00  0.00    +0.000 OA
ENDBRANCH  17  24
ENDBRANCH   1  22
TORSDOF 3
ENDMDL
MODEL 9
REMARK VINA RESULT:      -7.7      1.794      7.004
REMARK  Name = 
REMARK  4 active torsions:
REMARK  status: ('A' for Active; 'I' for Inactive)
REMARK    1  A    between atoms: C_1  and  O_2
REMARK    2  A    between atoms: O_2  and  C_3
REMARK    3  A    between atoms: C_8  and  C_9
REMARK    4  A    between atoms: C_14  and  C_15
REMARK                            x       y       z     vdW  Elec       q    Type
REMARK                         _______ _______ _______ _____ _____    ______ ____
ROOT
ATOM      1  C   UNL     1       1.897   7.359  19.968  0.00  0.00    +0.000 C 
ATOM      2  C   UNL     1       1.355   6.317  20.626  0.00  0.00    +0.000 C 
ATOM      3  C   UNL     1       2.034   5.001  20.625  0.00  0.00    +0.000 C 
ATOM      4  O   UNL     1       1.528   4.067  21.242  0.00  0.00    +0.000 OA
ATOM      5  C   UNL     1       3.356   4.866  19.910  0.00  0.00    +0.000 C 
ATOM      6  C   UNL     1       3.473   5.883  18.759  0.00  0.00    +0.000 C 
ATOM      7  C   UNL     1       3.189   7.303  19.213  0.00  0.00    +0.000 C 
ENDROOT
BRANCH   6   8
ATOM      8  C   UNL     1       4.793   5.762  18.042  0.00  0.00    +0.000 A 
ATOM      9  C   UNL     1       5.927   5.173  18.659  0.00  0.00    +0.000 A 
ATOM     10  C   UNL     1       7.048   4.826  17.903  0.00  0.00    +0.000 A 
ATOM     11  C   UNL     1       6.981   5.058  16.548  0.00  0.00    +0.000 A 
ATOM     12  C   UNL     1       5.928   5.734  15.973  0.00  0.00    +0.000 A 
ATOM     13  C   UNL     1       4.839   6.138  16.697  0.00  0.00    +0.000 A 
ATOM     14  O   UNL     1       6.018   5.775  14.614  0.00  0.00    +0.000 OA
ATOM     15  C   UNL     1       6.969   4.706  14.444  0.00  0.00    +0.000 C 
ATOM     16  O   UNL     1       7.824   4.558  15.600  0.00  0.00    +0.000 OA
ENDBRANCH   6   8
BRANCH   1  22
ATOM     17  C   UNL     1       0.615   9.260  21.066  0.00  0.00    +0.000 A 
ATOM     18  C   UNL     1      -0.092  10.458  20.878  0.00  0.00    +0.000 A 
ATOM     19  C   UNL     1      -0.222  11.035  19.612  0.00  0.00    +0.000 A 
ATOM     20  C   UNL     1       0.343  10.411  18.506  0.00  0.00    +0.000 A 
ATOM     21  C   UNL     1       1.054   9.227  18.673  0.00  0.00    +0.000 A 
ATOM     22  C   UNL     1       1.208   8.646  19.948  0.00  0.00    +0.000 A 
BRANCH  17  24
ATOM     23  C   UNL     1      -0.124   9.586  23.323  0.00  0.00    +0.000 C 
ATOM     24  O   UNL     1       0.517   8.784  22.345  0.00  0.00    +0.000 OA
ENDBRANCH  17  24
ENDBRANCH   1  22
TORSDOF 3
ENDMDL
