MODEL 1
REMARK VINA RESULT:      -6.4      0.000      0.000
REMARK  Name = 
REMARK  8 active torsions:
REMARK  status: ('A' for Active; 'I' for Inactive)
REMARK    1  A    between atoms: C_1  and  O_2
REMARK    2  A    between atoms: O_2  and  C_3
REMARK    3  A    between atoms: C_5  and  C_6
REMARK    4  A    between atoms: N_11  and  C_12
REMARK    5  A    between atoms: C_20  and  O_21
REMARK    6  A    between atoms: O_21  and  C_22
REMARK    7  A    between atoms: C_23  and  O_24
REMARK    8  A    between atoms: O_24  and  C_25
REMARK                            x       y       z     vdW  Elec       q    Type
REMARK                         _______ _______ _______ _____ _____    ______ ____
ROOT
ATOM      1  C   UNL     1       1.911   5.351  19.906  0.00  0.00    +0.000 A 
ATOM      2  C   UNL     1       0.903   4.593  20.359  0.00  0.00    +0.000 A 
ATOM      3  S   UNL     1       1.141   2.924  20.005  0.00  0.00    +0.000 S 
ATOM      4  C   UNL     1       2.725   3.251  19.248  0.00  0.00    +0.000 A 
ATOM      5  S   UNL     1       3.701   1.966  18.806  0.00  0.00    +0.000 S 
ATOM      6  N   UNL     1       2.951   4.658  19.245  0.00  0.00    +0.000 N 
ENDROOT
BRANCH   6   7
ATOM      7  C   UNL     1       4.140   5.270  18.676  0.00  0.00    +0.000 A 
ATOM      8  C   UNL     1       5.367   5.309  19.358  0.00  0.00    +0.000 A 
ATOM      9  C   UNL     1       6.497   5.943  18.811  0.00  0.00    +0.000 A 
ATOM     10  C   UNL     1       6.441   6.506  17.543  0.00  0.00    +0.000 A 
ATOM     11 CL   UNL     1       7.817   7.285  16.870  0.00  0.00    +0.000 Cl
ATOM     12  C   UNL     1       5.262   6.450  16.826  0.00  0.00    +0.000 A 
ATOM     13  C   UNL     1       4.131   5.861  17.405  0.00  0.00    +0.000 A 
ENDBRANCH   6   7
BRANCH   1  16
ATOM     14  C   UNL     1       1.573   8.974  18.984  0.00  0.00    +0.000 A 
ATOM     15  C   UNL     1       1.984   7.634  18.930  0.00  0.00    +0.000 A 
ATOM     16  C   UNL     1       1.838   6.807  20.044  0.00  0.00    +0.000 A 
ATOM     17  C   UNL     1       1.504   7.377  21.269  0.00  0.00    +0.000 A 
ATOM     18  C   UNL     1       1.225   8.747  21.376  0.00  0.00    +0.000 A 
ATOM     19  C   UNL     1       1.226   9.563  20.222  0.00  0.00    +0.000 A 
BRANCH  14  21
ATOM     20  C   UNL     1       2.367  10.839  17.742  0.00  0.00    +0.000 C 
ATOM     21  O   UNL     1       1.500   9.703  17.823  0.00  0.00    +0.000 OA
ENDBRANCH  14  21
BRANCH  18  22
ATOM     22  O   UNL     1       0.927   9.081  22.675  0.00  0.00    +0.000 OA
ATOM     23  C   UNL     1      -0.422   9.282  23.060  0.00  0.00    +0.000 C 
ENDBRANCH  18  22
BRANCH  19  24
ATOM     24  O   UNL     1       0.881  10.872  20.418  0.00  0.00    +0.000 OA
ATOM     25  C   UNL     1      -0.434  11.329  20.154  0.00  0.00    +0.000 C 
ENDBRANCH  19  24
ENDBRANCH   1  16
TORSDOF 5
ENDMDL
MODEL 2
REMARK VINA RESULT:      -6.3      3.445      5.845
REMARK  Name = 
REMARK  8 active torsions:
REMARK  status: ('A' for Active; 'I' for Inactive)
REMARK    1  A    between atoms: C_1  and  O_2
REMARK    2  A    between atoms: O_2  and  C_3
REMARK    3  A    between atoms: C_5  and  C_6
REMARK    4  A    between atoms: N_11  and  C_12
REMARK    5  A    between atoms: C_20  and  O_21
REMARK    6  A    between atoms: O_21  and  C_22
REMARK    7  A    between atoms: C_23  and  O_24
REMARK    8  A    between atoms: O_24  and  C_25
REMARK                            x       y       z     vdW  Elec       q    Type
REMARK                         _______ _______ _______ _____ _____    ______ ____
ROOT
ATOM      1  C   UNL     1       3.969   3.515  18.378  0.00  0.00    +0.000 A 
ATOM      2  C   UNL     1       4.033   2.177  18.383  0.00  0.00    +0.000 A 
ATOM      3  S   UNL     1       2.612   1.465  19.047  0.00  0.00    +0.000 S 
ATOM      4  C   UNL     1       1.852   3.064  19.282  0.00  0.00    +0.000 A 
ATOM      5  S   UNL     1       0.249   3.144  19.752  0.00  0.00    +0.000 S 
ATOM      6  N   UNL     1       2.780   4.074  18.900  0.00  0.00    +0.000 N 
ENDROOT
BRANCH   6   7
ATOM      7  C   UNL     1       2.488   5.495  18.992  0.00  0.00    +0.000 A 
ATOM      8  C   UNL     1       2.215   6.131  20.214  0.00  0.00    +0.000 A 
ATOM      9  C   UNL     1       1.892   7.498  20.282  0.00  0.00    +0.000 A 
ATOM     10  C   UNL     1       1.890   8.275  19.132  0.00  0.00    +0.000 A 
ATOM     11 CL   UNL     1       1.494   9.946  19.205  0.00  0.00    +0.000 Cl
ATOM     12  C   UNL     1       2.194   7.693  17.916  0.00  0.00    +0.000 A 
ATOM     13  C   UNL     1       2.462   6.319  17.858  0.00  0.00    +0.000 A 
ENDBRANCH   6   7
BRANCH   1  16
ATOM     14  C   UNL     1       6.216   5.533  16.148  0.00  0.00    +0.000 A 
ATOM     15  C   UNL     1       5.339   4.521  16.566  0.00  0.00    +0.000 A 
ATOM     16  C   UNL     1       5.125   4.292  17.926  0.00  0.00    +0.000 A 
ATOM     17  C   UNL     1       5.958   4.911  18.854  0.00  0.00    +0.000 A 
ATOM     18  C   UNL     1       6.940   5.825  18.447  0.00  0.00    +0.000 A 
ATOM     19  C   UNL     1       7.063   6.173  17.083  0.00  0.00    +0.000 A 
BRANCH  14  21
ATOM     20  C   UNL     1       6.850   4.977  13.926  0.00  0.00    +0.000 C 
ATOM     21  O   UNL     1       6.233   5.903  14.826  0.00  0.00    +0.000 OA
ENDBRANCH  14  21
BRANCH  18  22
ATOM     22  O   UNL     1       7.639   6.301  19.530  0.00  0.00    +0.000 OA
ATOM     23  C   UNL     1       8.403   5.409  20.323  0.00  0.00    +0.000 C 
ENDBRANCH  18  22
BRANCH  19  24
ATOM     24  O   UNL     1       8.007   7.119  16.792  0.00  0.00    +0.000 OA
ATOM     25  C   UNL     1       7.995   8.385  17.427  0.00  0.00    +0.000 C 
ENDBRANCH  19  24
ENDBRANCH   1  16
TORSDOF 5
ENDMDL
MODEL 3
REMARK VINA RESULT:      -6.3      0.605      1.164
REMARK  Name = 
REMARK  8 active torsions:
REMARK  status: ('A' for Active; 'I' for Inactive)
REMARK    1  A    between atoms: C_1  and  O_2
REMARK    2  A    between atoms: O_2  and  C_3
REMARK    3  A    between atoms: C_5  and  C_6
REMARK    4  A    between atoms: N_11  and  C_12
REMARK    5  A    between atoms: C_20  and  O_21
REMARK    6  A    between atoms: O_21  and  C_22
REMARK    7  A    between atoms: C_23  and  O_24
REMARK    8  A    between atoms: O_24  and  C_25
REMARK                            x       y       z     vdW  Elec       q    Type
REMARK                         _______ _______ _______ _____ _____    ______ ____
ROOT
ATOM      1  C   UNL     1       1.902   5.530  20.017  0.00  0.00    +0.000 A 
ATOM      2  C   UNL     1       0.913   4.770  20.507  0.00  0.00    +0.000 A 
ATOM      3  S   UNL     1       1.173   3.095  20.197  0.00  0.00    +0.000 S 
ATOM      4  C   UNL     1       2.741   3.426  19.408  0.00  0.00    +0.000 A 
ATOM      5  S   UNL     1       3.731   2.144  18.989  0.00  0.00    +0.000 S 
ATOM      6  N   UNL     1       2.943   4.835  19.361  0.00  0.00    +0.000 N 
ENDROOT
BRANCH   6   7
ATOM      7  C   UNL     1       4.114   5.448  18.757  0.00  0.00    +0.000 A 
ATOM      8  C   UNL     1       4.056   6.149  17.541  0.00  0.00    +0.000 A 
ATOM      9  C   UNL     1       5.206   6.699  16.948  0.00  0.00    +0.000 A 
ATOM     10  C   UNL     1       6.435   6.611  17.587  0.00  0.00    +0.000 A 
ATOM     11 CL   UNL     1       7.845   7.279  16.867  0.00  0.00    +0.000 Cl
ATOM     12  C   UNL     1       6.523   5.965  18.805  0.00  0.00    +0.000 A 
ATOM     13  C   UNL     1       5.379   5.376  19.357  0.00  0.00    +0.000 A 
ENDBRANCH   6   7
BRANCH   1  16
ATOM     14  C   UNL     1       1.271   9.102  19.047  0.00  0.00    +0.000 A 
ATOM     15  C   UNL     1       1.710   7.772  18.963  0.00  0.00    +0.000 A 
ATOM     16  C   UNL     1       1.807   6.989  20.114  0.00  0.00    +0.000 A 
ATOM     17  C   UNL     1       1.694   7.600  21.358  0.00  0.00    +0.000 A 
ATOM     18  C   UNL     1       1.394   8.966  21.468  0.00  0.00    +0.000 A 
ATOM     19  C   UNL     1       1.147   9.733  20.307  0.00  0.00    +0.000 A 
BRANCH  14  21
ATOM     20  C   UNL     1      -0.436   9.817  17.557  0.00  0.00    +0.000 C 
ATOM     21  O   UNL     1       0.953   9.779  17.896  0.00  0.00    +0.000 OA
ENDBRANCH  14  21
BRANCH  18  22
ATOM     22  O   UNL     1       1.339   9.346  22.787  0.00  0.00    +0.000 OA
ATOM     23  C   UNL     1       0.089   9.403  23.452  0.00  0.00    +0.000 C 
ENDBRANCH  18  22
BRANCH  19  24
ATOM     24  O   UNL     1       0.802  11.039  20.518  0.00  0.00    +0.000 OA
ATOM     25  C   UNL     1      -0.555  11.423  20.659  0.00  0.00    +0.000 C 
ENDBRANCH  19  24
ENDBRANCH   1  16
TORSDOF 5
ENDMDL
MODEL 4
REMARK VINA RESULT:      -6.2      7.147      9.902
REMARK  Name = 
REMARK  8 active torsions:
REMARK  status: ('A' for Active; 'I' for Inactive)
REMARK    1  A    between atoms: C_1  and  O_2
REMARK    2  A    between atoms: O_2  and  C_3
REMARK    3  A    between atoms: C_5  and  C_6
REMARK    4  A    between atoms: N_11  and  C_12
REMARK    5  A    between atoms: C_20  and  O_21
REMARK    6  A    between atoms: O_21  and  C_22
REMARK    7  A    between atoms: C_23  and  O_24
REMARK    8  A    between atoms: O_24  and  C_25
REMARK                            x       y       z     vdW  Elec       q    Type
REMARK                         _______ _______ _______ _____ _____    ______ ____
ROOT
ATOM      1  C   UNL     1      -3.067  14.277  21.582  0.00  0.00    +0.000 A 
ATOM      2  C   UNL     1      -3.305  15.593  21.670  0.00  0.00    +0.000 A 
ATOM      3  S   UNL     1      -1.868  16.490  21.983  0.00  0.00    +0.000 S 
ATOM      4  C   UNL     1      -0.867  15.011  21.937  0.00  0.00    +0.000 A 
ATOM      5  S   UNL     1       0.800  15.151  21.978  0.00  0.00    +0.000 S 
ATOM      6  N   UNL     1      -1.719  13.885  21.754  0.00  0.00    +0.000 N 
ENDROOT
BRANCH   6   7
ATOM      7  C   UNL     1      -1.228  12.518  21.698  0.00  0.00    +0.000 A 
ATOM      8  C   UNL     1      -0.827  11.910  20.498  0.00  0.00    +0.000 A 
ATOM      9  C   UNL     1      -0.395  10.572  20.454  0.00  0.00    +0.000 A 
ATOM     10  C   UNL     1      -0.301   9.827  21.621  0.00  0.00    +0.000 A 
ATOM     11 CL   UNL     1       0.223   8.191  21.576  0.00  0.00    +0.000 Cl
ATOM     12  C   UNL     1      -0.649  10.406  22.827  0.00  0.00    +0.000 A 
ATOM     13  C   UNL     1      -1.127  11.721  22.848  0.00  0.00    +0.000 A 
ENDBRANCH   6   7
BRANCH   1  16
ATOM     14  C   UNL     1      -6.214  12.360  22.295  0.00  0.00    +0.000 A 
ATOM     15  C   UNL     1      -4.955  12.946  22.494  0.00  0.00    +0.000 A 
ATOM     16  C   UNL     1      -4.187  13.351  21.402  0.00  0.00    +0.000 A 
ATOM     17  C   UNL     1      -4.571  12.959  20.123  0.00  0.00    +0.000 A 
ATOM     18  C   UNL     1      -5.759  12.245  19.912  0.00  0.00    +0.000 A 
ATOM     19  C   UNL     1      -6.617  11.961  20.999  0.00  0.00    +0.000 A 
BRANCH  14  21
ATOM     20  C   UNL     1      -7.735  13.361  23.822  0.00  0.00    +0.000 C 
ATOM     21  O   UNL     1      -7.053  12.188  23.367  0.00  0.00    +0.000 OA
ENDBRANCH  14  21
BRANCH  18  22
ATOM     22  O   UNL     1      -5.926  11.964  18.578  0.00  0.00    +0.000 OA
ATOM     23  C   UNL     1      -4.958  11.187  17.895  0.00  0.00    +0.000 C 
ENDBRANCH  18  22
BRANCH  19  24
ATOM     24  O   UNL     1      -7.782  11.316  20.685  0.00  0.00    +0.000 OA
ATOM     25  C   UNL     1      -7.900   9.911  20.822  0.00  0.00    +0.000 C 
ENDBRANCH  19  24
ENDBRANCH   1  16
TORSDOF 5
ENDMDL
MODEL 5
REMARK VINA RESULT:      -6.1      6.388      8.438
REMARK  Name = 
REMARK  8 active torsions:
REMARK  status: ('A' for Active; 'I' for Inactive)
REMARK    1  A    between atoms: C_1  and  O_2
REMARK    2  A    between atoms: O_2  and  C_3
REMARK    3  A    between atoms: C_5  and  C_6
REMARK    4  A    between atoms: N_11  and  C_12
REMARK    5  A    between atoms: C_20  and  O_21
REMARK    6  A    between atoms: O_21  and  C_22
REMARK    7  A    between atoms: C_23  and  O_24
REMARK    8  A    between atoms: O_24  and  C_25
REMARK                            x       y       z     vdW  Elec       q    Type
REMARK                         _______ _______ _______ _____ _____    ______ ____
ROOT
ATOM      1  C   UNL     1      -3.143  12.497  20.374  0.00  0.00    +0.000 A 
ATOM      2  C   UNL     1      -3.661  12.987  21.508  0.00  0.00    +0.000 A 
ATOM      3  S   UNL     1      -5.380  12.882  21.532  0.00  0.00    +0.000 S 
ATOM      4  C   UNL     1      -5.410  12.074  19.939  0.00  0.00    +0.000 A 
ATOM      5  S   UNL     1      -6.853  11.454  19.364  0.00  0.00    +0.000 S 
ATOM      6  N   UNL     1      -4.078  11.997  19.438  0.00  0.00    +0.000 N 
ENDROOT
BRANCH   6   7
ATOM      7  C   UNL     1      -3.748  11.418  18.147  0.00  0.00    +0.000 A 
ATOM      8  C   UNL     1      -2.754  10.438  17.992  0.00  0.00    +0.000 A 
ATOM      9  C   UNL     1      -2.417   9.920  16.729  0.00  0.00    +0.000 A 
ATOM     10  C   UNL     1      -3.106  10.329  15.596  0.00  0.00    +0.000 A 
ATOM     11 CL   UNL     1      -2.698   9.702  14.049  0.00  0.00    +0.000 Cl
ATOM     12  C   UNL     1      -4.118  11.262  15.716  0.00  0.00    +0.000 A 
ATOM     13  C   UNL     1      -4.407  11.808  16.972  0.00  0.00    +0.000 A 
ENDBRANCH   6   7
BRANCH   1  16
ATOM     14  C   UNL     1       0.198  13.876  19.359  0.00  0.00    +0.000 A 
ATOM     15  C   UNL     1      -1.170  13.567  19.310  0.00  0.00    +0.000 A 
ATOM     16  C   UNL     1      -1.699  12.581  20.144  0.00  0.00    +0.000 A 
ATOM     17  C   UNL     1      -0.830  11.753  20.847  0.00  0.00    +0.000 A 
ATOM     18  C   UNL     1       0.557  11.955  20.800  0.00  0.00    +0.000 A 
ATOM     19  C   UNL     1       1.090  13.045  20.076  0.00  0.00    +0.000 A 
BRANCH  14  21
ATOM     20  C   UNL     1      -0.238  16.114  18.690  0.00  0.00    +0.000 C 
ATOM     21  O   UNL     1       0.657  14.998  18.716  0.00  0.00    +0.000 OA
ENDBRANCH  14  21
BRANCH  18  22
ATOM     22  O   UNL     1       1.209  11.018  21.564  0.00  0.00    +0.000 OA
ATOM     23  C   UNL     1       0.889   9.645  21.422  0.00  0.00    +0.000 C 
ENDBRANCH  18  22
BRANCH  19  24
ATOM     24  O   UNL     1       2.448  13.196  20.140  0.00  0.00    +0.000 OA
ATOM     25  C   UNL     1       3.043  14.067  21.086  0.00  0.00    +0.000 C 
ENDBRANCH  19  24
ENDBRANCH   1  16
TORSDOF 5
ENDMDL
MODEL 6
REMARK VINA RESULT:      -6.0      6.398      8.300
REMARK  Name = 
REMARK  8 active torsions:
REMARK  status: ('A' for Active; 'I' for Inactive)
REMARK    1  A    between atoms: C_1  and  O_2
REMARK    2  A    between atoms: O_2  and  C_3
REMARK    3  A    between atoms: C_5  and  C_6
REMARK    4  A    between atoms: N_11  and  C_12
REMARK    5  A    between atoms: C_20  and  O_21
REMARK    6  A    between atoms: O_21  and  C_22
REMARK    7  A    between atoms: C_23  and  O_24
REMARK    8  A    between atoms: O_24  and  C_25
REMARK                            x       y       z     vdW  Elec       q    Type
REMARK                         _______ _______ _______ _____ _____    ______ ____
ROOT
ATOM      1  C   UNL     1       0.736  14.024  21.300  0.00  0.00    +0.000 A 
ATOM      2  C   UNL     1       1.594  14.909  21.827  0.00  0.00    +0.000 A 
ATOM      3  S   UNL     1       2.936  15.203  20.789  0.00  0.00    +0.000 S 
ATOM      4  C   UNL     1       2.279  14.113  19.535  0.00  0.00    +0.000 A 
ATOM      5  S   UNL     1       3.023  14.049  18.038  0.00  0.00    +0.000 S 
ATOM      6  N   UNL     1       1.082  13.517  20.026  0.00  0.00    +0.000 N 
ENDROOT
BRANCH   6   7
ATOM      7  C   UNL     1       0.305  12.555  19.264  0.00  0.00    +0.000 A 
ATOM      8  C   UNL     1       0.656  11.197  19.184  0.00  0.00    +0.000 A 
ATOM      9  C   UNL     1      -0.082  10.287  18.406  0.00  0.00    +0.000 A 
ATOM     10  C   UNL     1      -1.224  10.702  17.736  0.00  0.00    +0.000 A 
ATOM     11 CL   UNL     1      -2.130   9.596  16.782  0.00  0.00    +0.000 Cl
ATOM     12  C   UNL     1      -1.624  12.022  17.825  0.00  0.00    +0.000 A 
ATOM     13  C   UNL     1      -0.849  12.928  18.560  0.00  0.00    +0.000 A 
ENDBRANCH   6   7
BRANCH   1  16
ATOM     14  C   UNL     1      -2.730  13.961  22.742  0.00  0.00    +0.000 A 
ATOM     15  C   UNL     1      -1.490  14.459  22.314  0.00  0.00    +0.000 A 
ATOM     16  C   UNL     1      -0.424  13.589  22.081  0.00  0.00    +0.000 A 
ATOM     17  C   UNL     1      -0.529  12.266  22.499  0.00  0.00    +0.000 A 
ATOM     18  C   UNL     1      -1.716  11.778  23.063  0.00  0.00    +0.000 A 
ATOM     19  C   UNL     1      -2.849  12.617  23.165  0.00  0.00    +0.000 A 
BRANCH  14  21
ATOM     20  C   UNL     1      -4.418  15.031  21.456  0.00  0.00    +0.000 C 
ATOM     21  O   UNL     1      -3.825  14.788  22.736  0.00  0.00    +0.000 OA
ENDBRANCH  14  21
BRANCH  18  22
ATOM     22  O   UNL     1      -1.583  10.453  23.403  0.00  0.00    +0.000 OA
ATOM     23  C   UNL     1      -0.357   9.784  23.165  0.00  0.00    +0.000 C 
ENDBRANCH  18  22
BRANCH  19  24
ATOM     24  O   UNL     1      -3.979  12.034  23.670  0.00  0.00    +0.000 OA
ATOM     25  C   UNL     1      -4.514  12.437  24.918  0.00  0.00    +0.000 C 
ENDBRANCH  19  24
ENDBRANCH   1  16
TORSDOF 5
ENDMDL
MODEL 7
REMARK VINA RESULT:      -5.9      5.597      8.200
REMARK  Name = 
REMARK  8 active torsions:
REMARK  status: ('A' for Active; 'I' for Inactive)
REMARK    1  A    between atoms: C_1  and  O_2
REMARK    2  A    between atoms: O_2  and  C_3
REMARK    3  A    between atoms: C_5  and  C_6
REMARK    4  A    between atoms: N_11  and  C_12
REMARK    5  A    between atoms: C_20  and  O_21
REMARK    6  A    between atoms: O_21  and  C_22
REMARK    7  A    between atoms: C_23  and  O_24
REMARK    8  A    between atoms: O_24  and  C_25
REMARK                            x       y       z     vdW  Elec       q    Type
REMARK                         _______ _______ _______ _____ _____    ______ ____
ROOT
ATOM      1  C   UNL     1      -1.012  13.452  19.849  0.00  0.00    +0.000 A 
ATOM      2  C   UNL     1      -1.052  14.790  19.792  0.00  0.00    +0.000 A 
ATOM      3  S   UNL     1       0.446  15.502  20.255  0.00  0.00    +0.000 S 
ATOM      4  C   UNL     1       1.201  13.900  20.487  0.00  0.00    +0.000 A 
ATOM      5  S   UNL     1       2.845  13.807  20.780  0.00  0.00    +0.000 S 
ATOM      6  N   UNL     1       0.219  12.892  20.264  0.00  0.00    +0.000 N 
ENDROOT
BRANCH   6   7
ATOM      7  C   UNL     1       0.495  11.472  20.397  0.00  0.00    +0.000 A 
ATOM      8  C   UNL     1       1.020  10.704  19.344  0.00  0.00    +0.000 A 
ATOM      9  C   UNL     1       1.240   9.321  19.475  0.00  0.00    +0.000 A 
ATOM     10  C   UNL     1       0.993   8.683  20.683  0.00  0.00    +0.000 A 
ATOM     11 CL   UNL     1       1.258   6.994  20.851  0.00  0.00    +0.000 Cl
ATOM     12  C   UNL     1       0.516   9.415  21.754  0.00  0.00    +0.000 A 
ATOM     13  C   UNL     1       0.251  10.780  21.592  0.00  0.00    +0.000 A 
ENDBRANCH   6   7
BRANCH   1  16
ATOM     14  C   UNL     1      -4.622  12.424  19.843  0.00  0.00    +0.000 A 
ATOM     15  C   UNL     1      -3.385  12.885  20.317  0.00  0.00    +0.000 A 
ATOM     16  C   UNL     1      -2.224  12.679  19.570  0.00  0.00    +0.000 A 
ATOM     17  C   UNL     1      -2.267  11.816  18.480  0.00  0.00    +0.000 A 
ATOM     18  C   UNL     1      -3.472  11.228  18.070  0.00  0.00    +0.000 A 
ATOM     19  C   UNL     1      -4.679  11.550  18.732  0.00  0.00    +0.000 A 
BRANCH  14  21
ATOM     20  C   UNL     1      -5.644  13.230  21.832  0.00  0.00    +0.000 C 
ATOM     21  O   UNL     1      -5.775  12.838  20.462  0.00  0.00    +0.000 OA
ENDBRANCH  14  21
BRANCH  18  22
ATOM     22  O   UNL     1      -3.270  10.414  16.982  0.00  0.00    +0.000 OA
ATOM     23  C   UNL     1      -2.936  10.984  15.728  0.00  0.00    +0.000 C 
ENDBRANCH  18  22
BRANCH  19  24
ATOM     24  O   UNL     1      -5.810  10.976  18.222  0.00  0.00    +0.000 OA
ATOM     25  C   UNL     1      -6.545  10.020  18.967  0.00  0.00    +0.000 C 
ENDBRANCH  19  24
ENDBRANCH   1  16
TORSDOF 5
ENDMDL
MODEL 8
REMARK VINA RESULT:      -5.9      5.609      8.128
REMARK  Name = 
REMARK  8 active torsions:
REMARK  status: ('A' for Active; 'I' for Inactive)
REMARK    1  A    between atoms: C_1  and  O_2
REMARK    2  A    between atoms: O_2  and  C_3
REMARK    3  A    between atoms: C_5  and  C_6
REMARK    4  A    between atoms: N_11  and  C_12
REMARK    5  A    between atoms: C_20  and  O_21
REMARK    6  A    between atoms: O_21  and  C_22
REMARK    7  A    between atoms: C_23  and  O_24
REMARK    8  A    between atoms: O_24  and  C_25
REMARK                            x       y       z     vdW  Elec       q    Type
REMARK                         _______ _______ _______ _____ _____    ______ ____
ROOT
ATOM      1  C   UNL     1      -0.942  13.466  19.922  0.00  0.00    +0.000 A 
ATOM      2  C   UNL     1      -0.970  14.805  19.886  0.00  0.00    +0.000 A 
ATOM      3  S   UNL     1       0.534  15.496  20.363  0.00  0.00    +0.000 S 
ATOM      4  C   UNL     1       1.274  13.883  20.571  0.00  0.00    +0.000 A 
ATOM      5  S   UNL     1       2.917  13.770  20.864  0.00  0.00    +0.000 S 
ATOM      6  N   UNL     1       0.283  12.889  20.329  0.00  0.00    +0.000 N 
ENDROOT
BRANCH   6   7
ATOM      7  C   UNL     1       0.545  11.464  20.440  0.00  0.00    +0.000 A 
ATOM      8  C   UNL     1       0.361  10.754  21.638  0.00  0.00    +0.000 A 
ATOM      9  C   UNL     1       0.661   9.384  21.741  0.00  0.00    +0.000 A 
ATOM     10  C   UNL     1       1.101   8.678  20.630  0.00  0.00    +0.000 A 
ATOM     11 CL   UNL     1       1.472   7.004  20.747  0.00  0.00    +0.000 Cl
ATOM     12  C   UNL     1       1.255   9.334  19.423  0.00  0.00    +0.000 A 
ATOM     13  C   UNL     1       1.003  10.709  19.350  0.00  0.00    +0.000 A 
ENDBRANCH   6   7
BRANCH   1  16
ATOM     14  C   UNL     1      -4.497  12.278  20.126  0.00  0.00    +0.000 A 
ATOM     15  C   UNL     1      -3.221  12.691  20.536  0.00  0.00    +0.000 A 
ATOM     16  C   UNL     1      -2.161  12.709  19.629  0.00  0.00    +0.000 A 
ATOM     17  C   UNL     1      -2.323  12.097  18.389  0.00  0.00    +0.000 A 
ATOM     18  C   UNL     1      -3.556  11.548  18.009  0.00  0.00    +0.000 A 
ATOM     19  C   UNL     1      -4.675  11.660  18.866  0.00  0.00    +0.000 A 
BRANCH  14  21
ATOM     20  C   UNL     1      -5.432  13.558  21.896  0.00  0.00    +0.000 C 
ATOM     21  O   UNL     1      -5.571  12.491  20.953  0.00  0.00    +0.000 OA
ENDBRANCH  14  21
BRANCH  18  22
ATOM     22  O   UNL     1      -3.475  10.997  16.754  0.00  0.00    +0.000 OA
ATOM     23  C   UNL     1      -2.622   9.890  16.523  0.00  0.00    +0.000 C 
ENDBRANCH  18  22
BRANCH  19  24
ATOM     24  O   UNL     1      -5.848  11.150  18.382  0.00  0.00    +0.000 OA
ATOM     25  C   UNL     1      -6.785  11.977  17.714  0.00  0.00    +0.000 C 
ENDBRANCH  19  24
ENDBRANCH   1  16
TORSDOF 5
ENDMDL
MODEL 9
REMARK VINA RESULT:      -5.9      6.157      8.748
REMARK  Name = 
REMARK  8 active torsions:
REMARK  status: ('A' for Active; 'I' for Inactive)
REMARK    1  A    between atoms: C_1  and  O_2
REMARK    2  A    between atoms: O_2  and  C_3
REMARK    3  A    between atoms: C_5  and  C_6
REMARK    4  A    between atoms: N_11  and  C_12
REMARK    5  A    between atoms: C_20  and  O_21
REMARK    6  A    between atoms: O_21  and  C_22
REMARK    7  A    between atoms: C_23  and  O_24
REMARK    8  A    between atoms: O_24  and  C_25
REMARK                            x       y       z     vdW  Elec       q    Type
REMARK                         _______ _______ _______ _____ _____    ______ ____
ROOT
ATOM      1  C   UNL     1      -3.485  12.542  20.686  0.00  0.00    +0.000 A 
ATOM      2  C   UNL     1      -4.069  12.967  21.814  0.00  0.00    +0.000 A 
ATOM      3  S   UNL     1      -5.783  12.801  21.756  0.00  0.00    +0.000 S 
ATOM      4  C   UNL     1      -5.713  12.058  20.133  0.00  0.00    +0.000 A 
ATOM      5  S   UNL     1      -7.106  11.411  19.471  0.00  0.00    +0.000 S 
ATOM      6  N   UNL     1      -4.359  12.048  19.690  0.00  0.00    +0.000 N 
ENDROOT
BRANCH   6   7
ATOM      7  C   UNL     1      -3.953  11.534  18.394  0.00  0.00    +0.000 A 
ATOM      8  C   UNL     1      -4.585  11.915  17.199  0.00  0.00    +0.000 A 
ATOM      9  C   UNL     1      -4.208  11.375  15.957  0.00  0.00    +0.000 A 
ATOM     10  C   UNL     1      -3.150  10.481  15.873  0.00  0.00    +0.000 A 
ATOM     11 CL   UNL     1      -2.684   9.814  14.359  0.00  0.00    +0.000 Cl
ATOM     12  C   UNL     1      -2.476  10.114  17.023  0.00  0.00    +0.000 A 
ATOM     13  C   UNL     1      -2.898  10.620  18.259  0.00  0.00    +0.000 A 
ENDBRANCH   6   7
BRANCH   1  16
ATOM     14  C   UNL     1       0.166  11.672  20.625  0.00  0.00    +0.000 A 
ATOM     15  C   UNL     1      -1.165  11.740  21.064  0.00  0.00    +0.000 A 
ATOM     16  C   UNL     1      -2.036  12.686  20.524  0.00  0.00    +0.000 A 
ATOM     17  C   UNL     1      -1.520  13.704  19.729  0.00  0.00    +0.000 A 
ATOM     18  C   UNL     1      -0.159  13.738  19.391  0.00  0.00    +0.000 A 
ATOM     19  C   UNL     1       0.701  12.699  19.812  0.00  0.00    +0.000 A 
BRANCH  14  21
ATOM     20  C   UNL     1       0.862   9.456  20.120  0.00  0.00    +0.000 C 
ATOM     21  O   UNL     1       0.938  10.595  20.983  0.00  0.00    +0.000 OA
ENDBRANCH  14  21
BRANCH  18  22
ATOM     22  O   UNL     1       0.120  14.831  18.607  0.00  0.00    +0.000 OA
ATOM     23  C   UNL     1       0.070  16.132  19.168  0.00  0.00    +0.000 C 
ENDBRANCH  18  22
BRANCH  19  24
ATOM     24  O   UNL     1       1.996  12.786  19.381  0.00  0.00    +0.000 OA
ATOM     25  C   UNL     1       2.391  12.241  18.134  0.00  0.00    +0.000 C 
ENDBRANCH  19  24
ENDBRANCH   1  16
TORSDOF 5
ENDMDL
