MODEL 1
REMARK VINA RESULT:      -6.5      0.000      0.000
REMARK  Name = 
REMARK  4 active torsions:
REMARK  status: ('A' for Active; 'I' for Inactive)
REMARK    1  A    between atoms: C_1  and  C_2
REMARK    2  A    between atoms: C_2  and  O_3
REMARK    3  A    between atoms: O_3  and  C_4
REMARK    4  A    between atoms: N_6  and  C_7
REMARK                            x       y       z     vdW  Elec       q    Type
REMARK                         _______ _______ _______ _____ _____    ______ ____
ROOT
ATOM      1  C   UNL     1       4.761   4.632  17.847  0.00  0.00    +0.000 A 
ATOM      2  C   UNL     1       4.329   3.449  17.232  0.00  0.00    +0.000 A 
ATOM      3  C   UNL     1       3.374   2.634  17.839  0.00  0.00    +0.000 A 
ATOM      4  C   UNL     1       2.838   2.996  19.065  0.00  0.00    +0.000 A 
ATOM      5  C   UNL     1       3.281   4.157  19.707  0.00  0.00    +0.000 A 
ATOM      6  C   UNL     1       4.240   4.975  19.100  0.00  0.00    +0.000 A 
ATOM      7  O   UNL     1       2.808   4.558  20.930  0.00  0.00    +0.000 OA
ATOM      8  C   UNL     1       2.091   3.503  21.589  0.00  0.00    +0.000 C 
ATOM      9  C   UNL     1       1.152   2.791  20.631  0.00  0.00    +0.000 C 
ATOM     10  O   UNL     1       1.889   2.156  19.582  0.00  0.00    +0.000 OA
ENDROOT
BRANCH   1  13
ATOM     11  C   UNL     1       7.083   5.362  17.396  0.00  0.00    +0.000 C 
ATOM     12  O   UNL     1       7.702   4.442  17.912  0.00  0.00    +0.000 OA
ATOM     13  N   UNL     1       5.727   5.477  17.263  0.00  0.00    +0.000 N 
ATOM     14  H   UNL     1       5.418   6.261  16.710  0.00  0.00    +0.000 HD
BRANCH  11  15
ATOM     15  O   UNL     1       7.684   6.476  16.894  0.00  0.00    +0.000 OA
BRANCH  15  17
ATOM     16  C   UNL     1       8.201   8.579  17.936  0.00  0.00    +0.000 C 
ATOM     17  C   UNL     1       7.101   7.706  17.353  0.00  0.00    +0.000 C 
ENDBRANCH  15  17
ENDBRANCH  11  15
ENDBRANCH   1  13
TORSDOF 3
ENDMDL
MODEL 2
REMARK VINA RESULT:      -6.5      2.334      6.133
REMARK  Name = 
REMARK  4 active torsions:
REMARK  status: ('A' for Active; 'I' for Inactive)
REMARK    1  A    between atoms: C_1  and  C_2
REMARK    2  A    between atoms: C_2  and  O_3
REMARK    3  A    between atoms: O_3  and  C_4
REMARK    4  A    between atoms: N_6  and  C_7
REMARK                            x       y       z     vdW  Elec       q    Type
REMARK                         _______ _______ _______ _____ _____    ______ ____
ROOT
ATOM      1  C   UNL     1       5.126   4.181  18.293  0.00  0.00    +0.000 A 
ATOM      2  C   UNL     1       6.434   4.627  18.524  0.00  0.00    +0.000 A 
ATOM      3  C   UNL     1       7.310   4.855  17.463  0.00  0.00    +0.000 A 
ATOM      4  C   UNL     1       6.884   4.646  16.160  0.00  0.00    +0.000 A 
ATOM      5  C   UNL     1       5.591   4.172  15.914  0.00  0.00    +0.000 A 
ATOM      6  C   UNL     1       4.713   3.940  16.978  0.00  0.00    +0.000 A 
ATOM      7  O   UNL     1       5.118   3.923  14.651  0.00  0.00    +0.000 OA
ATOM      8  C   UNL     1       6.181   3.884  13.688  0.00  0.00    +0.000 C 
ATOM      9  C   UNL     1       7.159   5.027  13.899  0.00  0.00    +0.000 C 
ATOM     10  O   UNL     1       7.795   4.917  15.175  0.00  0.00    +0.000 OA
ENDROOT
BRANCH   1  13
ATOM     11  C   UNL     1       4.144   2.798  20.097  0.00  0.00    +0.000 C 
ATOM     12  O   UNL     1       4.931   1.861  20.103  0.00  0.00    +0.000 OA
ATOM     13  N   UNL     1       4.216   3.936  19.342  0.00  0.00    +0.000 N 
ATOM     14  H   UNL     1       3.527   4.638  19.563  0.00  0.00    +0.000 HD
BRANCH  11  15
ATOM     15  O   UNL     1       3.009   2.822  20.848  0.00  0.00    +0.000 OA
BRANCH  15  17
ATOM     16  C   UNL     1       0.839   3.683  20.278  0.00  0.00    +0.000 C 
ATOM     17  C   UNL     1       1.815   2.531  20.103  0.00  0.00    +0.000 C 
ENDBRANCH  15  17
ENDBRANCH  11  15
ENDBRANCH   1  13
TORSDOF 3
ENDMDL
MODEL 3
REMARK VINA RESULT:      -6.5      1.866      2.771
REMARK  Name = 
REMARK  4 active torsions:
REMARK  status: ('A' for Active; 'I' for Inactive)
REMARK    1  A    between atoms: C_1  and  C_2
REMARK    2  A    between atoms: C_2  and  O_3
REMARK    3  A    between atoms: O_3  and  C_4
REMARK    4  A    between atoms: N_6  and  C_7
REMARK                            x       y       z     vdW  Elec       q    Type
REMARK                         _______ _______ _______ _____ _____    ______ ____
ROOT
ATOM      1  C   UNL     1       4.948   4.654  17.214  0.00  0.00    +0.000 A 
ATOM      2  C   UNL     1       5.019   5.391  18.403  0.00  0.00    +0.000 A 
ATOM      3  C   UNL     1       4.146   5.133  19.460  0.00  0.00    +0.000 A 
ATOM      4  C   UNL     1       3.197   4.130  19.339  0.00  0.00    +0.000 A 
ATOM      5  C   UNL     1       3.091   3.405  18.148  0.00  0.00    +0.000 A 
ATOM      6  C   UNL     1       3.965   3.665  17.087  0.00  0.00    +0.000 A 
ATOM      7  O   UNL     1       2.159   2.418  17.958  0.00  0.00    +0.000 OA
ATOM      8  C   UNL     1       1.134   2.460  18.961  0.00  0.00    +0.000 C 
ATOM      9  C   UNL     1       1.725   2.662  20.346  0.00  0.00    +0.000 C 
ATOM     10  O   UNL     1       2.395   3.922  20.429  0.00  0.00    +0.000 OA
ENDROOT
BRANCH   1  13
ATOM     11  C   UNL     1       7.176   4.797  16.145  0.00  0.00    +0.000 C 
ATOM     12  O   UNL     1       7.876   4.357  17.046  0.00  0.00    +0.000 OA
ATOM     13  N   UNL     1       5.811   4.891  16.125  0.00  0.00    +0.000 N 
ATOM     14  H   UNL     1       5.417   5.182  15.245  0.00  0.00    +0.000 HD
BRANCH  11  15
ATOM     15  O   UNL     1       7.683   5.318  14.994  0.00  0.00    +0.000 OA
BRANCH  15  17
ATOM     16  C   UNL     1       7.856   5.270  12.597  0.00  0.00    +0.000 C 
ATOM     17  C   UNL     1       7.044   4.828  13.804  0.00  0.00    +0.000 C 
ENDBRANCH  15  17
ENDBRANCH  11  15
ENDBRANCH   1  13
TORSDOF 3
ENDMDL
MODEL 4
REMARK VINA RESULT:      -6.4      1.083      1.103
REMARK  Name = 
REMARK  4 active torsions:
REMARK  status: ('A' for Active; 'I' for Inactive)
REMARK    1  A    between atoms: C_1  and  C_2
REMARK    2  A    between atoms: C_2  and  O_3
REMARK    3  A    between atoms: O_3  and  C_4
REMARK    4  A    between atoms: N_6  and  C_7
REMARK                            x       y       z     vdW  Elec       q    Type
REMARK                         _______ _______ _______ _____ _____    ______ ____
ROOT
ATOM      1  C   UNL     1       5.220   5.183  18.295  0.00  0.00    +0.000 A 
ATOM      2  C   UNL     1       4.846   4.227  17.341  0.00  0.00    +0.000 A 
ATOM      3  C   UNL     1       3.707   3.442  17.521  0.00  0.00    +0.000 A 
ATOM      4  C   UNL     1       2.926   3.612  18.654  0.00  0.00    +0.000 A 
ATOM      5  C   UNL     1       3.301   4.540  19.630  0.00  0.00    +0.000 A 
ATOM      6  C   UNL     1       4.445   5.326  19.452  0.00  0.00    +0.000 A 
ATOM      7  O   UNL     1       2.585   4.739  20.783  0.00  0.00    +0.000 OA
ATOM      8  C   UNL     1       1.642   3.680  21.007  0.00  0.00    +0.000 C 
ATOM      9  C   UNL     1       0.903   3.320  19.730  0.00  0.00    +0.000 C 
ATOM     10  O   UNL     1       1.812   2.822  18.744  0.00  0.00    +0.000 OA
ENDROOT
BRANCH   1  13
ATOM     11  C   UNL     1       7.490   5.941  18.924  0.00  0.00    +0.000 C 
ATOM     12  O   UNL     1       7.765   5.112  19.781  0.00  0.00    +0.000 OA
ATOM     13  N   UNL     1       6.367   5.989  18.146  0.00  0.00    +0.000 N 
ATOM     14  H   UNL     1       6.379   6.691  17.423  0.00  0.00    +0.000 HD
BRANCH  11  15
ATOM     15  O   UNL     1       8.285   7.010  18.641  0.00  0.00    +0.000 OA
BRANCH  15  17
ATOM     16  C   UNL     1       8.241   9.316  17.964  0.00  0.00    +0.000 C 
ATOM     17  C   UNL     1       7.716   7.917  17.683  0.00  0.00    +0.000 C 
ENDBRANCH  15  17
ENDBRANCH  11  15
ENDBRANCH   1  13
TORSDOF 3
ENDMDL
MODEL 5
REMARK VINA RESULT:      -6.4      2.170      3.162
REMARK  Name = 
REMARK  4 active torsions:
REMARK  status: ('A' for Active; 'I' for Inactive)
REMARK    1  A    between atoms: C_1  and  C_2
REMARK    2  A    between atoms: C_2  and  O_3
REMARK    3  A    between atoms: O_3  and  C_4
REMARK    4  A    between atoms: N_6  and  C_7
REMARK                            x       y       z     vdW  Elec       q    Type
REMARK                         _______ _______ _______ _____ _____    ______ ____
ROOT
ATOM      1  C   UNL     1       4.529   4.493  17.013  0.00  0.00    +0.000 A 
ATOM      2  C   UNL     1       4.226   5.780  17.476  0.00  0.00    +0.000 A 
ATOM      3  C   UNL     1       3.464   5.966  18.629  0.00  0.00    +0.000 A 
ATOM      4  C   UNL     1       3.003   4.865  19.334  0.00  0.00    +0.000 A 
ATOM      5  C   UNL     1       3.270   3.573  18.870  0.00  0.00    +0.000 A 
ATOM      6  C   UNL     1       4.032   3.386  17.712  0.00  0.00    +0.000 A 
ATOM      7  O   UNL     1       2.822   2.445  19.508  0.00  0.00    +0.000 OA
ATOM      8  C   UNL     1       1.804   2.754  20.472  0.00  0.00    +0.000 C 
ATOM      9  C   UNL     1       2.178   3.972  21.299  0.00  0.00    +0.000 C 
ATOM     10  O   UNL     1       2.284   5.132  20.468  0.00  0.00    +0.000 OA
ENDROOT
BRANCH   1  13
ATOM     11  C   UNL     1       6.649   4.410  15.737  0.00  0.00    +0.000 C 
ATOM     12  O   UNL     1       7.452   4.609  16.639  0.00  0.00    +0.000 OA
ATOM     13  N   UNL     1       5.293   4.269  15.850  0.00  0.00    +0.000 N 
ATOM     14  H   UNL     1       4.821   4.002  15.000  0.00  0.00    +0.000 HD
BRANCH  11  15
ATOM     15  O   UNL     1       7.005   4.339  14.425  0.00  0.00    +0.000 OA
BRANCH  15  17
ATOM     16  C   UNL     1       6.562   3.544  12.201  0.00  0.00    +0.000 C 
ATOM     17  C   UNL     1       5.966   3.839  13.568  0.00  0.00    +0.000 C 
ENDBRANCH  15  17
ENDBRANCH  11  15
ENDBRANCH   1  13
TORSDOF 3
ENDMDL
MODEL 6
REMARK VINA RESULT:      -6.4      2.161      6.112
REMARK  Name = 
REMARK  4 active torsions:
REMARK  status: ('A' for Active; 'I' for Inactive)
REMARK    1  A    between atoms: C_1  and  C_2
REMARK    2  A    between atoms: C_2  and  O_3
REMARK    3  A    between atoms: O_3  and  C_4
REMARK    4  A    between atoms: N_6  and  C_7
REMARK                            x       y       z     vdW  Elec       q    Type
REMARK                         _______ _______ _______ _____ _____    ______ ____
ROOT
ATOM      1  C   UNL     1       4.693   4.477  18.387  0.00  0.00    +0.000 A 
ATOM      2  C   UNL     1       6.005   4.813  18.747  0.00  0.00    +0.000 A 
ATOM      3  C   UNL     1       7.005   4.931  17.783  0.00  0.00    +0.000 A 
ATOM      4  C   UNL     1       6.702   4.718  16.446  0.00  0.00    +0.000 A 
ATOM      5  C   UNL     1       5.405   4.351  16.073  0.00  0.00    +0.000 A 
ATOM      6  C   UNL     1       4.401   4.231  17.040  0.00  0.00    +0.000 A 
ATOM      7  O   UNL     1       5.047   4.105  14.772  0.00  0.00    +0.000 OA
ATOM      8  C   UNL     1       6.198   3.942  13.930  0.00  0.00    +0.000 C 
ATOM      9  C   UNL     1       7.248   5.001  14.220  0.00  0.00    +0.000 C 
ATOM     10  O   UNL     1       7.732   4.877  15.560  0.00  0.00    +0.000 OA
ENDROOT
BRANCH   1  13
ATOM     11  C   UNL     1       2.927   5.367  19.875  0.00  0.00    +0.000 C 
ATOM     12  O   UNL     1       2.930   6.543  19.535  0.00  0.00    +0.000 OA
ATOM     13  N   UNL     1       3.659   4.346  19.336  0.00  0.00    +0.000 N 
ATOM     14  H   UNL     1       3.432   3.428  19.686  0.00  0.00    +0.000 HD
BRANCH  11  15
ATOM     15  O   UNL     1       2.188   4.896  20.917  0.00  0.00    +0.000 OA
BRANCH  15  17
ATOM     16  C   UNL     1       1.405   2.731  21.606  0.00  0.00    +0.000 C 
ATOM     17  C   UNL     1       1.297   3.828  20.559  0.00  0.00    +0.000 C 
ENDBRANCH  15  17
ENDBRANCH  11  15
ENDBRANCH   1  13
TORSDOF 3
ENDMDL
MODEL 7
REMARK VINA RESULT:      -6.3      1.080      1.246
REMARK  Name = 
REMARK  4 active torsions:
REMARK  status: ('A' for Active; 'I' for Inactive)
REMARK    1  A    between atoms: C_1  and  C_2
REMARK    2  A    between atoms: C_2  and  O_3
REMARK    3  A    between atoms: O_3  and  C_4
REMARK    4  A    between atoms: N_6  and  C_7
REMARK                            x       y       z     vdW  Elec       q    Type
REMARK                         _______ _______ _______ _____ _____    ______ ____
ROOT
ATOM      1  C   UNL     1       4.936   5.071  18.171  0.00  0.00    +0.000 A 
ATOM      2  C   UNL     1       4.684   3.936  17.390  0.00  0.00    +0.000 A 
ATOM      3  C   UNL     1       3.654   3.055  17.719  0.00  0.00    +0.000 A 
ATOM      4  C   UNL     1       2.862   3.305  18.830  0.00  0.00    +0.000 A 
ATOM      5  C   UNL     1       3.120   4.417  19.638  0.00  0.00    +0.000 A 
ATOM      6  C   UNL     1       4.154   5.300  19.310  0.00  0.00    +0.000 A 
ATOM      7  O   UNL     1       2.389   4.706  20.761  0.00  0.00    +0.000 OA
ATOM      8  C   UNL     1       1.589   3.588  21.172  0.00  0.00    +0.000 C 
ATOM      9  C   UNL     1       0.896   2.940  19.986  0.00  0.00    +0.000 C 
ATOM     10  O   UNL     1       1.857   2.407  19.070  0.00  0.00    +0.000 OA
ENDROOT
BRANCH   1  13
ATOM     11  C   UNL     1       6.092   6.710  16.720  0.00  0.00    +0.000 C 
ATOM     12  O   UNL     1       5.269   6.821  15.822  0.00  0.00    +0.000 OA
ATOM     13  N   UNL     1       5.972   5.979  17.870  0.00  0.00    +0.000 N 
ATOM     14  H   UNL     1       6.718   6.106  18.535  0.00  0.00    +0.000 HD
BRANCH  11  15
ATOM     15  O   UNL     1       7.322   7.293  16.680  0.00  0.00    +0.000 OA
BRANCH  15  17
ATOM     16  C   UNL     1       8.298   9.055  17.992  0.00  0.00    +0.000 C 
ATOM     17  C   UNL     1       7.861   7.599  17.976  0.00  0.00    +0.000 C 
ENDBRANCH  15  17
ENDBRANCH  11  15
ENDBRANCH   1  13
TORSDOF 3
ENDMDL
MODEL 8
REMARK VINA RESULT:      -6.3      2.257      3.279
REMARK  Name = 
REMARK  4 active torsions:
REMARK  status: ('A' for Active; 'I' for Inactive)
REMARK    1  A    between atoms: C_1  and  C_2
REMARK    2  A    between atoms: C_2  and  O_3
REMARK    3  A    between atoms: O_3  and  C_4
REMARK    4  A    between atoms: N_6  and  C_7
REMARK                            x       y       z     vdW  Elec       q    Type
REMARK                         _______ _______ _______ _____ _____    ______ ____
ROOT
ATOM      1  C   UNL     1       4.838   4.423  17.251  0.00  0.00    +0.000 A 
ATOM      2  C   UNL     1       4.977   5.148  18.442  0.00  0.00    +0.000 A 
ATOM      3  C   UNL     1       4.050   5.012  19.476  0.00  0.00    +0.000 A 
ATOM      4  C   UNL     1       2.979   4.143  19.331  0.00  0.00    +0.000 A 
ATOM      5  C   UNL     1       2.809   3.435  18.137  0.00  0.00    +0.000 A 
ATOM      6  C   UNL     1       3.736   3.572  17.099  0.00  0.00    +0.000 A 
ATOM      7  O   UNL     1       1.759   2.579  17.923  0.00  0.00    +0.000 OA
ATOM      8  C   UNL     1       0.723   2.761  18.899  0.00  0.00    +0.000 C 
ATOM      9  C   UNL     1       1.300   2.887  20.299  0.00  0.00    +0.000 C 
ATOM     10  O   UNL     1       2.129   4.048  20.400  0.00  0.00    +0.000 OA
ENDROOT
BRANCH   1  13
ATOM     11  C   UNL     1       5.811   5.564  15.282  0.00  0.00    +0.000 C 
ATOM     12  O   UNL     1       5.191   6.618  15.316  0.00  0.00    +0.000 OA
ATOM     13  N   UNL     1       5.753   4.539  16.186  0.00  0.00    +0.000 N 
ATOM     14  H   UNL     1       6.425   3.802  16.037  0.00  0.00    +0.000 HD
BRANCH  11  15
ATOM     15  O   UNL     1       6.656   5.229  14.269  0.00  0.00    +0.000 OA
BRANCH  15  17
ATOM     16  C   UNL     1       6.890   3.959  12.242  0.00  0.00    +0.000 C 
ATOM     17  C   UNL     1       6.366   3.956  13.669  0.00  0.00    +0.000 C 
ENDBRANCH  15  17
ENDBRANCH  11  15
ENDBRANCH   1  13
TORSDOF 3
ENDMDL
MODEL 9
REMARK VINA RESULT:      -6.2      3.328      4.681
REMARK  Name = 
REMARK  4 active torsions:
REMARK  status: ('A' for Active; 'I' for Inactive)
REMARK    1  A    between atoms: C_1  and  C_2
REMARK    2  A    between atoms: C_2  and  O_3
REMARK    3  A    between atoms: O_3  and  C_4
REMARK    4  A    between atoms: N_6  and  C_7
REMARK                            x       y       z     vdW  Elec       q    Type
REMARK                         _______ _______ _______ _____ _____    ______ ____
ROOT
ATOM      1  C   UNL     1       6.101   4.057  15.523  0.00  0.00    +0.000 A 
ATOM      2  C   UNL     1       7.125   4.292  16.450  0.00  0.00    +0.000 A 
ATOM      3  C   UNL     1       6.836   4.737  17.740  0.00  0.00    +0.000 A 
ATOM      4  C   UNL     1       5.517   4.945  18.117  0.00  0.00    +0.000 A 
ATOM      5  C   UNL     1       4.485   4.745  17.195  0.00  0.00    +0.000 A 
ATOM      6  C   UNL     1       4.775   4.301  15.900  0.00  0.00    +0.000 A 
ATOM      7  O   UNL     1       3.165   4.956  17.498  0.00  0.00    +0.000 OA
ATOM      8  C   UNL     1       3.016   5.702  18.715  0.00  0.00    +0.000 C 
ATOM      9  C   UNL     1       3.950   5.186  19.796  0.00  0.00    +0.000 C 
ATOM     10  O   UNL     1       5.315   5.357  19.407  0.00  0.00    +0.000 OA
ENDROOT
BRANCH   1  13
ATOM     11  C   UNL     1       6.951   4.339  13.215  0.00  0.00    +0.000 C 
ATOM     12  O   UNL     1       7.487   5.434  13.315  0.00  0.00    +0.000 OA
ATOM     13  N   UNL     1       6.359   3.612  14.211  0.00  0.00    +0.000 N 
ATOM     14  H   UNL     1       6.070   2.683  13.946  0.00  0.00    +0.000 HD
BRANCH  11  15
ATOM     15  O   UNL     1       6.824   3.677  12.032  0.00  0.00    +0.000 OA
BRANCH  15  17
ATOM     16  C   UNL     1       4.512   3.338  11.471  0.00  0.00    +0.000 C 
ATOM     17  C   UNL     1       5.773   2.697  12.026  0.00  0.00    +0.000 C 
ENDBRANCH  15  17
ENDBRANCH  11  15
ENDBRANCH   1  13
TORSDOF 3
ENDMDL
