MODEL 1
REMARK VINA RESULT:      -8.9      0.000      0.000
REMARK  Name = 
REMARK  1 active torsions:
REMARK  status: ('A' for Active; 'I' for Inactive)
REMARK    1  A    between atoms: C_7  and  C_8
REMARK                            x       y       z     vdW  Elec       q    Type
REMARK                         _______ _______ _______ _____ _____    ______ ____
ROOT
ATOM      1  C   UNL     1       1.027   9.037  20.253  0.00  0.00    +0.000 A 
ATOM      2  C   UNL     1       0.366   8.964  21.472  0.00  0.00    +0.000 A 
ATOM      3  C   UNL     1      -0.382  10.050  21.922  0.00  0.00    +0.000 A 
ATOM      4  C   UNL     1      -0.490  11.205  21.151  0.00  0.00    +0.000 A 
ATOM      5  N   UNL     1      -1.269  12.250  21.586  0.00  0.00    +0.000 N 
ATOM      6  C   UNL     1      -1.914  13.154  20.646  0.00  0.00    +0.000 C 
ATOM      7  C   UNL     1      -3.377  13.278  21.082  0.00  0.00    +0.000 C 
ATOM      8  C   UNL     1      -3.497  13.679  22.564  0.00  0.00    +0.000 C 
ATOM      9  C   UNL     1      -2.623  12.815  23.488  0.00  0.00    +0.000 C 
ATOM     10  C   UNL     1      -1.197  12.729  22.959  0.00  0.00    +0.000 C 
ATOM     11  O   UNL     1      -3.061  15.066  22.691  0.00  0.00    +0.000 OA
ATOM     12  C   UNL     1      -4.090  15.872  23.308  0.00  0.00    +0.000 C 
ATOM     13  C   UNL     1      -5.257  14.971  23.457  0.00  0.00    +0.000 A 
ATOM     14  C   UNL     1      -6.522  15.260  23.945  0.00  0.00    +0.000 A 
ATOM     15  C   UNL     1      -7.463  14.232  24.001  0.00  0.00    +0.000 A 
ATOM     16  C   UNL     1      -7.127  12.939  23.576  0.00  0.00    +0.000 A 
ATOM     17  C   UNL     1      -5.848  12.662  23.089  0.00  0.00    +0.000 A 
ATOM     18  C   UNL     1      -4.922  13.695  23.031  0.00  0.00    +0.000 A 
ATOM     19  N   UNL     1       0.116  11.280  19.947  0.00  0.00    +0.000 NA
ATOM     20  C   UNL     1       0.864  10.220  19.541  0.00  0.00    +0.000 A 
ENDROOT
BRANCH   1  27
ATOM     21 CL   UNL     1       5.280   3.958  16.581  0.00  0.00    +0.000 Cl
ATOM     22  C   UNL     1       4.331   4.721  17.802  0.00  0.00    +0.000 A 
ATOM     23  C   UNL     1       4.090   4.044  19.000  0.00  0.00    +0.000 A 
ATOM     24  C   UNL     1       3.329   4.627  20.019  0.00  0.00    +0.000 A 
ATOM     25  C   UNL     1       2.830   5.907  19.764  0.00  0.00    +0.000 A 
ATOM     26  N   UNL     1       2.063   6.761  20.515  0.00  0.00    +0.000 N 
ATOM     27  C   UNL     1       1.831   7.907  19.787  0.00  0.00    +0.000 A 
ATOM     28  N   UNL     1       2.436   7.820  18.612  0.00  0.00    +0.000 NA
ATOM     29  C   UNL     1       3.054   6.595  18.581  0.00  0.00    +0.000 A 
ATOM     30  C   UNL     1       3.822   6.002  17.570  0.00  0.00    +0.000 A 
ATOM     31  H   UNL     1       1.721   6.567  21.440  0.00  0.00    +0.000 HD
ENDBRANCH   1  27
TORSDOF 1
ENDMDL
MODEL 2
REMARK VINA RESULT:      -8.8      0.764      1.298
REMARK  Name = 
REMARK  1 active torsions:
REMARK  status: ('A' for Active; 'I' for Inactive)
REMARK    1  A    between atoms: C_7  and  C_8
REMARK                            x       y       z     vdW  Elec       q    Type
REMARK                         _______ _______ _______ _____ _____    ______ ____
ROOT
ATOM      1  C   UNL     1       0.818   8.867  20.515  0.00  0.00    +0.000 A 
ATOM      2  C   UNL     1       0.202   8.908  21.759  0.00  0.00    +0.000 A 
ATOM      3  C   UNL     1      -0.527  10.035  22.136  0.00  0.00    +0.000 A 
ATOM      4  C   UNL     1      -0.661  11.116  21.267  0.00  0.00    +0.000 A 
ATOM      5  N   UNL     1      -1.421  12.200  21.634  0.00  0.00    +0.000 N 
ATOM      6  C   UNL     1      -2.098  13.019  20.640  0.00  0.00    +0.000 C 
ATOM      7  C   UNL     1      -3.544  13.190  21.116  0.00  0.00    +0.000 C 
ATOM      8  C   UNL     1      -3.609  13.724  22.558  0.00  0.00    +0.000 C 
ATOM      9  C   UNL     1      -2.703  12.942  23.525  0.00  0.00    +0.000 C 
ATOM     10  C   UNL     1      -1.298  12.800  22.954  0.00  0.00    +0.000 C 
ATOM     11  O   UNL     1      -3.166  15.114  22.543  0.00  0.00    +0.000 OA
ATOM     12  C   UNL     1      -4.170  15.978  23.121  0.00  0.00    +0.000 C 
ATOM     13  C   UNL     1      -5.333  15.101  23.393  0.00  0.00    +0.000 A 
ATOM     14  C   UNL     1      -6.578  15.440  23.899  0.00  0.00    +0.000 A 
ATOM     15  C   UNL     1      -7.518  14.426  24.082  0.00  0.00    +0.000 A 
ATOM     16  C   UNL     1      -7.201  13.098  23.764  0.00  0.00    +0.000 A 
ATOM     17  C   UNL     1      -5.941  12.771  23.258  0.00  0.00    +0.000 A 
ATOM     18  C   UNL     1      -5.016  13.790  23.073  0.00  0.00    +0.000 A 
ATOM     19  N   UNL     1      -0.099  11.078  20.041  0.00  0.00    +0.000 NA
ATOM     20  C   UNL     1       0.631   9.982  19.705  0.00  0.00    +0.000 A 
ENDROOT
BRANCH   1  27
ATOM     21 CL   UNL     1       4.341   2.207  19.738  0.00  0.00    +0.000 Cl
ATOM     22  C   UNL     1       3.827   3.829  19.457  0.00  0.00    +0.000 A 
ATOM     23  C   UNL     1       4.346   4.530  18.366  0.00  0.00    +0.000 A 
ATOM     24  C   UNL     1       3.954   5.846  18.098  0.00  0.00    +0.000 A 
ATOM     25  C   UNL     1       3.028   6.407  18.982  0.00  0.00    +0.000 A 
ATOM     26  N   UNL     1       2.435   7.643  19.029  0.00  0.00    +0.000 N 
ATOM     27  C   UNL     1       1.602   7.695  20.125  0.00  0.00    +0.000 A 
ATOM     28  N   UNL     1       1.629   6.535  20.763  0.00  0.00    +0.000 NA
ATOM     29  C   UNL     1       2.504   5.732  20.074  0.00  0.00    +0.000 A 
ATOM     30  C   UNL     1       2.901   4.412  20.328  0.00  0.00    +0.000 A 
ATOM     31  H   UNL     1       2.598   8.387  18.372  0.00  0.00    +0.000 HD
ENDBRANCH   1  27
TORSDOF 1
ENDMDL
MODEL 3
REMARK VINA RESULT:      -8.5      1.291      1.607
REMARK  Name = 
REMARK  1 active torsions:
REMARK  status: ('A' for Active; 'I' for Inactive)
REMARK    1  A    between atoms: C_7  and  C_8
REMARK                            x       y       z     vdW  Elec       q    Type
REMARK                         _______ _______ _______ _____ _____    ______ ____
ROOT
ATOM      1  C   UNL     1       1.783   8.744  18.946  0.00  0.00    +0.000 A 
ATOM      2  C   UNL     1       1.319   8.747  20.255  0.00  0.00    +0.000 A 
ATOM      3  C   UNL     1       0.670   9.874  20.758  0.00  0.00    +0.000 A 
ATOM      4  C   UNL     1       0.463  10.992  19.953  0.00  0.00    +0.000 A 
ATOM      5  N   UNL     1      -0.219  12.077  20.448  0.00  0.00    +0.000 N 
ATOM      6  C   UNL     1      -0.986  12.950  19.573  0.00  0.00    +0.000 C 
ATOM      7  C   UNL     1      -2.361  13.133  20.223  0.00  0.00    +0.000 C 
ATOM      8  C   UNL     1      -2.242  13.609  21.683  0.00  0.00    +0.000 C 
ATOM      9  C   UNL     1      -1.251  12.768  22.505  0.00  0.00    +0.000 C 
ATOM     10  C   UNL     1       0.074  12.620  21.767  0.00  0.00    +0.000 C 
ATOM     11  O   UNL     1      -1.767  14.988  21.668  0.00  0.00    +0.000 OA
ATOM     12  C   UNL     1      -2.673  15.850  22.394  0.00  0.00    +0.000 C 
ATOM     13  C   UNL     1      -3.819  14.988  22.768  0.00  0.00    +0.000 A 
ATOM     14  C   UNL     1      -4.986  15.333  23.430  0.00  0.00    +0.000 A 
ATOM     15  C   UNL     1      -5.925  14.333  23.684  0.00  0.00    +0.000 A 
ATOM     16  C   UNL     1      -5.683  13.013  23.281  0.00  0.00    +0.000 A 
ATOM     17  C   UNL     1      -4.501  12.680  22.616  0.00  0.00    +0.000 A 
ATOM     18  C   UNL     1      -3.577  13.685  22.363  0.00  0.00    +0.000 A 
ATOM     19  N   UNL     1       0.876  10.992  18.668  0.00  0.00    +0.000 NA
ATOM     20  C   UNL     1       1.533   9.895  18.207  0.00  0.00    +0.000 A 
ENDROOT
BRANCH   1  27
ATOM     21 CL   UNL     1       6.206   3.672  15.470  0.00  0.00    +0.000 Cl
ATOM     22  C   UNL     1       4.969   4.364  16.453  0.00  0.00    +0.000 A 
ATOM     23  C   UNL     1       4.090   3.520  17.137  0.00  0.00    +0.000 A 
ATOM     24  C   UNL     1       3.075   4.039  17.948  0.00  0.00    +0.000 A 
ATOM     25  C   UNL     1       2.994   5.432  18.023  0.00  0.00    +0.000 A 
ATOM     26  N   UNL     1       2.144   6.268  18.703  0.00  0.00    +0.000 N 
ATOM     27  C   UNL     1       2.485   7.573  18.421  0.00  0.00    +0.000 A 
ATOM     28  N   UNL     1       3.528   7.596  17.605  0.00  0.00    +0.000 NA
ATOM     29  C   UNL     1       3.852   6.287  17.348  0.00  0.00    +0.000 A 
ATOM     30  C   UNL     1       4.868   5.755  16.544  0.00  0.00    +0.000 A 
ATOM     31  H   UNL     1       1.392   5.967  19.297  0.00  0.00    +0.000 HD
ENDBRANCH   1  27
TORSDOF 1
ENDMDL
MODEL 4
REMARK VINA RESULT:      -8.5      4.356     11.345
REMARK  Name = 
REMARK  1 active torsions:
REMARK  status: ('A' for Active; 'I' for Inactive)
REMARK    1  A    between atoms: C_7  and  C_8
REMARK                            x       y       z     vdW  Elec       q    Type
REMARK                         _______ _______ _______ _____ _____    ______ ____
ROOT
ATOM      1  C   UNL     1      -0.079  10.634  21.486  0.00  0.00    +0.000 A 
ATOM      2  C   UNL     1       0.743   9.707  22.113  0.00  0.00    +0.000 A 
ATOM      3  C   UNL     1       1.365   8.711  21.361  0.00  0.00    +0.000 A 
ATOM      4  C   UNL     1       1.186   8.649  19.980  0.00  0.00    +0.000 A 
ATOM      5  N   UNL     1       1.843   7.691  19.246  0.00  0.00    +0.000 N 
ATOM      6  C   UNL     1       2.206   7.922  17.857  0.00  0.00    +0.000 C 
ATOM      7  C   UNL     1       3.677   7.519  17.710  0.00  0.00    +0.000 C 
ATOM      8  C   UNL     1       3.930   6.090  18.225  0.00  0.00    +0.000 C 
ATOM      9  C   UNL     1       3.334   5.846  19.622  0.00  0.00    +0.000 C 
ATOM     10  C   UNL     1       1.882   6.301  19.677  0.00  0.00    +0.000 C 
ATOM     11  O   UNL     1       3.303   5.159  17.293  0.00  0.00    +0.000 OA
ATOM     12  C   UNL     1       4.267   4.200  16.801  0.00  0.00    +0.000 C 
ATOM     13  C   UNL     1       5.570   4.632  17.358  0.00  0.00    +0.000 A 
ATOM     14  C   UNL     1       6.827   4.087  17.152  0.00  0.00    +0.000 A 
ATOM     15  C   UNL     1       7.916   4.666  17.803  0.00  0.00    +0.000 A 
ATOM     16  C   UNL     1       7.734   5.770  18.648  0.00  0.00    +0.000 A 
ATOM     17  C   UNL     1       6.460   6.307  18.847  0.00  0.00    +0.000 A 
ATOM     18  C   UNL     1       5.385   5.726  18.189  0.00  0.00    +0.000 A 
ATOM     19  N   UNL     1       0.420   9.565  19.351  0.00  0.00    +0.000 NA
ATOM     20  C   UNL     1      -0.200  10.509  20.107  0.00  0.00    +0.000 A 
ENDROOT
BRANCH   1  27
ATOM     21 CL   UNL     1      -2.253  16.676  25.505  0.00  0.00    +0.000 Cl
ATOM     22  C   UNL     1      -2.271  15.143  24.715  0.00  0.00    +0.000 A 
ATOM     23  C   UNL     1      -3.418  14.350  24.792  0.00  0.00    +0.000 A 
ATOM     24  C   UNL     1      -3.478  13.101  24.163  0.00  0.00    +0.000 A 
ATOM     25  C   UNL     1      -2.333  12.704  23.468  0.00  0.00    +0.000 A 
ATOM     26  N   UNL     1      -2.040  11.571  22.751  0.00  0.00    +0.000 N 
ATOM     27  C   UNL     1      -0.751  11.668  22.275  0.00  0.00    +0.000 A 
ATOM     28  N   UNL     1      -0.222  12.824  22.645  0.00  0.00    +0.000 NA
ATOM     29  C   UNL     1      -1.182  13.473  23.382  0.00  0.00    +0.000 A 
ATOM     30  C   UNL     1      -1.137  14.723  24.012  0.00  0.00    +0.000 A 
ATOM     31  H   UNL     1      -2.666  10.797  22.613  0.00  0.00    +0.000 HD
ENDBRANCH   1  27
TORSDOF 1
ENDMDL
MODEL 5
REMARK VINA RESULT:      -8.2      1.995      3.415
REMARK  Name = 
REMARK  1 active torsions:
REMARK  status: ('A' for Active; 'I' for Inactive)
REMARK    1  A    between atoms: C_7  and  C_8
REMARK                            x       y       z     vdW  Elec       q    Type
REMARK                         _______ _______ _______ _____ _____    ______ ____
ROOT
ATOM      1  C   UNL     1       1.823   8.424  18.909  0.00  0.00    +0.000 A 
ATOM      2  C   UNL     1       1.426   9.548  18.197  0.00  0.00    +0.000 A 
ATOM      3  C   UNL     1       0.577  10.481  18.790  0.00  0.00    +0.000 A 
ATOM      4  C   UNL     1       0.138  10.308  20.100  0.00  0.00    +0.000 A 
ATOM      5  N   UNL     1      -0.661  11.259  20.688  0.00  0.00    +0.000 N 
ATOM      6  C   UNL     1      -0.642  11.478  22.126  0.00  0.00    +0.000 C 
ATOM      7  C   UNL     1      -0.509  12.988  22.344  0.00  0.00    +0.000 C 
ATOM      8  C   UNL     1      -1.589  13.771  21.576  0.00  0.00    +0.000 C 
ATOM      9  C   UNL     1      -1.703  13.343  20.103  0.00  0.00    +0.000 C 
ATOM     10  C   UNL     1      -1.803  11.828  19.987  0.00  0.00    +0.000 C 
ATOM     11  O   UNL     1      -2.872  13.520  22.224  0.00  0.00    +0.000 OA
ATOM     12  C   UNL     1      -3.504  14.762  22.608  0.00  0.00    +0.000 C 
ATOM     13  C   UNL     1      -2.515  15.819  22.295  0.00  0.00    +0.000 A 
ATOM     14  C   UNL     1      -2.601  17.184  22.518  0.00  0.00    +0.000 A 
ATOM     15  C   UNL     1      -1.534  17.990  22.121  0.00  0.00    +0.000 A 
ATOM     16  C   UNL     1      -0.408  17.425  21.508  0.00  0.00    +0.000 A 
ATOM     17  C   UNL     1      -0.336  16.048  21.287  0.00  0.00    +0.000 A 
ATOM     18  C   UNL     1      -1.401  15.255  21.693  0.00  0.00    +0.000 A 
ATOM     19  N   UNL     1       0.543   9.240  20.819  0.00  0.00    +0.000 NA
ATOM     20  C   UNL     1       1.347   8.327  20.212  0.00  0.00    +0.000 A 
ENDROOT
BRANCH   1  27
ATOM     21 CL   UNL     1       6.917   4.447  14.958  0.00  0.00    +0.000 Cl
ATOM     22  C   UNL     1       5.619   4.845  16.022  0.00  0.00    +0.000 A 
ATOM     23  C   UNL     1       4.930   3.817  16.670  0.00  0.00    +0.000 A 
ATOM     24  C   UNL     1       3.873   4.095  17.544  0.00  0.00    +0.000 A 
ATOM     25  C   UNL     1       3.554   5.444  17.720  0.00  0.00    +0.000 A 
ATOM     26  N   UNL     1       2.600   6.071  18.481  0.00  0.00    +0.000 N 
ATOM     27  C   UNL     1       2.696   7.431  18.282  0.00  0.00    +0.000 A 
ATOM     28  N   UNL     1       3.684   7.691  17.440  0.00  0.00    +0.000 NA
ATOM     29  C   UNL     1       4.221   6.479  17.083  0.00  0.00    +0.000 A 
ATOM     30  C   UNL     1       5.281   6.188  16.214  0.00  0.00    +0.000 A 
ATOM     31  H   UNL     1       1.936   5.604  19.074  0.00  0.00    +0.000 HD
ENDBRANCH   1  27
TORSDOF 1
ENDMDL
MODEL 6
REMARK VINA RESULT:      -8.1      4.465     11.026
REMARK  Name = 
REMARK  1 active torsions:
REMARK  status: ('A' for Active; 'I' for Inactive)
REMARK    1  A    between atoms: C_7  and  C_8
REMARK                            x       y       z     vdW  Elec       q    Type
REMARK                         _______ _______ _______ _____ _____    ______ ____
ROOT
ATOM      1  C   UNL     1      -1.699  11.556  20.040  0.00  0.00    +0.000 A 
ATOM      2  C   UNL     1      -1.550  10.851  18.853  0.00  0.00    +0.000 A 
ATOM      3  C   UNL     1      -0.520   9.920  18.724  0.00  0.00    +0.000 A 
ATOM      4  C   UNL     1       0.351   9.675  19.783  0.00  0.00    +0.000 A 
ATOM      5  N   UNL     1       1.332   8.721  19.657  0.00  0.00    +0.000 N 
ATOM      6  C   UNL     1       1.832   7.995  20.814  0.00  0.00    +0.000 C 
ATOM      7  C   UNL     1       1.827   6.509  20.442  0.00  0.00    +0.000 C 
ATOM      8  C   UNL     1       2.585   6.249  19.127  0.00  0.00    +0.000 C 
ATOM      9  C   UNL     1       2.156   7.196  17.994  0.00  0.00    +0.000 C 
ATOM     10  C   UNL     1       2.166   8.644  18.467  0.00  0.00    +0.000 C 
ATOM     11  O   UNL     1       4.007   6.456  19.380  0.00  0.00    +0.000 OA
ATOM     12  C   UNL     1       4.769   5.283  19.017  0.00  0.00    +0.000 C 
ATOM     13  C   UNL     1       3.762   4.264  18.638  0.00  0.00    +0.000 A 
ATOM     14  C   UNL     1       3.960   2.946  18.259  0.00  0.00    +0.000 A 
ATOM     15  C   UNL     1       2.845   2.175  17.932  0.00  0.00    +0.000 A 
ATOM     16  C   UNL     1       1.558   2.729  17.984  0.00  0.00    +0.000 A 
ATOM     17  C   UNL     1       1.375   4.060  18.366  0.00  0.00    +0.000 A 
ATOM     18  C   UNL     1       2.492   4.815  18.695  0.00  0.00    +0.000 A 
ATOM     19  N   UNL     1       0.198  10.326  20.955  0.00  0.00    +0.000 NA
ATOM     20  C   UNL     1      -0.794  11.250  21.050  0.00  0.00    +0.000 A 
ENDROOT
BRANCH   1  27
ATOM     21 CL   UNL     1      -6.319  17.317  21.726  0.00  0.00    +0.000 Cl
ATOM     22  C   UNL     1      -5.698  15.868  21.026  0.00  0.00    +0.000 A 
ATOM     23  C   UNL     1      -6.497  15.141  20.140  0.00  0.00    +0.000 A 
ATOM     24  C   UNL     1      -6.031  13.963  19.547  0.00  0.00    +0.000 A 
ATOM     25  C   UNL     1      -4.738  13.564  19.896  0.00  0.00    +0.000 A 
ATOM     26  N   UNL     1      -3.976  12.487  19.519  0.00  0.00    +0.000 N 
ATOM     27  C   UNL     1      -2.765  12.550  20.172  0.00  0.00    +0.000 A 
ATOM     28  N   UNL     1      -2.722  13.634  20.933  0.00  0.00    +0.000 NA
ATOM     29  C   UNL     1      -3.930  14.267  20.776  0.00  0.00    +0.000 A 
ATOM     30  C   UNL     1      -4.406  15.449  21.359  0.00  0.00    +0.000 A 
ATOM     31  H   UNL     1      -4.268  11.769  18.879  0.00  0.00    +0.000 HD
ENDBRANCH   1  27
TORSDOF 1
ENDMDL
MODEL 7
REMARK VINA RESULT:      -8.1      1.080      1.592
REMARK  Name = 
REMARK  1 active torsions:
REMARK  status: ('A' for Active; 'I' for Inactive)
REMARK    1  A    between atoms: C_7  and  C_8
REMARK                            x       y       z     vdW  Elec       q    Type
REMARK                         _______ _______ _______ _____ _____    ______ ____
ROOT
ATOM      1  C   UNL     1       1.390   8.621  19.920  0.00  0.00    +0.000 A 
ATOM      2  C   UNL     1       0.975   8.855  21.224  0.00  0.00    +0.000 A 
ATOM      3  C   UNL     1       0.321  10.044  21.541  0.00  0.00    +0.000 A 
ATOM      4  C   UNL     1       0.061  10.995  20.557  0.00  0.00    +0.000 A 
ATOM      5  N   UNL     1      -0.626  12.142  20.875  0.00  0.00    +0.000 N 
ATOM      6  C   UNL     1      -1.443  12.831  19.888  0.00  0.00    +0.000 C 
ATOM      7  C   UNL     1      -2.797  13.109  20.550  0.00  0.00    +0.000 C 
ATOM      8  C   UNL     1      -2.633  13.843  21.893  0.00  0.00    +0.000 C 
ATOM      9  C   UNL     1      -1.595  13.179  22.813  0.00  0.00    +0.000 C 
ATOM     10  C   UNL     1      -0.296  12.918  22.061  0.00  0.00    +0.000 C 
ATOM     11  O   UNL     1      -2.189  15.204  21.611  0.00  0.00    +0.000 OA
ATOM     12  C   UNL     1      -3.086  16.169  22.205  0.00  0.00    +0.000 C 
ATOM     13  C   UNL     1      -4.198  15.373  22.775  0.00  0.00    +0.000 A 
ATOM     14  C   UNL     1      -5.347  15.816  23.410  0.00  0.00    +0.000 A 
ATOM     15  C   UNL     1      -6.255  14.865  23.878  0.00  0.00    +0.000 A 
ATOM     16  C   UNL     1      -6.000  13.497  23.710  0.00  0.00    +0.000 A 
ATOM     17  C   UNL     1      -4.836  13.066  23.069  0.00  0.00    +0.000 A 
ATOM     18  C   UNL     1      -3.944  14.021  22.602  0.00  0.00    +0.000 A 
ATOM     19  N   UNL     1       0.426  10.768  19.277  0.00  0.00    +0.000 NA
ATOM     20  C   UNL     1       1.088   9.615  18.996  0.00  0.00    +0.000 A 
ENDROOT
BRANCH   1  27
ATOM     21 CL   UNL     1       4.522   1.737  19.494  0.00  0.00    +0.000 Cl
ATOM     22  C   UNL     1       4.087   3.363  19.119  0.00  0.00    +0.000 A 
ATOM     23  C   UNL     1       4.606   3.959  17.967  0.00  0.00    +0.000 A 
ATOM     24  C   UNL     1       4.277   5.275  17.622  0.00  0.00    +0.000 A 
ATOM     25  C   UNL     1       3.413   5.944  18.493  0.00  0.00    +0.000 A 
ATOM     26  N   UNL     1       2.889   7.212  18.473  0.00  0.00    +0.000 N 
ATOM     27  C   UNL     1       2.097   7.384  19.587  0.00  0.00    +0.000 A 
ATOM     28  N   UNL     1       2.083   6.269  20.302  0.00  0.00    +0.000 NA
ATOM     29  C   UNL     1       2.890   5.374  19.644  0.00  0.00    +0.000 A 
ATOM     30  C   UNL     1       3.223   4.054  19.974  0.00  0.00    +0.000 A 
ATOM     31  H   UNL     1       3.070   7.900  17.763  0.00  0.00    +0.000 HD
ENDBRANCH   1  27
TORSDOF 1
ENDMDL
MODEL 8
REMARK VINA RESULT:      -8.1      1.594      2.989
REMARK  Name = 
REMARK  1 active torsions:
REMARK  status: ('A' for Active; 'I' for Inactive)
REMARK    1  A    between atoms: C_7  and  C_8
REMARK                            x       y       z     vdW  Elec       q    Type
REMARK                         _______ _______ _______ _____ _____    ______ ____
ROOT
ATOM      1  C   UNL     1       1.368   8.587  19.940  0.00  0.00    +0.000 A 
ATOM      2  C   UNL     1       1.115   9.722  19.181  0.00  0.00    +0.000 A 
ATOM      3  C   UNL     1       0.257  10.706  19.669  0.00  0.00    +0.000 A 
ATOM      4  C   UNL     1      -0.336  10.571  20.923  0.00  0.00    +0.000 A 
ATOM      5  N   UNL     1      -1.143  11.570  21.411  0.00  0.00    +0.000 N 
ATOM      6  C   UNL     1      -1.275  11.804  22.841  0.00  0.00    +0.000 C 
ATOM      7  C   UNL     1      -1.085  13.308  23.064  0.00  0.00    +0.000 C 
ATOM      8  C   UNL     1      -2.029  14.138  22.175  0.00  0.00    +0.000 C 
ATOM      9  C   UNL     1      -1.998  13.700  20.701  0.00  0.00    +0.000 C 
ATOM     10  C   UNL     1      -2.167  12.190  20.583  0.00  0.00    +0.000 C 
ATOM     11  O   UNL     1      -3.388  13.963  22.675  0.00  0.00    +0.000 OA
ATOM     12  C   UNL     1      -3.991  15.240  22.978  0.00  0.00    +0.000 C 
ATOM     13  C   UNL     1      -2.917  16.240  22.773  0.00  0.00    +0.000 A 
ATOM     14  C   UNL     1      -2.955  17.610  22.978  0.00  0.00    +0.000 A 
ATOM     15  C   UNL     1      -1.808  18.354  22.699  0.00  0.00    +0.000 A 
ATOM     16  C   UNL     1      -0.651  17.723  22.220  0.00  0.00    +0.000 A 
ATOM     17  C   UNL     1      -0.630  16.342  22.017  0.00  0.00    +0.000 A 
ATOM     18  C   UNL     1      -1.775  15.611  22.304  0.00  0.00    +0.000 A 
ATOM     19  N   UNL     1      -0.073   9.491  21.688  0.00  0.00    +0.000 NA
ATOM     20  C   UNL     1       0.744   8.531  21.181  0.00  0.00    +0.000 A 
ENDROOT
BRANCH   1  27
ATOM     21 CL   UNL     1       5.917   3.976  16.012  0.00  0.00    +0.000 Cl
ATOM     22  C   UNL     1       4.950   4.628  17.282  0.00  0.00    +0.000 A 
ATOM     23  C   UNL     1       4.812   3.910  18.472  0.00  0.00    +0.000 A 
ATOM     24  C   UNL     1       4.040   4.403  19.529  0.00  0.00    +0.000 A 
ATOM     25  C   UNL     1       3.422   5.639  19.320  0.00  0.00    +0.000 A 
ATOM     26  N   UNL     1       2.610   6.407  20.115  0.00  0.00    +0.000 N 
ATOM     27  C   UNL     1       2.251   7.541  19.421  0.00  0.00    +0.000 A 
ATOM     28  N   UNL     1       2.819   7.531  18.225  0.00  0.00    +0.000 NA
ATOM     29  C   UNL     1       3.541   6.366  18.145  0.00  0.00    +0.000 A 
ATOM     30  C   UNL     1       4.321   5.864  17.096  0.00  0.00    +0.000 A 
ATOM     31  H   UNL     1       2.320   6.166  21.047  0.00  0.00    +0.000 HD
ENDBRANCH   1  27
TORSDOF 1
ENDMDL
MODEL 9
REMARK VINA RESULT:      -8.1      4.425     11.001
REMARK  Name = 
REMARK  1 active torsions:
REMARK  status: ('A' for Active; 'I' for Inactive)
REMARK    1  A    between atoms: C_7  and  C_8
REMARK                            x       y       z     vdW  Elec       q    Type
REMARK                         _______ _______ _______ _____ _____    ______ ____
ROOT
ATOM      1  C   UNL     1      -1.588  11.563  20.176  0.00  0.00    +0.000 A 
ATOM      2  C   UNL     1      -1.447  10.877  18.977  0.00  0.00    +0.000 A 
ATOM      3  C   UNL     1      -0.435   9.929  18.834  0.00  0.00    +0.000 A 
ATOM      4  C   UNL     1       0.427   9.647  19.892  0.00  0.00    +0.000 A 
ATOM      5  N   UNL     1       1.390   8.677  19.753  0.00  0.00    +0.000 N 
ATOM      6  C   UNL     1       1.870   7.920  20.898  0.00  0.00    +0.000 C 
ATOM      7  C   UNL     1       1.838   6.442  20.497  0.00  0.00    +0.000 C 
ATOM      8  C   UNL     1       2.598   6.192  19.182  0.00  0.00    +0.000 C 
ATOM      9  C   UNL     1       2.192   7.168  18.065  0.00  0.00    +0.000 C 
ATOM     10  C   UNL     1       2.228   8.607  18.565  0.00  0.00    +0.000 C 
ATOM     11  O   UNL     1       4.022   6.367  19.445  0.00  0.00    +0.000 OA
ATOM     12  C   UNL     1       4.763   5.187  19.063  0.00  0.00    +0.000 C 
ATOM     13  C   UNL     1       3.739   4.194  18.660  0.00  0.00    +0.000 A 
ATOM     14  C   UNL     1       3.914   2.880  18.257  0.00  0.00    +0.000 A 
ATOM     15  C   UNL     1       2.785   2.137  17.911  0.00  0.00    +0.000 A 
ATOM     16  C   UNL     1       1.509   2.715  17.968  0.00  0.00    +0.000 A 
ATOM     17  C   UNL     1       1.350   4.041  18.374  0.00  0.00    +0.000 A 
ATOM     18  C   UNL     1       2.479   4.769  18.722  0.00  0.00    +0.000 A 
ATOM     19  N   UNL     1       0.281  10.279  21.076  0.00  0.00    +0.000 NA
ATOM     20  C   UNL     1      -0.694  11.220  21.184  0.00  0.00    +0.000 A 
ENDROOT
BRANCH   1  27
ATOM     21 CL   UNL     1      -7.865  15.801  20.252  0.00  0.00    +0.000 Cl
ATOM     22  C   UNL     1      -6.230  15.295  20.459  0.00  0.00    +0.000 A 
ATOM     23  C   UNL     1      -5.303  16.190  20.999  0.00  0.00    +0.000 A 
ATOM     24  C   UNL     1      -3.967  15.820  21.188  0.00  0.00    +0.000 A 
ATOM     25  C   UNL     1      -3.624  14.521  20.804  0.00  0.00    +0.000 A 
ATOM     26  N   UNL     1      -2.437  13.834  20.841  0.00  0.00    +0.000 N 
ATOM     27  C   UNL     1      -2.636  12.574  20.322  0.00  0.00    +0.000 A 
ATOM     28  N   UNL     1      -3.905  12.429  19.974  0.00  0.00    +0.000 NA
ATOM     29  C   UNL     1      -4.527  13.618  20.261  0.00  0.00    +0.000 A 
ATOM     30  C   UNL     1      -5.863  13.999  20.083  0.00  0.00    +0.000 A 
ATOM     31  H   UNL     1      -1.567  14.204  21.183  0.00  0.00    +0.000 HD
ENDBRANCH   1  27
TORSDOF 1
ENDMDL
