MODEL 1
REMARK VINA RESULT:      -8.8      0.000      0.000
REMARK  Name = 
REMARK  7 active torsions:
REMARK  status: ('A' for Active; 'I' for Inactive)
REMARK    1  A    between atoms: C_2  and  C_3
REMARK    2  A    between atoms: C_3  and  C_4
REMARK    3  A    between atoms: C_4  and  N_5
REMARK    4  A    between atoms: C_4  and  C_14
REMARK    5  A    between atoms: C_6  and  C_8
REMARK    6  A    between atoms: N_20  and  C_21
REMARK    7  A    between atoms: C_21  and  C_22
REMARK                            x       y       z     vdW  Elec       q    Type
REMARK                         _______ _______ _______ _____ _____    ______ ____
ROOT
ATOM      1  C   UNL     1       6.175   4.863  17.201  0.00  0.00    +0.000 C 
ENDROOT
BRANCH   1   2
ATOM      2  C   UNL     1       6.269   4.628  15.689  0.00  0.00    +0.000 A 
ATOM      3  C   UNL     1       5.261   3.971  14.958  0.00  0.00    +0.000 A 
ATOM      4  C   UNL     1       5.381   3.750  13.587  0.00  0.00    +0.000 A 
ATOM      5  C   UNL     1       6.518   4.180  12.913  0.00  0.00    +0.000 A 
ATOM      6  C   UNL     1       7.527   4.838  13.613  0.00  0.00    +0.000 A 
ATOM      7  C   UNL     1       7.405   5.067  14.987  0.00  0.00    +0.000 A 
ENDBRANCH   1   2
BRANCH   1   8
ATOM      8  N   UNL     1       4.846   4.507  17.701  0.00  0.00    +0.000 N 
ATOM      9  C   UNL     1       4.605   3.804  18.863  0.00  0.00    +0.000 C 
ATOM     10  O   UNL     1       5.468   3.368  19.611  0.00  0.00    +0.000 OA
ATOM     11  H   UNL     1       4.062   4.897  17.195  0.00  0.00    +0.000 HD
BRANCH   9  12
ATOM     12  C   UNL     1       3.167   3.608  19.186  0.00  0.00    +0.000 A 
ATOM     13  C   UNL     1       2.549   4.345  20.204  0.00  0.00    +0.000 A 
ATOM     14  C   UNL     1       1.211   4.110  20.520  0.00  0.00    +0.000 A 
ATOM     15  C   UNL     1       0.486   3.150  19.814  0.00  0.00    +0.000 A 
ATOM     16  C   UNL     1       1.091   2.438  18.777  0.00  0.00    +0.000 A 
ATOM     17  C   UNL     1       2.431   2.670  18.457  0.00  0.00    +0.000 A 
ENDBRANCH   9  12
ENDBRANCH   1   8
BRANCH   1  18
ATOM     18  C   UNL     1       6.592   6.276  17.603  0.00  0.00    +0.000 C 
BRANCH  18  20
ATOM     19  O   UNL     1       7.995   5.443  19.384  0.00  0.00    +0.000 OA
ATOM     20  C   UNL     1       7.688   6.370  18.636  0.00  0.00    +0.000 C 
ATOM     21  N   UNL     1       8.422   7.532  18.620  0.00  0.00    +0.000 N 
ATOM     22  H   UNL     1       9.189   7.582  19.279  0.00  0.00    +0.000 HD
BRANCH  21  23
ATOM     23  C   UNL     1       8.015   8.731  17.919  0.00  0.00    +0.000 C 
BRANCH  23  24
ATOM     24  C   UNL     1       8.678   9.970  18.430  0.00  0.00    +0.000 A 
ATOM     25  C   UNL     1       8.665  11.145  17.670  0.00  0.00    +0.000 A 
ATOM     26  C   UNL     1       9.229  12.311  18.177  0.00  0.00    +0.000 A 
ATOM     27  C   UNL     1       9.819  12.311  19.440  0.00  0.00    +0.000 A 
ATOM     28  C   UNL     1       9.851  11.141  20.196  0.00  0.00    +0.000 A 
ATOM     29  C   UNL     1       9.287   9.971  19.692  0.00  0.00    +0.000 A 
ENDBRANCH  23  24
ENDBRANCH  21  23
ENDBRANCH  18  20
ENDBRANCH   1  18
TORSDOF 7
ENDMDL
MODEL 2
REMARK VINA RESULT:      -8.8      1.154      1.546
REMARK  Name = 
REMARK  7 active torsions:
REMARK  status: ('A' for Active; 'I' for Inactive)
REMARK    1  A    between atoms: C_2  and  C_3
REMARK    2  A    between atoms: C_3  and  C_4
REMARK    3  A    between atoms: C_4  and  N_5
REMARK    4  A    between atoms: C_4  and  C_14
REMARK    5  A    between atoms: C_6  and  C_8
REMARK    6  A    between atoms: N_20  and  C_21
REMARK    7  A    between atoms: C_21  and  C_22
REMARK                            x       y       z     vdW  Elec       q    Type
REMARK                         _______ _______ _______ _____ _____    ______ ____
ROOT
ATOM      1  C   UNL     1       6.921   4.778  16.561  0.00  0.00    +0.000 C 
ENDROOT
BRANCH   1   2
ATOM      2  C   UNL     1       6.947   4.618  15.037  0.00  0.00    +0.000 A 
ATOM      3  C   UNL     1       7.808   5.365  14.210  0.00  0.00    +0.000 A 
ATOM      4  C   UNL     1       7.796   5.216  12.823  0.00  0.00    +0.000 A 
ATOM      5  C   UNL     1       6.918   4.317  12.230  0.00  0.00    +0.000 A 
ATOM      6  C   UNL     1       6.060   3.563  13.028  0.00  0.00    +0.000 A 
ATOM      7  C   UNL     1       6.076   3.706  14.418  0.00  0.00    +0.000 A 
ENDBRANCH   1   2
BRANCH   1   8
ATOM      8  N   UNL     1       5.686   4.229  17.121  0.00  0.00    +0.000 N 
ATOM      9  C   UNL     1       4.481   4.899  17.179  0.00  0.00    +0.000 C 
ATOM     10  O   UNL     1       4.296   6.044  16.793  0.00  0.00    +0.000 OA
ATOM     11  H   UNL     1       5.715   3.254  17.389  0.00  0.00    +0.000 HD
BRANCH   9  12
ATOM     12  C   UNL     1       3.356   4.110  17.748  0.00  0.00    +0.000 A 
ATOM     13  C   UNL     1       2.305   4.740  18.426  0.00  0.00    +0.000 A 
ATOM     14  C   UNL     1       1.285   3.976  18.992  0.00  0.00    +0.000 A 
ATOM     15  C   UNL     1       1.307   2.586  18.873  0.00  0.00    +0.000 A 
ATOM     16  C   UNL     1       2.337   1.959  18.169  0.00  0.00    +0.000 A 
ATOM     17  C   UNL     1       3.360   2.720  17.600  0.00  0.00    +0.000 A 
ENDBRANCH   9  12
ENDBRANCH   1   8
BRANCH   1  18
ATOM     18  C   UNL     1       7.177   6.217  17.005  0.00  0.00    +0.000 C 
BRANCH  18  20
ATOM     19  O   UNL     1       7.811   5.479  19.215  0.00  0.00    +0.000 OA
ATOM     20  C   UNL     1       7.758   6.386  18.387  0.00  0.00    +0.000 C 
ATOM     21  N   UNL     1       8.344   7.604  18.641  0.00  0.00    +0.000 N 
ATOM     22  H   UNL     1       8.778   7.707  19.550  0.00  0.00    +0.000 HD
BRANCH  21  23
ATOM     23  C   UNL     1       8.160   8.773  17.810  0.00  0.00    +0.000 C 
BRANCH  23  24
ATOM     24  C   UNL     1       8.717  10.023  18.414  0.00  0.00    +0.000 A 
ATOM     25  C   UNL     1       8.594  11.247  17.748  0.00  0.00    +0.000 A 
ATOM     26  C   UNL     1       9.060  12.415  18.342  0.00  0.00    +0.000 A 
ATOM     27  C   UNL     1       9.660  12.370  19.599  0.00  0.00    +0.000 A 
ATOM     28  C   UNL     1       9.802  11.152  20.261  0.00  0.00    +0.000 A 
ATOM     29  C   UNL     1       9.338   9.979  19.670  0.00  0.00    +0.000 A 
ENDBRANCH  23  24
ENDBRANCH  21  23
ENDBRANCH  18  20
ENDBRANCH   1  18
TORSDOF 7
ENDMDL
MODEL 3
REMARK VINA RESULT:      -8.8      0.424      1.375
REMARK  Name = 
REMARK  7 active torsions:
REMARK  status: ('A' for Active; 'I' for Inactive)
REMARK    1  A    between atoms: C_2  and  C_3
REMARK    2  A    between atoms: C_3  and  C_4
REMARK    3  A    between atoms: C_4  and  N_5
REMARK    4  A    between atoms: C_4  and  C_14
REMARK    5  A    between atoms: C_6  and  C_8
REMARK    6  A    between atoms: N_20  and  C_21
REMARK    7  A    between atoms: C_21  and  C_22
REMARK                            x       y       z     vdW  Elec       q    Type
REMARK                         _______ _______ _______ _____ _____    ______ ____
ROOT
ATOM      1  C   UNL     1       6.463   5.085  17.007  0.00  0.00    +0.000 C 
ENDROOT
BRANCH   1   2
ATOM      2  C   UNL     1       6.553   4.772  15.509  0.00  0.00    +0.000 A 
ATOM      3  C   UNL     1       7.573   5.286  14.686  0.00  0.00    +0.000 A 
ATOM      4  C   UNL     1       7.620   5.004  13.321  0.00  0.00    +0.000 A 
ATOM      5  C   UNL     1       6.643   4.200  12.745  0.00  0.00    +0.000 A 
ATOM      6  C   UNL     1       5.626   3.675  13.541  0.00  0.00    +0.000 A 
ATOM      7  C   UNL     1       5.582   3.951  14.910  0.00  0.00    +0.000 A 
ENDBRANCH   1   2
BRANCH   1   8
ATOM      8  N   UNL     1       5.124   4.795  17.520  0.00  0.00    +0.000 N 
ATOM      9  C   UNL     1       4.859   4.163  18.717  0.00  0.00    +0.000 C 
ATOM     10  O   UNL     1       5.707   3.742  19.490  0.00  0.00    +0.000 OA
ATOM     11  H   UNL     1       4.353   5.182  16.992  0.00  0.00    +0.000 HD
BRANCH   9  12
ATOM     12  C   UNL     1       3.415   4.027  19.044  0.00  0.00    +0.000 A 
ATOM     13  C   UNL     1       2.891   4.559  20.229  0.00  0.00    +0.000 A 
ATOM     14  C   UNL     1       1.543   4.379  20.537  0.00  0.00    +0.000 A 
ATOM     15  C   UNL     1       0.715   3.679  19.659  0.00  0.00    +0.000 A 
ATOM     16  C   UNL     1       1.228   3.176  18.462  0.00  0.00    +0.000 A 
ATOM     17  C   UNL     1       2.578   3.354  18.150  0.00  0.00    +0.000 A 
ENDBRANCH   9  12
ENDBRANCH   1   8
BRANCH   1  18
ATOM     18  C   UNL     1       6.924   6.503  17.339  0.00  0.00    +0.000 C 
BRANCH  18  20
ATOM     19  O   UNL     1       8.054   5.719  19.325  0.00  0.00    +0.000 OA
ATOM     20  C   UNL     1       7.835   6.636  18.535  0.00  0.00    +0.000 C 
ATOM     21  N   UNL     1       8.515   7.827  18.634  0.00  0.00    +0.000 N 
ATOM     22  H   UNL     1       9.164   7.904  19.407  0.00  0.00    +0.000 HD
BRANCH  21  23
ATOM     23  C   UNL     1       8.179   9.010  17.873  0.00  0.00    +0.000 C 
BRANCH  23  24
ATOM     24  C   UNL     1       8.762  10.265  18.442  0.00  0.00    +0.000 A 
ATOM     25  C   UNL     1       9.442  10.238  19.665  0.00  0.00    +0.000 A 
ATOM     26  C   UNL     1      10.034  11.396  20.159  0.00  0.00    +0.000 A 
ATOM     27  C   UNL     1       9.944  12.589  19.444  0.00  0.00    +0.000 A 
ATOM     28  C   UNL     1       9.254  12.627  18.235  0.00  0.00    +0.000 A 
ATOM     29  C   UNL     1       8.659  11.470  17.735  0.00  0.00    +0.000 A 
ENDBRANCH  23  24
ENDBRANCH  21  23
ENDBRANCH  18  20
ENDBRANCH   1  18
TORSDOF 7
ENDMDL
MODEL 4
REMARK VINA RESULT:      -8.8      0.497      1.077
REMARK  Name = 
REMARK  7 active torsions:
REMARK  status: ('A' for Active; 'I' for Inactive)
REMARK    1  A    between atoms: C_2  and  C_3
REMARK    2  A    between atoms: C_3  and  C_4
REMARK    3  A    between atoms: C_4  and  N_5
REMARK    4  A    between atoms: C_4  and  C_14
REMARK    5  A    between atoms: C_6  and  C_8
REMARK    6  A    between atoms: N_20  and  C_21
REMARK    7  A    between atoms: C_21  and  C_22
REMARK                            x       y       z     vdW  Elec       q    Type
REMARK                         _______ _______ _______ _____ _____    ______ ____
ROOT
ATOM      1  C   UNL     1       6.409   5.093  17.174  0.00  0.00    +0.000 C 
ENDROOT
BRANCH   1   2
ATOM      2  C   UNL     1       6.358   4.746  15.682  0.00  0.00    +0.000 A 
ATOM      3  C   UNL     1       5.292   4.027  15.106  0.00  0.00    +0.000 A 
ATOM      4  C   UNL     1       5.280   3.705  13.750  0.00  0.00    +0.000 A 
ATOM      5  C   UNL     1       6.338   4.091  12.936  0.00  0.00    +0.000 A 
ATOM      6  C   UNL     1       7.401   4.809  13.482  0.00  0.00    +0.000 A 
ATOM      7  C   UNL     1       7.411   5.139  14.840  0.00  0.00    +0.000 A 
ENDBRANCH   1   2
BRANCH   1   8
ATOM      8  N   UNL     1       5.090   4.938  17.790  0.00  0.00    +0.000 N 
ATOM      9  C   UNL     1       4.806   4.088  18.839  0.00  0.00    +0.000 C 
ATOM     10  O   UNL     1       5.611   3.337  19.371  0.00  0.00    +0.000 OA
ATOM     11  H   UNL     1       4.375   5.580  17.476  0.00  0.00    +0.000 HD
BRANCH   9  12
ATOM     12  C   UNL     1       3.402   4.145  19.325  0.00  0.00    +0.000 A 
ATOM     13  C   UNL     1       2.932   5.252  20.041  0.00  0.00    +0.000 A 
ATOM     14  C   UNL     1       1.624   5.263  20.527  0.00  0.00    +0.000 A 
ATOM     15  C   UNL     1       0.783   4.176  20.290  0.00  0.00    +0.000 A 
ATOM     16  C   UNL     1       1.241   3.085  19.549  0.00  0.00    +0.000 A 
ATOM     17  C   UNL     1       2.549   3.070  19.060  0.00  0.00    +0.000 A 
ENDBRANCH   9  12
ENDBRANCH   1   8
BRANCH   1  18
ATOM     18  C   UNL     1       7.020   6.468  17.437  0.00  0.00    +0.000 C 
BRANCH  18  20
ATOM     19  O   UNL     1       8.011   5.669  19.490  0.00  0.00    +0.000 OA
ATOM     20  C   UNL     1       7.855   6.589  18.688  0.00  0.00    +0.000 C 
ATOM     21  N   UNL     1       8.543   7.770  18.832  0.00  0.00    +0.000 N 
ATOM     22  H   UNL     1       9.142   7.839  19.645  0.00  0.00    +0.000 HD
BRANCH  21  23
ATOM     23  C   UNL     1       8.272   8.958  18.052  0.00  0.00    +0.000 C 
BRANCH  23  24
ATOM     24  C   UNL     1       8.890  10.195  18.623  0.00  0.00    +0.000 A 
ATOM     25  C   UNL     1       9.346  10.212  19.945  0.00  0.00    +0.000 A 
ATOM     26  C   UNL     1       9.975  11.344  20.452  0.00  0.00    +0.000 A 
ATOM     27  C   UNL     1      10.144  12.470  19.648  0.00  0.00    +0.000 A 
ATOM     28  C   UNL     1       9.677  12.467  18.336  0.00  0.00    +0.000 A 
ATOM     29  C   UNL     1       9.046  11.335  17.823  0.00  0.00    +0.000 A 
ENDBRANCH  23  24
ENDBRANCH  21  23
ENDBRANCH  18  20
ENDBRANCH   1  18
TORSDOF 7
ENDMDL
MODEL 5
REMARK VINA RESULT:      -8.6      0.669      1.445
REMARK  Name = 
REMARK  7 active torsions:
REMARK  status: ('A' for Active; 'I' for Inactive)
REMARK    1  A    between atoms: C_2  and  C_3
REMARK    2  A    between atoms: C_3  and  C_4
REMARK    3  A    between atoms: C_4  and  N_5
REMARK    4  A    between atoms: C_4  and  C_14
REMARK    5  A    between atoms: C_6  and  C_8
REMARK    6  A    between atoms: N_20  and  C_21
REMARK    7  A    between atoms: C_21  and  C_22
REMARK                            x       y       z     vdW  Elec       q    Type
REMARK                         _______ _______ _______ _____ _____    ______ ____
ROOT
ATOM      1  C   UNL     1       6.658   5.136  16.804  0.00  0.00    +0.000 C 
ENDROOT
BRANCH   1   2
ATOM      2  C   UNL     1       6.705   4.809  15.307  0.00  0.00    +0.000 A 
ATOM      3  C   UNL     1       7.665   5.364  14.439  0.00  0.00    +0.000 A 
ATOM      4  C   UNL     1       7.673   5.067  13.077  0.00  0.00    +0.000 A 
ATOM      5  C   UNL     1       6.716   4.210  12.548  0.00  0.00    +0.000 A 
ATOM      6  C   UNL     1       5.758   3.644  13.389  0.00  0.00    +0.000 A 
ATOM      7  C   UNL     1       5.754   3.934  14.756  0.00  0.00    +0.000 A 
ENDBRANCH   1   2
BRANCH   1   8
ATOM      8  N   UNL     1       5.317   4.907  17.345  0.00  0.00    +0.000 N 
ATOM      9  C   UNL     1       5.046   4.232  18.517  0.00  0.00    +0.000 C 
ATOM     10  O   UNL     1       5.886   3.717  19.241  0.00  0.00    +0.000 OA
ATOM     11  H   UNL     1       4.559   5.369  16.862  0.00  0.00    +0.000 HD
BRANCH   9  12
ATOM     12  C   UNL     1       3.606   4.173  18.883  0.00  0.00    +0.000 A 
ATOM     13  C   UNL     1       2.653   3.676  17.985  0.00  0.00    +0.000 A 
ATOM     14  C   UNL     1       1.303   3.674  18.333  0.00  0.00    +0.000 A 
ATOM     15  C   UNL     1       0.903   4.157  19.580  0.00  0.00    +0.000 A 
ATOM     16  C   UNL     1       1.855   4.623  20.489  0.00  0.00    +0.000 A 
ATOM     17  C   UNL     1       3.208   4.626  20.145  0.00  0.00    +0.000 A 
ENDBRANCH   9  12
ENDBRANCH   1   8
BRANCH   1  18
ATOM     18  C   UNL     1       7.184   6.535  17.117  0.00  0.00    +0.000 C 
BRANCH  18  20
ATOM     19  O   UNL     1       8.030   5.773  19.248  0.00  0.00    +0.000 OA
ATOM     20  C   UNL     1       7.884   6.694  18.445  0.00  0.00    +0.000 C 
ATOM     21  N   UNL     1       8.466   7.919  18.667  0.00  0.00    +0.000 N 
ATOM     22  H   UNL     1       8.978   8.016  19.535  0.00  0.00    +0.000 HD
BRANCH  21  23
ATOM     23  C   UNL     1       8.185   9.098  17.877  0.00  0.00    +0.000 C 
BRANCH  23  24
ATOM     24  C   UNL     1       8.800  10.343  18.433  0.00  0.00    +0.000 A 
ATOM     25  C   UNL     1       8.654  11.564  17.765  0.00  0.00    +0.000 A 
ATOM     26  C   UNL     1       9.175  12.729  18.317  0.00  0.00    +0.000 A 
ATOM     27  C   UNL     1       9.853  12.684  19.534  0.00  0.00    +0.000 A 
ATOM     28  C   UNL     1      10.018  11.470  20.197  0.00  0.00    +0.000 A 
ATOM     29  C   UNL     1       9.498  10.300  19.647  0.00  0.00    +0.000 A 
ENDBRANCH  23  24
ENDBRANCH  21  23
ENDBRANCH  18  20
ENDBRANCH   1  18
TORSDOF 7
ENDMDL
MODEL 6
REMARK VINA RESULT:      -8.2      4.356      7.661
REMARK  Name = 
REMARK  7 active torsions:
REMARK  status: ('A' for Active; 'I' for Inactive)
REMARK    1  A    between atoms: C_2  and  C_3
REMARK    2  A    between atoms: C_3  and  C_4
REMARK    3  A    between atoms: C_4  and  N_5
REMARK    4  A    between atoms: C_4  and  C_14
REMARK    5  A    between atoms: C_6  and  C_8
REMARK    6  A    between atoms: N_20  and  C_21
REMARK    7  A    between atoms: C_21  and  C_22
REMARK                            x       y       z     vdW  Elec       q    Type
REMARK                         _______ _______ _______ _____ _____    ______ ____
ROOT
ATOM      1  C   UNL     1       2.206   5.951  18.535  0.00  0.00    +0.000 C 
ENDROOT
BRANCH   1   2
ATOM      2  C   UNL     1       1.978   4.754  19.466  0.00  0.00    +0.000 A 
ATOM      3  C   UNL     1       2.291   4.790  20.839  0.00  0.00    +0.000 A 
ATOM      4  C   UNL     1       2.095   3.680  21.660  0.00  0.00    +0.000 A 
ATOM      5  C   UNL     1       1.582   2.504  21.126  0.00  0.00    +0.000 A 
ATOM      6  C   UNL     1       1.259   2.447  19.771  0.00  0.00    +0.000 A 
ATOM      7  C   UNL     1       1.448   3.560  18.948  0.00  0.00    +0.000 A 
ENDBRANCH   1   2
BRANCH   1   8
ATOM      8  N   UNL     1       3.252   5.656  17.556  0.00  0.00    +0.000 N 
ATOM      9  C   UNL     1       4.581   5.449  17.862  0.00  0.00    +0.000 C 
ATOM     10  O   UNL     1       5.060   5.510  18.985  0.00  0.00    +0.000 OA
ATOM     11  H   UNL     1       2.940   5.499  16.607  0.00  0.00    +0.000 HD
BRANCH   9  12
ATOM     12  C   UNL     1       5.444   5.114  16.698  0.00  0.00    +0.000 A 
ATOM     13  C   UNL     1       6.699   5.714  16.535  0.00  0.00    +0.000 A 
ATOM     14  C   UNL     1       7.471   5.419  15.411  0.00  0.00    +0.000 A 
ATOM     15  C   UNL     1       6.996   4.520  14.456  0.00  0.00    +0.000 A 
ATOM     16  C   UNL     1       5.759   3.897  14.633  0.00  0.00    +0.000 A 
ATOM     17  C   UNL     1       4.984   4.188  15.757  0.00  0.00    +0.000 A 
ENDBRANCH   9  12
ENDBRANCH   1   8
BRANCH   1  18
ATOM     18  C   UNL     1       2.466   7.247  19.299  0.00  0.00    +0.000 C 
BRANCH  18  20
ATOM     19  O   UNL     1       2.327   8.794  17.448  0.00  0.00    +0.000 OA
ATOM     20  C   UNL     1       2.028   8.517  18.609  0.00  0.00    +0.000 C 
ATOM     21  N   UNL     1       1.163   9.312  19.321  0.00  0.00    +0.000 N 
ATOM     22  H   UNL     1       0.828  10.141  18.846  0.00  0.00    +0.000 HD
BRANCH  21  23
ATOM     23  C   UNL     1       0.917   9.164  20.739  0.00  0.00    +0.000 C 
BRANCH  23  24
ATOM     24  C   UNL     1      -0.083  10.141  21.272  0.00  0.00    +0.000 A 
ATOM     25  C   UNL     1      -0.449  10.114  22.622  0.00  0.00    +0.000 A 
ATOM     26  C   UNL     1      -1.333  11.063  23.125  0.00  0.00    +0.000 A 
ATOM     27  C   UNL     1      -1.866  12.038  22.284  0.00  0.00    +0.000 A 
ATOM     28  C   UNL     1      -1.520  12.060  20.935  0.00  0.00    +0.000 A 
ATOM     29  C   UNL     1      -0.635  11.112  20.426  0.00  0.00    +0.000 A 
ENDBRANCH  23  24
ENDBRANCH  21  23
ENDBRANCH  18  20
ENDBRANCH   1  18
TORSDOF 7
ENDMDL
MODEL 7
REMARK VINA RESULT:      -8.2      4.325      7.562
REMARK  Name = 
REMARK  7 active torsions:
REMARK  status: ('A' for Active; 'I' for Inactive)
REMARK    1  A    between atoms: C_2  and  C_3
REMARK    2  A    between atoms: C_3  and  C_4
REMARK    3  A    between atoms: C_4  and  N_5
REMARK    4  A    between atoms: C_4  and  C_14
REMARK    5  A    between atoms: C_6  and  C_8
REMARK    6  A    between atoms: N_20  and  C_21
REMARK    7  A    between atoms: C_21  and  C_22
REMARK                            x       y       z     vdW  Elec       q    Type
REMARK                         _______ _______ _______ _____ _____    ______ ____
ROOT
ATOM      1  C   UNL     1       2.224   5.923  18.479  0.00  0.00    +0.000 C 
ENDROOT
BRANCH   1   2
ATOM      2  C   UNL     1       2.006   4.719  19.402  0.00  0.00    +0.000 A 
ATOM      3  C   UNL     1       1.495   3.491  18.940  0.00  0.00    +0.000 A 
ATOM      4  C   UNL     1       1.285   2.417  19.805  0.00  0.00    +0.000 A 
ATOM      5  C   UNL     1       1.579   2.548  21.157  0.00  0.00    +0.000 A 
ATOM      6  C   UNL     1       2.092   3.752  21.637  0.00  0.00    +0.000 A 
ATOM      7  C   UNL     1       2.309   4.827  20.770  0.00  0.00    +0.000 A 
ENDBRANCH   1   2
BRANCH   1   8
ATOM      8  N   UNL     1       3.260   5.637  17.486  0.00  0.00    +0.000 N 
ATOM      9  C   UNL     1       4.590   5.414  17.778  0.00  0.00    +0.000 C 
ATOM     10  O   UNL     1       5.078   5.451  18.898  0.00  0.00    +0.000 OA
ATOM     11  H   UNL     1       2.940   5.499  16.537  0.00  0.00    +0.000 HD
BRANCH   9  12
ATOM     12  C   UNL     1       5.441   5.092  16.602  0.00  0.00    +0.000 A 
ATOM     13  C   UNL     1       6.760   5.555  16.518  0.00  0.00    +0.000 A 
ATOM     14  C   UNL     1       7.524   5.280  15.384  0.00  0.00    +0.000 A 
ATOM     15  C   UNL     1       6.977   4.535  14.339  0.00  0.00    +0.000 A 
ATOM     16  C   UNL     1       5.673   4.045  14.435  0.00  0.00    +0.000 A 
ATOM     17  C   UNL     1       4.905   4.318  15.569  0.00  0.00    +0.000 A 
ENDBRANCH   9  12
ENDBRANCH   1   8
BRANCH   1  18
ATOM     18  C   UNL     1       2.492   7.213  19.250  0.00  0.00    +0.000 C 
BRANCH  18  20
ATOM     19  O   UNL     1       2.346   8.781  17.418  0.00  0.00    +0.000 OA
ATOM     20  C   UNL     1       2.048   8.489  18.575  0.00  0.00    +0.000 C 
ATOM     21  N   UNL     1       1.179   9.272  19.296  0.00  0.00    +0.000 N 
ATOM     22  H   UNL     1       0.840  10.104  18.831  0.00  0.00    +0.000 HD
BRANCH  21  23
ATOM     23  C   UNL     1       0.933   9.106  20.713  0.00  0.00    +0.000 C 
BRANCH  23  24
ATOM     24  C   UNL     1      -0.009  10.123  21.273  0.00  0.00    +0.000 A 
ATOM     25  C   UNL     1      -0.579  11.094  20.441  0.00  0.00    +0.000 A 
ATOM     26  C   UNL     1      -1.502  11.999  20.955  0.00  0.00    +0.000 A 
ATOM     27  C   UNL     1      -1.855  11.950  22.302  0.00  0.00    +0.000 A 
ATOM     28  C   UNL     1      -1.279  10.998  23.140  0.00  0.00    +0.000 A 
ATOM     29  C   UNL     1      -0.354  10.089  22.630  0.00  0.00    +0.000 A 
ENDBRANCH  23  24
ENDBRANCH  21  23
ENDBRANCH  18  20
ENDBRANCH   1  18
TORSDOF 7
ENDMDL
MODEL 8
REMARK VINA RESULT:      -8.2      3.850      6.890
REMARK  Name = 
REMARK  7 active torsions:
REMARK  status: ('A' for Active; 'I' for Inactive)
REMARK    1  A    between atoms: C_2  and  C_3
REMARK    2  A    between atoms: C_3  and  C_4
REMARK    3  A    between atoms: C_4  and  N_5
REMARK    4  A    between atoms: C_4  and  C_14
REMARK    5  A    between atoms: C_6  and  C_8
REMARK    6  A    between atoms: N_20  and  C_21
REMARK    7  A    between atoms: C_21  and  C_22
REMARK                            x       y       z     vdW  Elec       q    Type
REMARK                         _______ _______ _______ _____ _____    ______ ____
ROOT
ATOM      1  C   UNL     1       3.592   5.684  19.555  0.00  0.00    +0.000 C 
ENDROOT
BRANCH   1   2
ATOM      2  C   UNL     1       2.663   4.465  19.535  0.00  0.00    +0.000 A 
ATOM      3  C   UNL     1       2.363   3.720  20.691  0.00  0.00    +0.000 A 
ATOM      4  C   UNL     1       1.532   2.601  20.642  0.00  0.00    +0.000 A 
ATOM      5  C   UNL     1       0.982   2.199  19.431  0.00  0.00    +0.000 A 
ATOM      6  C   UNL     1       1.259   2.924  18.274  0.00  0.00    +0.000 A 
ATOM      7  C   UNL     1       2.086   4.050  18.323  0.00  0.00    +0.000 A 
ENDBRANCH   1   2
BRANCH   1   8
ATOM      8  N   UNL     1       2.833   6.913  19.789  0.00  0.00    +0.000 N 
ATOM      9  C   UNL     1       2.292   7.706  18.798  0.00  0.00    +0.000 C 
ATOM     10  O   UNL     1       2.399   7.498  17.598  0.00  0.00    +0.000 OA
ATOM     11  H   UNL     1       2.617   7.125  20.754  0.00  0.00    +0.000 HD
BRANCH   9  12
ATOM     12  C   UNL     1       1.519   8.877  19.289  0.00  0.00    +0.000 A 
ATOM     13  C   UNL     1       1.119   8.967  20.628  0.00  0.00    +0.000 A 
ATOM     14  C   UNL     1       0.354  10.053  21.054  0.00  0.00    +0.000 A 
ATOM     15  C   UNL     1      -0.001  11.054  20.150  0.00  0.00    +0.000 A 
ATOM     16  C   UNL     1       0.424  10.982  18.822  0.00  0.00    +0.000 A 
ATOM     17  C   UNL     1       1.190   9.897  18.390  0.00  0.00    +0.000 A 
ENDBRANCH   9  12
ENDBRANCH   1   8
BRANCH   1  18
ATOM     18  C   UNL     1       4.476   5.769  18.313  0.00  0.00    +0.000 C 
BRANCH  18  20
ATOM     19  O   UNL     1       6.339   4.476  19.143  0.00  0.00    +0.000 OA
ATOM     20  C   UNL     1       5.576   4.740  18.216  0.00  0.00    +0.000 C 
ATOM     21  N   UNL     1       5.610   4.014  17.050  0.00  0.00    +0.000 N 
ATOM     22  H   UNL     1       6.315   3.290  16.997  0.00  0.00    +0.000 HD
BRANCH  21  23
ATOM     23  C   UNL     1       4.887   4.383  15.852  0.00  0.00    +0.000 C 
BRANCH  23  24
ATOM     24  C   UNL     1       5.717   4.300  14.610  0.00  0.00    +0.000 A 
ATOM     25  C   UNL     1       5.285   3.538  13.519  0.00  0.00    +0.000 A 
ATOM     26  C   UNL     1       6.031   3.513  12.346  0.00  0.00    +0.000 A 
ATOM     27  C   UNL     1       7.217   4.240  12.255  0.00  0.00    +0.000 A 
ATOM     28  C   UNL     1       7.662   4.988  13.342  0.00  0.00    +0.000 A 
ATOM     29  C   UNL     1       6.919   5.015  14.521  0.00  0.00    +0.000 A 
ENDBRANCH  23  24
ENDBRANCH  21  23
ENDBRANCH  18  20
ENDBRANCH   1  18
TORSDOF 7
ENDMDL
MODEL 9
REMARK VINA RESULT:      -8.2      3.741      6.801
REMARK  Name = 
REMARK  7 active torsions:
REMARK  status: ('A' for Active; 'I' for Inactive)
REMARK    1  A    between atoms: C_2  and  C_3
REMARK    2  A    between atoms: C_3  and  C_4
REMARK    3  A    between atoms: C_4  and  N_5
REMARK    4  A    between atoms: C_4  and  C_14
REMARK    5  A    between atoms: C_6  and  C_8
REMARK    6  A    between atoms: N_20  and  C_21
REMARK    7  A    between atoms: C_21  and  C_22
REMARK                            x       y       z     vdW  Elec       q    Type
REMARK                         _______ _______ _______ _____ _____    ______ ____
ROOT
ATOM      1  C   UNL     1       3.745   5.907  19.048  0.00  0.00    +0.000 C 
ENDROOT
BRANCH   1   2
ATOM      2  C   UNL     1       2.872   4.647  19.032  0.00  0.00    +0.000 A 
ATOM      3  C   UNL     1       1.972   4.360  17.987  0.00  0.00    +0.000 A 
ATOM      4  C   UNL     1       1.173   3.217  18.008  0.00  0.00    +0.000 A 
ATOM      5  C   UNL     1       1.253   2.334  19.078  0.00  0.00    +0.000 A 
ATOM      6  C   UNL     1       2.140   2.594  20.121  0.00  0.00    +0.000 A 
ATOM      7  C   UNL     1       2.946   3.735  20.099  0.00  0.00    +0.000 A 
ENDBRANCH   1   2
BRANCH   1   8
ATOM      8  N   UNL     1       2.916   7.114  19.051  0.00  0.00    +0.000 N 
ATOM      9  C   UNL     1       2.003   7.439  20.032  0.00  0.00    +0.000 C 
ATOM     10  O   UNL     1       1.749   6.751  21.010  0.00  0.00    +0.000 OA
ATOM     11  H   UNL     1       3.114   7.790  18.326  0.00  0.00    +0.000 HD
BRANCH   9  12
ATOM     12  C   UNL     1       1.318   8.745  19.838  0.00  0.00    +0.000 A 
ATOM     13  C   UNL     1       1.291   9.365  18.583  0.00  0.00    +0.000 A 
ATOM     14  C   UNL     1       0.683  10.612  18.436  0.00  0.00    +0.000 A 
ATOM     15  C   UNL     1       0.093  11.234  19.536  0.00  0.00    +0.000 A 
ATOM     16  C   UNL     1       0.091  10.603  20.781  0.00  0.00    +0.000 A 
ATOM     17  C   UNL     1       0.698   9.354  20.933  0.00  0.00    +0.000 A 
ENDBRANCH   9  12
ENDBRANCH   1   8
BRANCH   1  18
ATOM     18  C   UNL     1       4.786   5.914  17.931  0.00  0.00    +0.000 C 
BRANCH  18  20
ATOM     19  O   UNL     1       6.559   4.579  18.885  0.00  0.00    +0.000 OA
ATOM     20  C   UNL     1       5.782   4.780  17.953  0.00  0.00    +0.000 C 
ATOM     21  N   UNL     1       5.697   3.894  16.906  0.00  0.00    +0.000 N 
ATOM     22  H   UNL     1       6.331   3.105  16.939  0.00  0.00    +0.000 HD
BRANCH  21  23
ATOM     23  C   UNL     1       4.958   4.155  15.689  0.00  0.00    +0.000 C 
BRANCH  23  24
ATOM     24  C   UNL     1       5.823   4.201  14.470  0.00  0.00    +0.000 A 
ATOM     25  C   UNL     1       5.477   3.469  13.329  0.00  0.00    +0.000 A 
ATOM     26  C   UNL     1       6.252   3.564  12.177  0.00  0.00    +0.000 A 
ATOM     27  C   UNL     1       7.381   4.381  12.159  0.00  0.00    +0.000 A 
ATOM     28  C   UNL     1       7.742   5.099  13.296  0.00  0.00    +0.000 A 
ATOM     29  C   UNL     1       6.969   5.007  14.452  0.00  0.00    +0.000 A 
ENDBRANCH  23  24
ENDBRANCH  21  23
ENDBRANCH  18  20
ENDBRANCH   1  18
TORSDOF 7
ENDMDL
