MODEL 1
REMARK VINA RESULT:      -7.4      0.000      0.000
REMARK  Name = 
REMARK  8 active torsions:
REMARK  status: ('A' for Active; 'I' for Inactive)
REMARK    1  A    between atoms: C_1  and  C_2
REMARK    2  A    between atoms: C_5  and  N_6
REMARK    3  A    between atoms: N_6  and  C_7
REMARK    4  A    between atoms: C_7  and  C_8
REMARK    5  A    between atoms: C_13  and  C_15
REMARK    6  A    between atoms: C_15  and  O_16
REMARK    7  A    between atoms: O_16  and  C_17
REMARK    8  A    between atoms: C_21  and  C_22
REMARK                            x       y       z     vdW  Elec       q    Type
REMARK                         _______ _______ _______ _____ _____    ______ ____
ROOT
ATOM      1  N   UNL     1       3.146   6.563  18.094  0.00  0.00    +0.000 N 
ATOM      2  C   UNL     1       2.697   7.875  17.973  0.00  0.00    +0.000 C 
ATOM      3  O   UNL     1       3.204   8.664  17.166  0.00  0.00    +0.000 OA
ENDROOT
BRANCH   1   8
ATOM      4  C   UNL     1       1.257   2.447  21.562  0.00  0.00    +0.000 C 
ATOM      5  C   UNL     1       1.665   3.574  20.660  0.00  0.00    +0.000 A 
ATOM      6  C   UNL     1       1.384   3.528  19.288  0.00  0.00    +0.000 A 
ATOM      7  C   UNL     1       1.833   4.543  18.438  0.00  0.00    +0.000 A 
ATOM      8  C   UNL     1       2.555   5.617  18.960  0.00  0.00    +0.000 A 
ATOM      9  C   UNL     1       2.775   5.708  20.337  0.00  0.00    +0.000 A 
ATOM     10  C   UNL     1       2.326   4.694  21.183  0.00  0.00    +0.000 A 
ENDBRANCH   1   8
BRANCH   1  11
ATOM     11  C   UNL     1       4.127   6.048  17.131  0.00  0.00    +0.000 C 
BRANCH  11  12
ATOM     12  C   UNL     1       5.531   6.223  17.642  0.00  0.00    +0.000 A 
ATOM     13  C   UNL     1       6.473   7.160  17.258  0.00  0.00    +0.000 A 
ATOM     14  C   UNL     1       7.706   7.014  17.959  0.00  0.00    +0.000 A 
ATOM     15  C   UNL     1       7.675   5.959  18.841  0.00  0.00    +0.000 A 
ATOM     16  S   UNL     1       6.176   5.138  18.805  0.00  0.00    +0.000 S 
ENDBRANCH  11  12
ENDBRANCH   1  11
BRANCH   2  17
ATOM     17  C   UNL     1       1.541   8.335  18.866  0.00  0.00    +0.000 C 
BRANCH  17  18
ATOM     18  O   UNL     1       1.269   9.708  18.597  0.00  0.00    +0.000 OA
BRANCH  18  19
ATOM     19  C   UNL     1       0.712  10.442  19.610  0.00  0.00    +0.000 A 
ATOM     20  C   UNL     1       0.357  11.789  19.547  0.00  0.00    +0.000 A 
ATOM     21  C   UNL     1      -0.189  12.422  20.668  0.00  0.00    +0.000 A 
ATOM     22  C   UNL     1      -0.381  11.717  21.856  0.00  0.00    +0.000 A 
ATOM     23  C   UNL     1      -0.033  10.364  21.933  0.00  0.00    +0.000 A 
ATOM     24  C   UNL     1      -0.238   9.589  23.200  0.00  0.00    +0.000 C 
ATOM     25  C   UNL     1       0.515   9.740  20.805  0.00  0.00    +0.000 A 
ENDBRANCH  18  19
ENDBRANCH  17  18
ENDBRANCH   2  17
TORSDOF 6
ENDMDL
MODEL 2
REMARK VINA RESULT:      -7.4      1.592      2.155
REMARK  Name = 
REMARK  8 active torsions:
REMARK  status: ('A' for Active; 'I' for Inactive)
REMARK    1  A    between atoms: C_1  and  C_2
REMARK    2  A    between atoms: C_5  and  N_6
REMARK    3  A    between atoms: N_6  and  C_7
REMARK    4  A    between atoms: C_7  and  C_8
REMARK    5  A    between atoms: C_13  and  C_15
REMARK    6  A    between atoms: C_15  and  O_16
REMARK    7  A    between atoms: O_16  and  C_17
REMARK    8  A    between atoms: C_21  and  C_22
REMARK                            x       y       z     vdW  Elec       q    Type
REMARK                         _______ _______ _______ _____ _____    ______ ____
ROOT
ATOM      1  N   UNL     1       3.231   6.485  18.014  0.00  0.00    +0.000 N 
ATOM      2  C   UNL     1       2.771   7.778  17.785  0.00  0.00    +0.000 C 
ATOM      3  O   UNL     1       3.318   8.528  16.966  0.00  0.00    +0.000 OA
ENDROOT
BRANCH   1   8
ATOM      4  C   UNL     1       1.167   2.528  21.565  0.00  0.00    +0.000 C 
ATOM      5  C   UNL     1       1.622   3.615  20.637  0.00  0.00    +0.000 A 
ATOM      6  C   UNL     1       1.378   3.526  19.260  0.00  0.00    +0.000 A 
ATOM      7  C   UNL     1       1.871   4.502  18.389  0.00  0.00    +0.000 A 
ATOM      8  C   UNL     1       2.598   5.580  18.894  0.00  0.00    +0.000 A 
ATOM      9  C   UNL     1       2.780   5.716  20.273  0.00  0.00    +0.000 A 
ATOM     10  C   UNL     1       2.288   4.740  21.141  0.00  0.00    +0.000 A 
ENDBRANCH   1   8
BRANCH   1  11
ATOM     11  C   UNL     1       4.281   5.933  17.150  0.00  0.00    +0.000 C 
BRANCH  11  12
ATOM     12  C   UNL     1       5.631   6.030  17.810  0.00  0.00    +0.000 A 
ATOM     13  C   UNL     1       6.120   5.293  18.873  0.00  0.00    +0.000 A 
ATOM     14  C   UNL     1       7.447   5.671  19.234  0.00  0.00    +0.000 A 
ATOM     15  C   UNL     1       7.921   6.698  18.451  0.00  0.00    +0.000 A 
ATOM     16  S   UNL     1       6.764   7.215  17.304  0.00  0.00    +0.000 S 
ENDBRANCH  11  12
ENDBRANCH   1  11
BRANCH   2  17
ATOM     17  C   UNL     1       1.550   8.268  18.569  0.00  0.00    +0.000 C 
BRANCH  17  18
ATOM     18  O   UNL     1       1.684   9.667  18.804  0.00  0.00    +0.000 OA
BRANCH  18  19
ATOM     19  C   UNL     1       0.576  10.443  18.589  0.00  0.00    +0.000 A 
ATOM     20  C   UNL     1       0.417  11.773  18.980  0.00  0.00    +0.000 A 
ATOM     21  C   UNL     1      -0.779  12.444  18.710  0.00  0.00    +0.000 A 
ATOM     22  C   UNL     1      -1.824  11.793  18.053  0.00  0.00    +0.000 A 
ATOM     23  C   UNL     1      -1.678  10.460  17.652  0.00  0.00    +0.000 A 
ATOM     24  C   UNL     1      -2.787   9.747  16.939  0.00  0.00    +0.000 C 
ATOM     25  C   UNL     1      -0.475   9.797  17.928  0.00  0.00    +0.000 A 
ENDBRANCH  18  19
ENDBRANCH  17  18
ENDBRANCH   2  17
TORSDOF 6
ENDMDL
MODEL 3
REMARK VINA RESULT:      -7.3      0.960      1.878
REMARK  Name = 
REMARK  8 active torsions:
REMARK  status: ('A' for Active; 'I' for Inactive)
REMARK    1  A    between atoms: C_1  and  C_2
REMARK    2  A    between atoms: C_5  and  N_6
REMARK    3  A    between atoms: N_6  and  C_7
REMARK    4  A    between atoms: C_7  and  C_8
REMARK    5  A    between atoms: C_13  and  C_15
REMARK    6  A    between atoms: C_15  and  O_16
REMARK    7  A    between atoms: O_16  and  C_17
REMARK    8  A    between atoms: C_21  and  C_22
REMARK                            x       y       z     vdW  Elec       q    Type
REMARK                         _______ _______ _______ _____ _____    ______ ____
ROOT
ATOM      1  N   UNL     1       3.197   7.038  17.896  0.00  0.00    +0.000 N 
ATOM      2  C   UNL     1       2.572   8.259  18.130  0.00  0.00    +0.000 C 
ATOM      3  O   UNL     1       2.878   9.278  17.497  0.00  0.00    +0.000 OA
ENDROOT
BRANCH   1   8
ATOM      4  C   UNL     1       1.253   2.484  20.727  0.00  0.00    +0.000 C 
ATOM      5  C   UNL     1       1.844   3.627  19.957  0.00  0.00    +0.000 A 
ATOM      6  C   UNL     1       2.742   4.512  20.571  0.00  0.00    +0.000 A 
ATOM      7  C   UNL     1       3.230   5.621  19.875  0.00  0.00    +0.000 A 
ATOM      8  C   UNL     1       2.835   5.842  18.555  0.00  0.00    +0.000 A 
ATOM      9  C   UNL     1       2.000   4.925  17.912  0.00  0.00    +0.000 A 
ATOM     10  C   UNL     1       1.512   3.818  18.609  0.00  0.00    +0.000 A 
ENDBRANCH   1   8
BRANCH   1  11
ATOM     11  C   UNL     1       4.117   6.908  16.761  0.00  0.00    +0.000 C 
BRANCH  11  12
ATOM     12  C   UNL     1       5.413   6.271  17.185  0.00  0.00    +0.000 A 
ATOM     13  C   UNL     1       6.457   6.841  17.891  0.00  0.00    +0.000 A 
ATOM     14  C   UNL     1       7.533   5.929  18.104  0.00  0.00    +0.000 A 
ATOM     15  C   UNL     1       7.287   4.700  17.536  0.00  0.00    +0.000 A 
ATOM     16  S   UNL     1       5.778   4.656  16.734  0.00  0.00    +0.000 S 
ENDBRANCH  11  12
ENDBRANCH   1  11
BRANCH   2  17
ATOM     17  C   UNL     1       1.477   8.326  19.199  0.00  0.00    +0.000 C 
BRANCH  17  18
ATOM     18  O   UNL     1       1.291   9.685  19.585  0.00  0.00    +0.000 OA
BRANCH  18  19
ATOM     19  C   UNL     1       0.600   9.913  20.745  0.00  0.00    +0.000 A 
ATOM     20  C   UNL     1       0.234   8.948  21.684  0.00  0.00    +0.000 A 
ATOM     21  C   UNL     1      -0.489   9.318  22.823  0.00  0.00    +0.000 A 
ATOM     22  C   UNL     1      -0.853  10.649  23.029  0.00  0.00    +0.000 A 
ATOM     23  C   UNL     1      -0.489  11.628  22.097  0.00  0.00    +0.000 A 
ATOM     24  C   UNL     1      -0.867  13.064  22.306  0.00  0.00    +0.000 C 
ATOM     25  C   UNL     1       0.233  11.246  20.960  0.00  0.00    +0.000 A 
ENDBRANCH  18  19
ENDBRANCH  17  18
ENDBRANCH   2  17
TORSDOF 6
ENDMDL
MODEL 4
REMARK VINA RESULT:      -7.2      1.448      1.998
REMARK  Name = 
REMARK  8 active torsions:
REMARK  status: ('A' for Active; 'I' for Inactive)
REMARK    1  A    between atoms: C_1  and  C_2
REMARK    2  A    between atoms: C_5  and  N_6
REMARK    3  A    between atoms: N_6  and  C_7
REMARK    4  A    between atoms: C_7  and  C_8
REMARK    5  A    between atoms: C_13  and  C_15
REMARK    6  A    between atoms: C_15  and  O_16
REMARK    7  A    between atoms: O_16  and  C_17
REMARK    8  A    between atoms: C_21  and  C_22
REMARK                            x       y       z     vdW  Elec       q    Type
REMARK                         _______ _______ _______ _____ _____    ______ ____
ROOT
ATOM      1  N   UNL     1       3.220   6.796  17.976  0.00  0.00    +0.000 N 
ATOM      2  C   UNL     1       2.797   8.116  17.852  0.00  0.00    +0.000 C 
ATOM      3  O   UNL     1       3.346   8.905  17.071  0.00  0.00    +0.000 OA
ENDROOT
BRANCH   1   8
ATOM      4  C   UNL     1       1.139   2.685  21.338  0.00  0.00    +0.000 C 
ATOM      5  C   UNL     1       1.598   3.812  20.460  0.00  0.00    +0.000 A 
ATOM      6  C   UNL     1       1.375   3.775  19.077  0.00  0.00    +0.000 A 
ATOM      7  C   UNL     1       1.872   4.789  18.253  0.00  0.00    +0.000 A 
ATOM      8  C   UNL     1       2.582   5.852  18.811  0.00  0.00    +0.000 A 
ATOM      9  C   UNL     1       2.743   5.935  20.196  0.00  0.00    +0.000 A 
ATOM     10  C   UNL     1       2.246   4.921  21.017  0.00  0.00    +0.000 A 
ENDBRANCH   1   8
BRANCH   1  11
ATOM     11  C   UNL     1       4.226   6.273  17.044  0.00  0.00    +0.000 C 
BRANCH  11  12
ATOM     12  C   UNL     1       5.603   6.331  17.647  0.00  0.00    +0.000 A 
ATOM     13  C   UNL     1       6.620   7.228  17.377  0.00  0.00    +0.000 A 
ATOM     14  C   UNL     1       7.797   6.966  18.140  0.00  0.00    +0.000 A 
ATOM     15  C   UNL     1       7.649   5.865  18.951  0.00  0.00    +0.000 A 
ATOM     16  S   UNL     1       6.110   5.142  18.776  0.00  0.00    +0.000 S 
ENDBRANCH  11  12
ENDBRANCH   1  11
BRANCH   2  17
ATOM     17  C   UNL     1       1.617   8.588  18.706  0.00  0.00    +0.000 C 
BRANCH  17  18
ATOM     18  O   UNL     1       0.636   9.173  17.854  0.00  0.00    +0.000 OA
BRANCH  18  19
ATOM     19  C   UNL     1      -0.235  10.062  18.427  0.00  0.00    +0.000 A 
ATOM     20  C   UNL     1      -0.045  10.732  19.636  0.00  0.00    +0.000 A 
ATOM     21  C   UNL     1      -1.028  11.604  20.115  0.00  0.00    +0.000 A 
ATOM     22  C   UNL     1      -2.205  11.808  19.395  0.00  0.00    +0.000 A 
ATOM     23  C   UNL     1      -2.408  11.145  18.180  0.00  0.00    +0.000 A 
ATOM     24  C   UNL     1      -3.665  11.357  17.390  0.00  0.00    +0.000 C 
ATOM     25  C   UNL     1      -1.418  10.273  17.709  0.00  0.00    +0.000 A 
ENDBRANCH  18  19
ENDBRANCH  17  18
ENDBRANCH   2  17
TORSDOF 6
ENDMDL
MODEL 5
REMARK VINA RESULT:      -7.2      1.008      1.368
REMARK  Name = 
REMARK  8 active torsions:
REMARK  status: ('A' for Active; 'I' for Inactive)
REMARK    1  A    between atoms: C_1  and  C_2
REMARK    2  A    between atoms: C_5  and  N_6
REMARK    3  A    between atoms: N_6  and  C_7
REMARK    4  A    between atoms: C_7  and  C_8
REMARK    5  A    between atoms: C_13  and  C_15
REMARK    6  A    between atoms: C_15  and  O_16
REMARK    7  A    between atoms: O_16  and  C_17
REMARK    8  A    between atoms: C_21  and  C_22
REMARK                            x       y       z     vdW  Elec       q    Type
REMARK                         _______ _______ _______ _____ _____    ______ ____
ROOT
ATOM      1  N   UNL     1       3.284   6.573  17.947  0.00  0.00    +0.000 N 
ATOM      2  C   UNL     1       2.846   7.876  17.730  0.00  0.00    +0.000 C 
ATOM      3  O   UNL     1       3.407   8.624  16.919  0.00  0.00    +0.000 OA
ENDROOT
BRANCH   1   8
ATOM      4  C   UNL     1       1.143   2.613  21.450  0.00  0.00    +0.000 C 
ATOM      5  C   UNL     1       1.619   3.703  20.537  0.00  0.00    +0.000 A 
ATOM      6  C   UNL     1       1.361   3.645  19.160  0.00  0.00    +0.000 A 
ATOM      7  C   UNL     1       1.873   4.621  18.302  0.00  0.00    +0.000 A 
ATOM      8  C   UNL     1       2.633   5.671  18.818  0.00  0.00    +0.000 A 
ATOM      9  C   UNL     1       2.831   5.778  20.197  0.00  0.00    +0.000 A 
ATOM     10  C   UNL     1       2.320   4.801  21.053  0.00  0.00    +0.000 A 
ENDBRANCH   1   8
BRANCH   1  11
ATOM     11  C   UNL     1       4.326   6.011  17.080  0.00  0.00    +0.000 C 
BRANCH  11  12
ATOM     12  C   UNL     1       5.693   6.213  17.677  0.00  0.00    +0.000 A 
ATOM     13  C   UNL     1       6.643   7.159  17.340  0.00  0.00    +0.000 A 
ATOM     14  C   UNL     1       7.832   7.040  18.120  0.00  0.00    +0.000 A 
ATOM     15  C   UNL     1       7.760   5.995  19.011  0.00  0.00    +0.000 A 
ATOM     16  S   UNL     1       6.278   5.152  18.892  0.00  0.00    +0.000 S 
ENDBRANCH  11  12
ENDBRANCH   1  11
BRANCH   2  17
ATOM     17  C   UNL     1       1.632   8.379  18.517  0.00  0.00    +0.000 C 
BRANCH  17  18
ATOM     18  O   UNL     1       0.910   9.305  17.709  0.00  0.00    +0.000 OA
BRANCH  18  19
ATOM     19  C   UNL     1       0.014  10.120  18.348  0.00  0.00    +0.000 A 
ATOM     20  C   UNL     1      -1.329  10.287  18.008  0.00  0.00    +0.000 A 
ATOM     21  C   UNL     1      -2.131  11.169  18.739  0.00  0.00    +0.000 A 
ATOM     22  C   UNL     1      -1.600  11.889  19.808  0.00  0.00    +0.000 A 
ATOM     23  C   UNL     1      -0.256  11.729  20.163  0.00  0.00    +0.000 A 
ATOM     24  C   UNL     1       0.331  12.491  21.314  0.00  0.00    +0.000 C 
ATOM     25  C   UNL     1       0.540  10.844  19.424  0.00  0.00    +0.000 A 
ENDBRANCH  18  19
ENDBRANCH  17  18
ENDBRANCH   2  17
TORSDOF 6
ENDMDL
MODEL 6
REMARK VINA RESULT:      -7.2      0.743      1.497
REMARK  Name = 
REMARK  8 active torsions:
REMARK  status: ('A' for Active; 'I' for Inactive)
REMARK    1  A    between atoms: C_1  and  C_2
REMARK    2  A    between atoms: C_5  and  N_6
REMARK    3  A    between atoms: N_6  and  C_7
REMARK    4  A    between atoms: C_7  and  C_8
REMARK    5  A    between atoms: C_13  and  C_15
REMARK    6  A    between atoms: C_15  and  O_16
REMARK    7  A    between atoms: O_16  and  C_17
REMARK    8  A    between atoms: C_21  and  C_22
REMARK                            x       y       z     vdW  Elec       q    Type
REMARK                         _______ _______ _______ _____ _____    ______ ____
ROOT
ATOM      1  N   UNL     1       3.112   6.465  18.083  0.00  0.00    +0.000 N 
ATOM      2  C   UNL     1       2.639   7.761  17.902  0.00  0.00    +0.000 C 
ATOM      3  O   UNL     1       3.140   8.527  17.068  0.00  0.00    +0.000 OA
ENDROOT
BRANCH   1   8
ATOM      4  C   UNL     1       1.227   2.416  21.630  0.00  0.00    +0.000 C 
ATOM      5  C   UNL     1       1.639   3.532  20.716  0.00  0.00    +0.000 A 
ATOM      6  C   UNL     1       1.236   3.540  19.374  0.00  0.00    +0.000 A 
ATOM      7  C   UNL     1       1.686   4.539  18.506  0.00  0.00    +0.000 A 
ATOM      8  C   UNL     1       2.529   5.544  18.981  0.00  0.00    +0.000 A 
ATOM      9  C   UNL     1       2.874   5.586  20.334  0.00  0.00    +0.000 A 
ATOM     10  C   UNL     1       2.424   4.587  21.199  0.00  0.00    +0.000 A 
ENDBRANCH   1   8
BRANCH   1  11
ATOM     11  C   UNL     1       4.115   5.930  17.154  0.00  0.00    +0.000 C 
BRANCH  11  12
ATOM     12  C   UNL     1       5.509   6.165  17.668  0.00  0.00    +0.000 A 
ATOM     13  C   UNL     1       6.416   7.133  17.275  0.00  0.00    +0.000 A 
ATOM     14  C   UNL     1       7.651   7.043  17.984  0.00  0.00    +0.000 A 
ATOM     15  C   UNL     1       7.656   5.998  18.879  0.00  0.00    +0.000 A 
ATOM     16  S   UNL     1       6.190   5.121  18.847  0.00  0.00    +0.000 S 
ENDBRANCH  11  12
ENDBRANCH   1  11
BRANCH   2  17
ATOM     17  C   UNL     1       1.462   8.235  18.760  0.00  0.00    +0.000 C 
BRANCH  17  18
ATOM     18  O   UNL     1       1.919   8.444  20.094  0.00  0.00    +0.000 OA
BRANCH  18  19
ATOM     19  C   UNL     1       1.080   9.120  20.939  0.00  0.00    +0.000 A 
ATOM     20  C   UNL     1       0.965   8.917  22.315  0.00  0.00    +0.000 A 
ATOM     21  C   UNL     1       0.051   9.670  23.059  0.00  0.00    +0.000 A 
ATOM     22  C   UNL     1      -0.753  10.625  22.437  0.00  0.00    +0.000 A 
ATOM     23  C   UNL     1      -0.645  10.842  21.059  0.00  0.00    +0.000 A 
ATOM     24  C   UNL     1      -1.497  11.869  20.374  0.00  0.00    +0.000 C 
ATOM     25  C   UNL     1       0.272  10.081  20.322  0.00  0.00    +0.000 A 
ENDBRANCH  18  19
ENDBRANCH  17  18
ENDBRANCH   2  17
TORSDOF 6
ENDMDL
MODEL 7
REMARK VINA RESULT:      -7.2      0.922      1.102
REMARK  Name = 
REMARK  8 active torsions:
REMARK  status: ('A' for Active; 'I' for Inactive)
REMARK    1  A    between atoms: C_1  and  C_2
REMARK    2  A    between atoms: C_5  and  N_6
REMARK    3  A    between atoms: N_6  and  C_7
REMARK    4  A    between atoms: C_7  and  C_8
REMARK    5  A    between atoms: C_13  and  C_15
REMARK    6  A    between atoms: C_15  and  O_16
REMARK    7  A    between atoms: O_16  and  C_17
REMARK    8  A    between atoms: C_21  and  C_22
REMARK                            x       y       z     vdW  Elec       q    Type
REMARK                         _______ _______ _______ _____ _____    ______ ____
ROOT
ATOM      1  N   UNL     1       3.426   6.178  17.854  0.00  0.00    +0.000 N 
ATOM      2  C   UNL     1       2.953   7.424  17.451  0.00  0.00    +0.000 C 
ATOM      3  O   UNL     1       3.547   8.101  16.602  0.00  0.00    +0.000 OA
ENDROOT
BRANCH   1   8
ATOM      4  C   UNL     1       1.161   2.515  21.594  0.00  0.00    +0.000 C 
ATOM      5  C   UNL     1       1.670   3.528  20.612  0.00  0.00    +0.000 A 
ATOM      6  C   UNL     1       1.448   3.365  19.238  0.00  0.00    +0.000 A 
ATOM      7  C   UNL     1       1.990   4.268  18.320  0.00  0.00    +0.000 A 
ATOM      8  C   UNL     1       2.745   5.350  18.774  0.00  0.00    +0.000 A 
ATOM      9  C   UNL     1       2.908   5.563  20.146  0.00  0.00    +0.000 A 
ATOM     10  C   UNL     1       2.366   4.658  21.060  0.00  0.00    +0.000 A 
ENDBRANCH   1   8
BRANCH   1  11
ATOM     11  C   UNL     1       4.557   5.574  17.140  0.00  0.00    +0.000 C 
BRANCH  11  12
ATOM     12  C   UNL     1       5.852   5.833  17.861  0.00  0.00    +0.000 A 
ATOM     13  C   UNL     1       6.337   5.218  19.000  0.00  0.00    +0.000 A 
ATOM     14  C   UNL     1       7.605   5.734  19.402  0.00  0.00    +0.000 A 
ATOM     15  C   UNL     1       8.037   6.741  18.570  0.00  0.00    +0.000 A 
ATOM     16  S   UNL     1       6.911   7.074  17.328  0.00  0.00    +0.000 S 
ENDBRANCH  11  12
ENDBRANCH   1  11
BRANCH   2  17
ATOM     17  C   UNL     1       1.661   7.952  18.080  0.00  0.00    +0.000 C 
BRANCH  17  18
ATOM     18  O   UNL     1       1.988   8.704  19.245  0.00  0.00    +0.000 OA
BRANCH  18  19
ATOM     19  C   UNL     1       1.019   9.534  19.742  0.00  0.00    +0.000 A 
ATOM     20  C   UNL     1       0.355  10.536  19.033  0.00  0.00    +0.000 A 
ATOM     21  C   UNL     1      -0.607  11.325  19.672  0.00  0.00    +0.000 A 
ATOM     22  C   UNL     1      -0.908  11.123  21.019  0.00  0.00    +0.000 A 
ATOM     23  C   UNL     1      -0.252  10.120  21.741  0.00  0.00    +0.000 A 
ATOM     24  C   UNL     1      -0.568   9.884  23.188  0.00  0.00    +0.000 C 
ATOM     25  C   UNL     1       0.710   9.336  21.093  0.00  0.00    +0.000 A 
ENDBRANCH  18  19
ENDBRANCH  17  18
ENDBRANCH   2  17
TORSDOF 6
ENDMDL
MODEL 8
REMARK VINA RESULT:      -7.1      0.435      1.054
REMARK  Name = 
REMARK  8 active torsions:
REMARK  status: ('A' for Active; 'I' for Inactive)
REMARK    1  A    between atoms: C_1  and  C_2
REMARK    2  A    between atoms: C_5  and  N_6
REMARK    3  A    between atoms: N_6  and  C_7
REMARK    4  A    between atoms: C_7  and  C_8
REMARK    5  A    between atoms: C_13  and  C_15
REMARK    6  A    between atoms: C_15  and  O_16
REMARK    7  A    between atoms: O_16  and  C_17
REMARK    8  A    between atoms: C_21  and  C_22
REMARK                            x       y       z     vdW  Elec       q    Type
REMARK                         _______ _______ _______ _____ _____    ______ ____
ROOT
ATOM      1  N   UNL     1       3.297   6.875  17.894  0.00  0.00    +0.000 N 
ATOM      2  C   UNL     1       2.712   8.136  17.961  0.00  0.00    +0.000 C 
ATOM      3  O   UNL     1       3.101   9.073  17.251  0.00  0.00    +0.000 OA
ENDROOT
BRANCH   1   8
ATOM      4  C   UNL     1       0.985   2.713  21.035  0.00  0.00    +0.000 C 
ATOM      5  C   UNL     1       1.672   3.748  20.194  0.00  0.00    +0.000 A 
ATOM      6  C   UNL     1       2.576   4.651  20.770  0.00  0.00    +0.000 A 
ATOM      7  C   UNL     1       3.155   5.663  19.999  0.00  0.00    +0.000 A 
ATOM      8  C   UNL     1       2.843   5.768  18.643  0.00  0.00    +0.000 A 
ATOM      9  C   UNL     1       2.001   4.827  18.045  0.00  0.00    +0.000 A 
ATOM     10  C   UNL     1       1.424   3.818  18.816  0.00  0.00    +0.000 A 
ENDBRANCH   1   8
BRANCH   1  11
ATOM     11  C   UNL     1       4.283   6.596  16.843  0.00  0.00    +0.000 C 
BRANCH  11  12
ATOM     12  C   UNL     1       5.665   6.459  17.420  0.00  0.00    +0.000 A 
ATOM     13  C   UNL     1       6.648   7.426  17.532  0.00  0.00    +0.000 A 
ATOM     14  C   UNL     1       7.842   6.924  18.128  0.00  0.00    +0.000 A 
ATOM     15  C   UNL     1       7.743   5.586  18.433  0.00  0.00    +0.000 A 
ATOM     16  S   UNL     1       6.227   4.938  17.983  0.00  0.00    +0.000 S 
ENDBRANCH  11  12
ENDBRANCH   1  11
BRANCH   2  17
ATOM     17  C   UNL     1       1.554   8.352  18.940  0.00  0.00    +0.000 C 
BRANCH  17  18
ATOM     18  O   UNL     1       0.841   9.526  18.559  0.00  0.00    +0.000 OA
BRANCH  18  19
ATOM     19  C   UNL     1       0.445  10.366  19.565  0.00  0.00    +0.000 A 
ATOM     20  C   UNL     1       0.286  11.749  19.464  0.00  0.00    +0.000 A 
ATOM     21  C   UNL     1      -0.110  12.491  20.581  0.00  0.00    +0.000 A 
ATOM     22  C   UNL     1      -0.346  11.861  21.803  0.00  0.00    +0.000 A 
ATOM     23  C   UNL     1      -0.194  10.475  21.918  0.00  0.00    +0.000 A 
ATOM     24  C   UNL     1      -0.450   9.780  23.223  0.00  0.00    +0.000 C 
ATOM     25  C   UNL     1       0.204   9.741  20.794  0.00  0.00    +0.000 A 
ENDBRANCH  18  19
ENDBRANCH  17  18
ENDBRANCH   2  17
TORSDOF 6
ENDMDL
MODEL 9
REMARK VINA RESULT:      -7.1      1.603      2.135
REMARK  Name = 
REMARK  8 active torsions:
REMARK  status: ('A' for Active; 'I' for Inactive)
REMARK    1  A    between atoms: C_1  and  C_2
REMARK    2  A    between atoms: C_5  and  N_6
REMARK    3  A    between atoms: N_6  and  C_7
REMARK    4  A    between atoms: C_7  and  C_8
REMARK    5  A    between atoms: C_13  and  C_15
REMARK    6  A    between atoms: C_15  and  O_16
REMARK    7  A    between atoms: O_16  and  C_17
REMARK    8  A    between atoms: C_21  and  C_22
REMARK                            x       y       z     vdW  Elec       q    Type
REMARK                         _______ _______ _______ _____ _____    ______ ____
ROOT
ATOM      1  N   UNL     1       3.241   6.451  18.084  0.00  0.00    +0.000 N 
ATOM      2  C   UNL     1       2.791   7.750  17.868  0.00  0.00    +0.000 C 
ATOM      3  O   UNL     1       3.339   8.502  17.051  0.00  0.00    +0.000 OA
ENDROOT
BRANCH   1   8
ATOM      4  C   UNL     1       1.166   2.481  21.614  0.00  0.00    +0.000 C 
ATOM      5  C   UNL     1       1.625   3.573  20.694  0.00  0.00    +0.000 A 
ATOM      6  C   UNL     1       1.356   3.508  19.320  0.00  0.00    +0.000 A 
ATOM      7  C   UNL     1       1.852   4.487  18.455  0.00  0.00    +0.000 A 
ATOM      8  C   UNL     1       2.607   5.546  18.962  0.00  0.00    +0.000 A 
ATOM      9  C   UNL     1       2.815   5.658  20.339  0.00  0.00    +0.000 A 
ATOM     10  C   UNL     1       2.320   4.679  21.202  0.00  0.00    +0.000 A 
ENDBRANCH   1   8
BRANCH   1  11
ATOM     11  C   UNL     1       4.280   5.896  17.208  0.00  0.00    +0.000 C 
BRANCH  11  12
ATOM     12  C   UNL     1       5.640   6.009  17.842  0.00  0.00    +0.000 A 
ATOM     13  C   UNL     1       6.146   5.300  18.916  0.00  0.00    +0.000 A 
ATOM     14  C   UNL     1       7.479   5.687  19.245  0.00  0.00    +0.000 A 
ATOM     15  C   UNL     1       7.941   6.692  18.428  0.00  0.00    +0.000 A 
ATOM     16  S   UNL     1       6.765   7.180  17.287  0.00  0.00    +0.000 S 
ENDBRANCH  11  12
ENDBRANCH   1  11
BRANCH   2  17
ATOM     17  C   UNL     1       1.581   8.245  18.666  0.00  0.00    +0.000 C 
BRANCH  17  18
ATOM     18  O   UNL     1       1.631   9.667  18.746  0.00  0.00    +0.000 OA
BRANCH  18  19
ATOM     19  C   UNL     1       0.464  10.344  18.512  0.00  0.00    +0.000 A 
ATOM     20  C   UNL     1      -0.667   9.833  17.876  0.00  0.00    +0.000 A 
ATOM     21  C   UNL     1      -1.791  10.643  17.687  0.00  0.00    +0.000 A 
ATOM     22  C   UNL     1      -1.791  11.967  18.127  0.00  0.00    +0.000 A 
ATOM     23  C   UNL     1      -0.665  12.492  18.770  0.00  0.00    +0.000 A 
ATOM     24  C   UNL     1      -0.650  13.911  19.256  0.00  0.00    +0.000 C 
ATOM     25  C   UNL     1       0.455  11.672  18.953  0.00  0.00    +0.000 A 
ENDBRANCH  18  19
ENDBRANCH  17  18
ENDBRANCH   2  17
TORSDOF 6
ENDMDL
