MODEL 1
REMARK VINA RESULT:      -7.8      0.000      0.000
REMARK  Name = 
REMARK  7 active torsions:
REMARK  status: ('A' for Active; 'I' for Inactive)
REMARK    1  A    between atoms: C_1  and  C_2
REMARK    2  A    between atoms: C_2  and  S_3
REMARK    3  A    between atoms: S_3  and  C_4
REMARK    4  A    between atoms: C_9  and  C_10
REMARK    5  A    between atoms: N_12  and  C_13
REMARK    6  A    between atoms: C_14  and  C_15
REMARK    7  A    between atoms: N_17  and  C_18
REMARK                            x       y       z     vdW  Elec       q    Type
REMARK                         _______ _______ _______ _____ _____    ______ ____
ROOT
ATOM      1  C   UNL     1       6.009   5.766  16.759  0.00  0.00    +0.000 A 
ATOM      2  C   UNL     1       7.180   6.502  16.660  0.00  0.00    +0.000 A 
ATOM      3  O   UNL     1       7.852   6.170  15.513  0.00  0.00    +0.000 OA
ATOM      4  C   UNL     1       7.076   5.247  14.858  0.00  0.00    +0.000 A 
ATOM      5  C   UNL     1       7.365   4.663  13.623  0.00  0.00    +0.000 A 
ATOM      6  C   UNL     1       6.396   3.800  13.089  0.00  0.00    +0.000 A 
ATOM      7  C   UNL     1       5.207   3.538  13.772  0.00  0.00    +0.000 A 
ATOM      8  C   UNL     1       4.959   4.110  15.026  0.00  0.00    +0.000 A 
ATOM      9  C   UNL     1       5.918   4.977  15.584  0.00  0.00    +0.000 A 
ENDROOT
BRANCH   1  12
ATOM     10  C   UNL     1       3.974   6.655  17.745  0.00  0.00    +0.000 C 
ATOM     11  O   UNL     1       3.702   7.387  16.802  0.00  0.00    +0.000 OA
ATOM     12  N   UNL     1       5.123   5.878  17.827  0.00  0.00    +0.000 N 
ATOM     13  H   UNL     1       5.008   5.044  18.408  0.00  0.00    +0.000 HD
BRANCH  10  19
ATOM     14  C   UNL     1       2.284   4.964  20.503  0.00  0.00    +0.000 A 
ATOM     15  N   UNL     1       1.487   5.875  21.074  0.00  0.00    +0.000 NA
ATOM     16  C   UNL     1       1.484   7.106  20.518  0.00  0.00    +0.000 A 
ATOM     17  C   UNL     1       2.234   7.468  19.418  0.00  0.00    +0.000 A 
ATOM     18 CL   UNL     1       2.083   9.067  18.817  0.00  0.00    +0.000 Cl
ATOM     19  C   UNL     1       3.034   6.459  18.913  0.00  0.00    +0.000 A 
ATOM     20  N   UNL     1       3.063   5.198  19.434  0.00  0.00    +0.000 NA
BRANCH  14  21
ATOM     21  S   UNL     1       2.365   3.352  21.224  0.00  0.00    +0.000 S 
BRANCH  21  23
ATOM     22  C   UNL     1       0.796   2.571  19.123  0.00  0.00    +0.000 C 
ATOM     23  C   UNL     1       2.182   2.361  19.711  0.00  0.00    +0.000 C 
ENDBRANCH  21  23
ENDBRANCH  14  21
ENDBRANCH  10  19
ENDBRANCH   1  12
BRANCH   2  24
ATOM     24  C   UNL     1       7.706   7.440  17.632  0.00  0.00    +0.000 C 
ATOM     25  O   UNL     1       7.957   7.043  18.771  0.00  0.00    +0.000 OA
ATOM     26  N   UNL     1       7.854   8.759  17.228  0.00  0.00    +0.000 N 
ATOM     27  H   UNL     1       7.424   9.023  16.351  0.00  0.00    +0.000 HD
BRANCH  26  28
ATOM     28  C   UNL     1       8.405   9.776  18.052  0.00  0.00    +0.000 A 
ATOM     29  C   UNL     1       8.349  11.134  17.713  0.00  0.00    +0.000 A 
ATOM     30  C   UNL     1       8.952  12.109  18.508  0.00  0.00    +0.000 A 
ATOM     31  C   UNL     1       9.614  11.734  19.674  0.00  0.00    +0.000 A 
ATOM     32  C   UNL     1       9.649  10.396  20.045  0.00  0.00    +0.000 A 
ATOM     33  C   UNL     1       9.036   9.415  19.250  0.00  0.00    +0.000 A 
ENDBRANCH  26  28
ENDBRANCH   2  24
TORSDOF 6
ENDMDL
MODEL 2
REMARK VINA RESULT:      -7.7      0.417      1.086
REMARK  Name = 
REMARK  7 active torsions:
REMARK  status: ('A' for Active; 'I' for Inactive)
REMARK    1  A    between atoms: C_1  and  C_2
REMARK    2  A    between atoms: C_2  and  S_3
REMARK    3  A    between atoms: S_3  and  C_4
REMARK    4  A    between atoms: C_9  and  C_10
REMARK    5  A    between atoms: N_12  and  C_13
REMARK    6  A    between atoms: C_14  and  C_15
REMARK    7  A    between atoms: N_17  and  C_18
REMARK                            x       y       z     vdW  Elec       q    Type
REMARK                         _______ _______ _______ _____ _____    ______ ____
ROOT
ATOM      1  C   UNL     1       5.986   5.802  16.773  0.00  0.00    +0.000 A 
ATOM      2  C   UNL     1       7.183   6.495  16.681  0.00  0.00    +0.000 A 
ATOM      3  O   UNL     1       7.853   6.135  15.541  0.00  0.00    +0.000 OA
ATOM      4  C   UNL     1       7.050   5.238  14.883  0.00  0.00    +0.000 A 
ATOM      5  C   UNL     1       7.329   4.639  13.653  0.00  0.00    +0.000 A 
ATOM      6  C   UNL     1       6.333   3.809  13.114  0.00  0.00    +0.000 A 
ATOM      7  C   UNL     1       5.130   3.593  13.787  0.00  0.00    +0.000 A 
ATOM      8  C   UNL     1       4.892   4.179  15.037  0.00  0.00    +0.000 A 
ATOM      9  C   UNL     1       5.877   5.012  15.600  0.00  0.00    +0.000 A 
ENDROOT
BRANCH   1  12
ATOM     10  C   UNL     1       3.954   6.735  17.723  0.00  0.00    +0.000 C 
ATOM     11  O   UNL     1       3.694   7.444  16.760  0.00  0.00    +0.000 OA
ATOM     12  N   UNL     1       5.096   5.951  17.832  0.00  0.00    +0.000 N 
ATOM     13  H   UNL     1       4.970   5.133  18.434  0.00  0.00    +0.000 HD
BRANCH  10  19
ATOM     14  C   UNL     1       2.268   5.149  20.545  0.00  0.00    +0.000 A 
ATOM     15  N   UNL     1       1.448   6.072  21.064  0.00  0.00    +0.000 NA
ATOM     16  C   UNL     1       1.429   7.274  20.448  0.00  0.00    +0.000 A 
ATOM     17  C   UNL     1       2.183   7.596  19.340  0.00  0.00    +0.000 A 
ATOM     18 CL   UNL     1       2.010   9.161  18.660  0.00  0.00    +0.000 Cl
ATOM     19  C   UNL     1       3.006   6.579  18.891  0.00  0.00    +0.000 A 
ATOM     20  N   UNL     1       3.053   5.345  19.473  0.00  0.00    +0.000 NA
BRANCH  14  21
ATOM     21  S   UNL     1       2.370   3.575  21.344  0.00  0.00    +0.000 S 
BRANCH  21  23
ATOM     22  C   UNL     1       4.257   2.222  19.897  0.00  0.00    +0.000 C 
ATOM     23  C   UNL     1       2.773   2.554  19.896  0.00  0.00    +0.000 C 
ENDBRANCH  21  23
ENDBRANCH  14  21
ENDBRANCH  10  19
ENDBRANCH   1  12
BRANCH   2  24
ATOM     24  C   UNL     1       7.734   7.418  17.654  0.00  0.00    +0.000 C 
ATOM     25  O   UNL     1       8.004   7.006  18.783  0.00  0.00    +0.000 OA
ATOM     26  N   UNL     1       7.886   8.740  17.263  0.00  0.00    +0.000 N 
ATOM     27  H   UNL     1       7.442   9.018  16.397  0.00  0.00    +0.000 HD
BRANCH  26  28
ATOM     28  C   UNL     1       8.459   9.743  18.088  0.00  0.00    +0.000 A 
ATOM     29  C   UNL     1       9.002   9.463  19.349  0.00  0.00    +0.000 A 
ATOM     30  C   UNL     1       9.503  10.475  20.168  0.00  0.00    +0.000 A 
ATOM     31  C   UNL     1       9.481  11.794  19.725  0.00  0.00    +0.000 A 
ATOM     32  C   UNL     1       8.980  12.087  18.463  0.00  0.00    +0.000 A 
ATOM     33  C   UNL     1       8.482  11.068  17.635  0.00  0.00    +0.000 A 
ENDBRANCH  26  28
ENDBRANCH   2  24
TORSDOF 6
ENDMDL
MODEL 3
REMARK VINA RESULT:      -7.6      1.755      2.722
REMARK  Name = 
REMARK  7 active torsions:
REMARK  status: ('A' for Active; 'I' for Inactive)
REMARK    1  A    between atoms: C_1  and  C_2
REMARK    2  A    between atoms: C_2  and  S_3
REMARK    3  A    between atoms: S_3  and  C_4
REMARK    4  A    between atoms: C_9  and  C_10
REMARK    5  A    between atoms: N_12  and  C_13
REMARK    6  A    between atoms: C_14  and  C_15
REMARK    7  A    between atoms: N_17  and  C_18
REMARK                            x       y       z     vdW  Elec       q    Type
REMARK                         _______ _______ _______ _____ _____    ______ ____
ROOT
ATOM      1  C   UNL     1       6.016   5.743  16.845  0.00  0.00    +0.000 A 
ATOM      2  C   UNL     1       7.182   6.481  16.723  0.00  0.00    +0.000 A 
ATOM      3  O   UNL     1       7.827   6.159  15.558  0.00  0.00    +0.000 OA
ATOM      4  C   UNL     1       7.037   5.240  14.915  0.00  0.00    +0.000 A 
ATOM      5  C   UNL     1       7.297   4.666  13.669  0.00  0.00    +0.000 A 
ATOM      6  C   UNL     1       6.316   3.805  13.152  0.00  0.00    +0.000 A 
ATOM      7  C   UNL     1       5.145   3.536  13.861  0.00  0.00    +0.000 A 
ATOM      8  C   UNL     1       4.926   4.098  15.125  0.00  0.00    +0.000 A 
ATOM      9  C   UNL     1       5.898   4.962  15.667  0.00  0.00    +0.000 A 
ENDROOT
BRANCH   1  12
ATOM     10  C   UNL     1       3.997   6.611  17.882  0.00  0.00    +0.000 C 
ATOM     11  O   UNL     1       3.695   7.341  16.948  0.00  0.00    +0.000 OA
ATOM     12  N   UNL     1       5.156   5.845  17.934  0.00  0.00    +0.000 N 
ATOM     13  H   UNL     1       5.063   5.009  18.517  0.00  0.00    +0.000 HD
BRANCH  10  19
ATOM     14  C   UNL     1       1.605   7.430  20.514  0.00  0.00    +0.000 A 
ATOM     15  N   UNL     1       1.339   6.285  21.154  0.00  0.00    +0.000 NA
ATOM     16  C   UNL     1       1.990   5.185  20.716  0.00  0.00    +0.000 A 
ATOM     17  C   UNL     1       2.895   5.176  19.675  0.00  0.00    +0.000 A 
ATOM     18 CL   UNL     1       3.661   3.696  19.271  0.00  0.00    +0.000 Cl
ATOM     19  C   UNL     1       3.089   6.406  19.073  0.00  0.00    +0.000 A 
ATOM     20  N   UNL     1       2.462   7.546  19.486  0.00  0.00    +0.000 NA
BRANCH  14  21
ATOM     21  S   UNL     1       0.741   8.889  21.014  0.00  0.00    +0.000 S 
BRANCH  21  23
ATOM     22  C   UNL     1      -0.440  10.301  18.990  0.00  0.00    +0.000 C 
ATOM     23  C   UNL     1       0.926   9.858  19.487  0.00  0.00    +0.000 C 
ENDBRANCH  21  23
ENDBRANCH  14  21
ENDBRANCH  10  19
ENDBRANCH   1  12
BRANCH   2  24
ATOM     24  C   UNL     1       7.730   7.414  17.689  0.00  0.00    +0.000 C 
ATOM     25  O   UNL     1       7.997   7.012  18.823  0.00  0.00    +0.000 OA
ATOM     26  N   UNL     1       7.882   8.732  17.286  0.00  0.00    +0.000 N 
ATOM     27  H   UNL     1       7.440   9.002  16.416  0.00  0.00    +0.000 HD
BRANCH  26  28
ATOM     28  C   UNL     1       8.452   9.743  18.104  0.00  0.00    +0.000 A 
ATOM     29  C   UNL     1       9.023   9.470  19.353  0.00  0.00    +0.000 A 
ATOM     30  C   UNL     1       9.522  10.488  20.166  0.00  0.00    +0.000 A 
ATOM     31  C   UNL     1       9.467  11.807  19.727  0.00  0.00    +0.000 A 
ATOM     32  C   UNL     1       8.937  12.095  18.476  0.00  0.00    +0.000 A 
ATOM     33  C   UNL     1       8.442  11.069  17.654  0.00  0.00    +0.000 A 
ENDBRANCH  26  28
ENDBRANCH   2  24
TORSDOF 6
ENDMDL
MODEL 4
REMARK VINA RESULT:      -7.6      1.832      2.640
REMARK  Name = 
REMARK  7 active torsions:
REMARK  status: ('A' for Active; 'I' for Inactive)
REMARK    1  A    between atoms: C_1  and  C_2
REMARK    2  A    between atoms: C_2  and  S_3
REMARK    3  A    between atoms: S_3  and  C_4
REMARK    4  A    between atoms: C_9  and  C_10
REMARK    5  A    between atoms: N_12  and  C_13
REMARK    6  A    between atoms: C_14  and  C_15
REMARK    7  A    between atoms: N_17  and  C_18
REMARK                            x       y       z     vdW  Elec       q    Type
REMARK                         _______ _______ _______ _____ _____    ______ ____
ROOT
ATOM      1  C   UNL     1       5.981   5.892  16.853  0.00  0.00    +0.000 A 
ATOM      2  C   UNL     1       7.188   6.563  16.739  0.00  0.00    +0.000 A 
ATOM      3  O   UNL     1       7.851   6.157  15.610  0.00  0.00    +0.000 OA
ATOM      4  C   UNL     1       7.033   5.253  14.981  0.00  0.00    +0.000 A 
ATOM      5  C   UNL     1       7.301   4.612  13.769  0.00  0.00    +0.000 A 
ATOM      6  C   UNL     1       6.292   3.780  13.257  0.00  0.00    +0.000 A 
ATOM      7  C   UNL     1       5.086   3.604  13.938  0.00  0.00    +0.000 A 
ATOM      8  C   UNL     1       4.859   4.232  15.169  0.00  0.00    +0.000 A 
ATOM      9  C   UNL     1       5.858   5.068  15.705  0.00  0.00    +0.000 A 
ENDROOT
BRANCH   1  12
ATOM     10  C   UNL     1       3.894   6.766  17.739  0.00  0.00    +0.000 C 
ATOM     11  O   UNL     1       3.568   7.345  16.710  0.00  0.00    +0.000 OA
ATOM     12  N   UNL     1       5.095   6.087  17.908  0.00  0.00    +0.000 N 
ATOM     13  H   UNL     1       5.040   5.332  18.597  0.00  0.00    +0.000 HD
BRANCH  10  19
ATOM     14  C   UNL     1       1.545   7.836  20.319  0.00  0.00    +0.000 A 
ATOM     15  N   UNL     1       1.220   6.739  21.014  0.00  0.00    +0.000 NA
ATOM     16  C   UNL     1       1.814   5.587  20.633  0.00  0.00    +0.000 A 
ATOM     17  C   UNL     1       2.719   5.480  19.597  0.00  0.00    +0.000 A 
ATOM     18 CL   UNL     1       3.408   3.944  19.270  0.00  0.00    +0.000 Cl
ATOM     19  C   UNL     1       2.975   6.667  18.935  0.00  0.00    +0.000 A 
ATOM     20  N   UNL     1       2.407   7.857  19.289  0.00  0.00    +0.000 NA
BRANCH  14  21
ATOM     21  S   UNL     1       0.756   9.360  20.742  0.00  0.00    +0.000 S 
BRANCH  21  23
ATOM     22  C   UNL     1      -0.204   9.506  23.300  0.00  0.00    +0.000 C 
ATOM     23  C   UNL     1       1.097   9.363  22.528  0.00  0.00    +0.000 C 
ENDBRANCH  21  23
ENDBRANCH  14  21
ENDBRANCH  10  19
ENDBRANCH   1  12
BRANCH   2  24
ATOM     24  C   UNL     1       7.755   7.508  17.681  0.00  0.00    +0.000 C 
ATOM     25  O   UNL     1       8.088   7.110  18.799  0.00  0.00    +0.000 OA
ATOM     26  N   UNL     1       7.847   8.832  17.279  0.00  0.00    +0.000 N 
ATOM     27  H   UNL     1       7.355   9.092  16.434  0.00  0.00    +0.000 HD
BRANCH  26  28
ATOM     28  C   UNL     1       8.427   9.856  18.073  0.00  0.00    +0.000 A 
ATOM     29  C   UNL     1       8.413  11.205  17.694  0.00  0.00    +0.000 A 
ATOM     30  C   UNL     1       9.044  12.185  18.461  0.00  0.00    +0.000 A 
ATOM     31  C   UNL     1       9.691  11.825  19.638  0.00  0.00    +0.000 A 
ATOM     32  C   UNL     1       9.686  10.499  20.050  0.00  0.00    +0.000 A 
ATOM     33  C   UNL     1       9.044   9.513  19.283  0.00  0.00    +0.000 A 
ENDBRANCH  26  28
ENDBRANCH   2  24
TORSDOF 6
ENDMDL
MODEL 5
REMARK VINA RESULT:      -7.3      7.142     11.384
REMARK  Name = 
REMARK  7 active torsions:
REMARK  status: ('A' for Active; 'I' for Inactive)
REMARK    1  A    between atoms: C_1  and  C_2
REMARK    2  A    between atoms: C_2  and  S_3
REMARK    3  A    between atoms: S_3  and  C_4
REMARK    4  A    between atoms: C_9  and  C_10
REMARK    5  A    between atoms: N_12  and  C_13
REMARK    6  A    between atoms: C_14  and  C_15
REMARK    7  A    between atoms: N_17  and  C_18
REMARK                            x       y       z     vdW  Elec       q    Type
REMARK                         _______ _______ _______ _____ _____    ______ ____
ROOT
ATOM      1  C   UNL     1      -0.589  13.236  21.895  0.00  0.00    +0.000 A 
ATOM      2  C   UNL     1      -0.523  11.851  21.891  0.00  0.00    +0.000 A 
ATOM      3  O   UNL     1      -1.532  11.327  22.656  0.00  0.00    +0.000 OA
ATOM      4  C   UNL     1      -2.270  12.390  23.111  0.00  0.00    +0.000 A 
ATOM      5  C   UNL     1      -3.419  12.311  23.901  0.00  0.00    +0.000 A 
ATOM      6  C   UNL     1      -4.072  13.520  24.191  0.00  0.00    +0.000 A 
ATOM      7  C   UNL     1      -3.583  14.738  23.715  0.00  0.00    +0.000 A 
ATOM      8  C   UNL     1      -2.408  14.791  22.954  0.00  0.00    +0.000 A 
ATOM      9  C   UNL     1      -1.733  13.592  22.653  0.00  0.00    +0.000 A 
ENDROOT
BRANCH   1  12
ATOM     10  C   UNL     1       0.125  14.396  19.883  0.00  0.00    +0.000 C 
ATOM     11  O   UNL     1      -0.760  13.942  19.170  0.00  0.00    +0.000 OA
ATOM     12  N   UNL     1       0.315  14.046  21.214  0.00  0.00    +0.000 N 
ATOM     13  H   UNL     1       0.768  14.780  21.765  0.00  0.00    +0.000 HD
BRANCH  10  19
ATOM     14  C   UNL     1       3.305  16.053  19.203  0.00  0.00    +0.000 A 
ATOM     15  N   UNL     1       3.010  17.189  18.559  0.00  0.00    +0.000 NA
ATOM     16  C   UNL     1       1.700  17.440  18.350  0.00  0.00    +0.000 A 
ATOM     17  C   UNL     1       0.672  16.615  18.757  0.00  0.00    +0.000 A 
ATOM     18 CL   UNL     1      -0.942  17.103  18.442  0.00  0.00    +0.000 Cl
ATOM     19  C   UNL     1       1.083  15.462  19.401  0.00  0.00    +0.000 A 
ATOM     20  N   UNL     1       2.395  15.170  19.644  0.00  0.00    +0.000 NA
BRANCH  14  21
ATOM     21  S   UNL     1       5.008  15.652  19.456  0.00  0.00    +0.000 S 
BRANCH  21  23
ATOM     22  C   UNL     1       6.813  14.477  17.769  0.00  0.00    +0.000 C 
ATOM     23  C   UNL     1       5.337  14.825  17.871  0.00  0.00    +0.000 C 
ENDBRANCH  21  23
ENDBRANCH  14  21
ENDBRANCH  10  19
ENDBRANCH   1  12
BRANCH   2  24
ATOM     24  C   UNL     1       0.486  11.027  21.256  0.00  0.00    +0.000 C 
ATOM     25  O   UNL     1       1.675  11.261  21.477  0.00  0.00    +0.000 OA
ATOM     26  N   UNL     1       0.047  10.038  20.388  0.00  0.00    +0.000 N 
ATOM     27  H   UNL     1      -0.927  10.066  20.113  0.00  0.00    +0.000 HD
BRANCH  26  28
ATOM     28  C   UNL     1       0.914   9.123  19.736  0.00  0.00    +0.000 A 
ATOM     29  C   UNL     1       1.483   8.024  20.393  0.00  0.00    +0.000 A 
ATOM     30  C   UNL     1       2.382   7.174  19.748  0.00  0.00    +0.000 A 
ATOM     31  C   UNL     1       2.716   7.408  18.417  0.00  0.00    +0.000 A 
ATOM     32  C   UNL     1       2.135   8.471  17.739  0.00  0.00    +0.000 A 
ATOM     33  C   UNL     1       1.224   9.322  18.385  0.00  0.00    +0.000 A 
ENDBRANCH  26  28
ENDBRANCH   2  24
TORSDOF 6
ENDMDL
MODEL 6
REMARK VINA RESULT:      -7.2      7.986     11.656
REMARK  Name = 
REMARK  7 active torsions:
REMARK  status: ('A' for Active; 'I' for Inactive)
REMARK    1  A    between atoms: C_1  and  C_2
REMARK    2  A    between atoms: C_2  and  S_3
REMARK    3  A    between atoms: S_3  and  C_4
REMARK    4  A    between atoms: C_9  and  C_10
REMARK    5  A    between atoms: N_12  and  C_13
REMARK    6  A    between atoms: C_14  and  C_15
REMARK    7  A    between atoms: N_17  and  C_18
REMARK                            x       y       z     vdW  Elec       q    Type
REMARK                         _______ _______ _______ _____ _____    ______ ____
ROOT
ATOM      1  C   UNL     1       1.981  15.573  19.204  0.00  0.00    +0.000 A 
ATOM      2  C   UNL     1       0.897  14.938  19.790  0.00  0.00    +0.000 A 
ATOM      3  O   UNL     1      -0.270  15.551  19.413  0.00  0.00    +0.000 OA
ATOM      4  C   UNL     1       0.078  16.555  18.546  0.00  0.00    +0.000 A 
ATOM      5  C   UNL     1      -0.807  17.413  17.889  0.00  0.00    +0.000 A 
ATOM      6  C   UNL     1      -0.247  18.323  16.978  0.00  0.00    +0.000 A 
ATOM      7  C   UNL     1       1.130  18.366  16.753  0.00  0.00    +0.000 A 
ATOM      8  C   UNL     1       1.997  17.516  17.452  0.00  0.00    +0.000 A 
ATOM      9  C   UNL     1       1.460  16.598  18.374  0.00  0.00    +0.000 A 
ENDROOT
BRANCH   1  12
ATOM     10  C   UNL     1       4.184  15.953  20.156  0.00  0.00    +0.000 C 
ATOM     11  O   UNL     1       3.932  17.073  20.582  0.00  0.00    +0.000 OA
ATOM     12  N   UNL     1       3.300  15.181  19.413  0.00  0.00    +0.000 N 
ATOM     13  H   UNL     1       3.463  14.175  19.507  0.00  0.00    +0.000 HD
BRANCH  10  19
ATOM     14  C   UNL     1       7.527  14.597  19.601  0.00  0.00    +0.000 A 
ATOM     15  N   UNL     1       7.930  14.093  20.773  0.00  0.00    +0.000 NA
ATOM     16  C   UNL     1       7.057  14.182  21.800  0.00  0.00    +0.000 A 
ATOM     17  C   UNL     1       5.801  14.744  21.710  0.00  0.00    +0.000 A 
ATOM     18 CL   UNL     1       4.803  14.742  23.105  0.00  0.00    +0.000 Cl
ATOM     19  C   UNL     1       5.487  15.248  20.461  0.00  0.00    +0.000 A 
ATOM     20  N   UNL     1       6.332  15.173  19.391  0.00  0.00    +0.000 NA
BRANCH  14  21
ATOM     21  S   UNL     1       8.652  14.553  18.238  0.00  0.00    +0.000 S 
BRANCH  21  23
ATOM     22  C   UNL     1      10.213  16.567  17.241  0.00  0.00    +0.000 C 
ATOM     23  C   UNL     1       9.470  16.155  18.502  0.00  0.00    +0.000 C 
ENDBRANCH  21  23
ENDBRANCH  14  21
ENDBRANCH  10  19
ENDBRANCH   1  12
BRANCH   2  24
ATOM     24  C   UNL     1       0.934  13.835  20.729  0.00  0.00    +0.000 C 
ATOM     25  O   UNL     1       1.695  13.899  21.696  0.00  0.00    +0.000 OA
ATOM     26  N   UNL     1       0.130  12.738  20.456  0.00  0.00    +0.000 N 
ATOM     27  H   UNL     1      -0.291  12.694  19.537  0.00  0.00    +0.000 HD
BRANCH  26  28
ATOM     28  C   UNL     1       0.023  11.610  21.311  0.00  0.00    +0.000 A 
ATOM     29  C   UNL     1      -0.914  11.537  22.350  0.00  0.00    +0.000 A 
ATOM     30  C   UNL     1      -0.958  10.444  23.217  0.00  0.00    +0.000 A 
ATOM     31  C   UNL     1      -0.065   9.392  23.043  0.00  0.00    +0.000 A 
ATOM     32  C   UNL     1       0.848   9.429  21.997  0.00  0.00    +0.000 A 
ATOM     33  C   UNL     1       0.889  10.525  21.119  0.00  0.00    +0.000 A 
ENDBRANCH  26  28
ENDBRANCH   2  24
TORSDOF 6
ENDMDL
MODEL 7
REMARK VINA RESULT:      -7.2      6.852     10.217
REMARK  Name = 
REMARK  7 active torsions:
REMARK  status: ('A' for Active; 'I' for Inactive)
REMARK    1  A    between atoms: C_1  and  C_2
REMARK    2  A    between atoms: C_2  and  S_3
REMARK    3  A    between atoms: S_3  and  C_4
REMARK    4  A    between atoms: C_9  and  C_10
REMARK    5  A    between atoms: N_12  and  C_13
REMARK    6  A    between atoms: C_14  and  C_15
REMARK    7  A    between atoms: N_17  and  C_18
REMARK                            x       y       z     vdW  Elec       q    Type
REMARK                         _______ _______ _______ _____ _____    ______ ____
ROOT
ATOM      1  C   UNL     1       1.358  13.948  20.172  0.00  0.00    +0.000 A 
ATOM      2  C   UNL     1       0.496  14.844  20.785  0.00  0.00    +0.000 A 
ATOM      3  O   UNL     1       0.690  16.105  20.285  0.00  0.00    +0.000 OA
ATOM      4  C   UNL     1       1.654  15.998  19.315  0.00  0.00    +0.000 A 
ATOM      5  C   UNL     1       2.135  17.040  18.520  0.00  0.00    +0.000 A 
ATOM      6  C   UNL     1       3.068  16.699  17.528  0.00  0.00    +0.000 A 
ATOM      7  C   UNL     1       3.494  15.381  17.358  0.00  0.00    +0.000 A 
ATOM      8  C   UNL     1       3.021  14.361  18.194  0.00  0.00    +0.000 A 
ATOM      9  C   UNL     1       2.087  14.679  19.199  0.00  0.00    +0.000 A 
ENDROOT
BRANCH   1  12
ATOM     10  C   UNL     1       0.480  11.693  19.960  0.00  0.00    +0.000 C 
ATOM     11  O   UNL     1      -0.497  12.013  19.296  0.00  0.00    +0.000 OA
ATOM     12  N   UNL     1       1.400  12.593  20.484  0.00  0.00    +0.000 N 
ATOM     13  H   UNL     1       2.331  12.189  20.617  0.00  0.00    +0.000 HD
BRANCH  10  19
ATOM     14  C   UNL     1       1.820   8.352  19.355  0.00  0.00    +0.000 A 
ATOM     15  N   UNL     1       1.641   7.662  20.487  0.00  0.00    +0.000 NA
ATOM     16  C   UNL     1       1.033   8.314  21.501  0.00  0.00    +0.000 A 
ATOM     17  C   UNL     1       0.591   9.619  21.436  0.00  0.00    +0.000 A 
ATOM     18 CL   UNL     1      -0.197  10.284  22.807  0.00  0.00    +0.000 Cl
ATOM     19  C   UNL     1       0.835  10.248  20.229  0.00  0.00    +0.000 A 
ATOM     20  N   UNL     1       1.437   9.627  19.172  0.00  0.00    +0.000 NA
BRANCH  14  21
ATOM     21  S   UNL     1       2.658   7.561  18.014  0.00  0.00    +0.000 S 
BRANCH  21  23
ATOM     22  C   UNL     1       2.221   4.866  17.846  0.00  0.00    +0.000 C 
ATOM     23  C   UNL     1       2.859   5.910  18.748  0.00  0.00    +0.000 C 
ENDBRANCH  21  23
ENDBRANCH  14  21
ENDBRANCH  10  19
ENDBRANCH   1  12
BRANCH   2  24
ATOM     24  C   UNL     1      -0.441  14.562  21.855  0.00  0.00    +0.000 C 
ATOM     25  O   UNL     1      -0.080  14.725  23.022  0.00  0.00    +0.000 OA
ATOM     26  N   UNL     1      -1.689  14.075  21.498  0.00  0.00    +0.000 N 
ATOM     27  H   UNL     1      -1.810  13.778  20.538  0.00  0.00    +0.000 HD
BRANCH  26  28
ATOM     28  C   UNL     1      -2.724  13.804  22.432  0.00  0.00    +0.000 A 
ATOM     29  C   UNL     1      -3.691  14.755  22.783  0.00  0.00    +0.000 A 
ATOM     30  C   UNL     1      -4.660  14.486  23.750  0.00  0.00    +0.000 A 
ATOM     31  C   UNL     1      -4.683  13.243  24.374  0.00  0.00    +0.000 A 
ATOM     32  C   UNL     1      -3.754  12.275  24.014  0.00  0.00    +0.000 A 
ATOM     33  C   UNL     1      -2.783  12.541  23.035  0.00  0.00    +0.000 A 
ENDBRANCH  26  28
ENDBRANCH   2  24
TORSDOF 6
ENDMDL
MODEL 8
REMARK VINA RESULT:      -7.2      6.506     10.137
REMARK  Name = 
REMARK  7 active torsions:
REMARK  status: ('A' for Active; 'I' for Inactive)
REMARK    1  A    between atoms: C_1  and  C_2
REMARK    2  A    between atoms: C_2  and  S_3
REMARK    3  A    between atoms: S_3  and  C_4
REMARK    4  A    between atoms: C_9  and  C_10
REMARK    5  A    between atoms: N_12  and  C_13
REMARK    6  A    between atoms: C_14  and  C_15
REMARK    7  A    between atoms: N_17  and  C_18
REMARK                            x       y       z     vdW  Elec       q    Type
REMARK                         _______ _______ _______ _____ _____    ______ ____
ROOT
ATOM      1  C   UNL     1       0.740  13.012  19.890  0.00  0.00    +0.000 A 
ATOM      2  C   UNL     1      -0.420  13.711  20.185  0.00  0.00    +0.000 A 
ATOM      3  O   UNL     1      -0.298  15.018  19.789  0.00  0.00    +0.000 OA
ATOM      4  C   UNL     1       0.934  15.134  19.197  0.00  0.00    +0.000 A 
ATOM      5  C   UNL     1       1.457  16.291  18.616  0.00  0.00    +0.000 A 
ATOM      6  C   UNL     1       2.709  16.174  17.991  0.00  0.00    +0.000 A 
ATOM      7  C   UNL     1       3.392  14.957  17.963  0.00  0.00    +0.000 A 
ATOM      8  C   UNL     1       2.859  13.821  18.585  0.00  0.00    +0.000 A 
ATOM      9  C   UNL     1       1.607  13.914  19.222  0.00  0.00    +0.000 A 
ENDROOT
BRANCH   1  12
ATOM     10  C   UNL     1       0.567  10.664  19.287  0.00  0.00    +0.000 C 
ATOM     11  O   UNL     1      -0.022  10.861  18.232  0.00  0.00    +0.000 OA
ATOM     12  N   UNL     1       0.916  11.664  20.187  0.00  0.00    +0.000 N 
ATOM     13  H   UNL     1       1.734  11.430  20.755  0.00  0.00    +0.000 HD
BRANCH  10  19
ATOM     14  C   UNL     1       2.330   7.476  19.074  0.00  0.00    +0.000 A 
ATOM     15  N   UNL     1       2.108   6.842  20.232  0.00  0.00    +0.000 NA
ATOM     16  C   UNL     1       1.323   7.480  21.127  0.00  0.00    +0.000 A 
ATOM     17  C   UNL     1       0.747   8.716  20.919  0.00  0.00    +0.000 A 
ATOM     18 CL   UNL     1      -0.254   9.368  22.149  0.00  0.00    +0.000 Cl
ATOM     19  C   UNL     1       1.050   9.292  19.698  0.00  0.00    +0.000 A 
ATOM     20  N   UNL     1       1.830   8.681  18.758  0.00  0.00    +0.000 NA
BRANCH  14  21
ATOM     21  S   UNL     1       3.393   6.707  17.889  0.00  0.00    +0.000 S 
BRANCH  21  23
ATOM     22  C   UNL     1       1.824   4.475  17.680  0.00  0.00    +0.000 C 
ATOM     23  C   UNL     1       3.102   4.970  18.339  0.00  0.00    +0.000 C 
ENDBRANCH  21  23
ENDBRANCH  14  21
ENDBRANCH  10  19
ENDBRANCH   1  12
BRANCH   2  24
ATOM     24  C   UNL     1      -1.590  13.210  20.879  0.00  0.00    +0.000 C 
ATOM     25  O   UNL     1      -2.060  12.120  20.546  0.00  0.00    +0.000 OA
ATOM     26  N   UNL     1      -2.145  14.018  21.860  0.00  0.00    +0.000 N 
ATOM     27  H   UNL     1      -1.816  14.974  21.909  0.00  0.00    +0.000 HD
BRANCH  26  28
ATOM     28  C   UNL     1      -3.257  13.637  22.656  0.00  0.00    +0.000 A 
ATOM     29  C   UNL     1      -3.122  12.883  23.829  0.00  0.00    +0.000 A 
ATOM     30  C   UNL     1      -4.234  12.467  24.561  0.00  0.00    +0.000 A 
ATOM     31  C   UNL     1      -5.510  12.818  24.131  0.00  0.00    +0.000 A 
ATOM     32  C   UNL     1      -5.663  13.595  22.990  0.00  0.00    +0.000 A 
ATOM     33  C   UNL     1      -4.543  14.021  22.257  0.00  0.00    +0.000 A 
ENDBRANCH  26  28
ENDBRANCH   2  24
TORSDOF 6
ENDMDL
MODEL 9
REMARK VINA RESULT:      -7.2      7.256     11.505
REMARK  Name = 
REMARK  7 active torsions:
REMARK  status: ('A' for Active; 'I' for Inactive)
REMARK    1  A    between atoms: C_1  and  C_2
REMARK    2  A    between atoms: C_2  and  S_3
REMARK    3  A    between atoms: S_3  and  C_4
REMARK    4  A    between atoms: C_9  and  C_10
REMARK    5  A    between atoms: N_12  and  C_13
REMARK    6  A    between atoms: C_14  and  C_15
REMARK    7  A    between atoms: N_17  and  C_18
REMARK                            x       y       z     vdW  Elec       q    Type
REMARK                         _______ _______ _______ _____ _____    ______ ____
ROOT
ATOM      1  C   UNL     1      -0.657  13.320  21.712  0.00  0.00    +0.000 A 
ATOM      2  C   UNL     1      -0.527  11.942  21.782  0.00  0.00    +0.000 A 
ATOM      3  O   UNL     1      -1.495  11.416  22.597  0.00  0.00    +0.000 OA
ATOM      4  C   UNL     1      -2.272  12.469  23.011  0.00  0.00    +0.000 A 
ATOM      5  C   UNL     1      -3.399  12.382  23.830  0.00  0.00    +0.000 A 
ATOM      6  C   UNL     1      -4.101  13.575  24.069  0.00  0.00    +0.000 A 
ATOM      7  C   UNL     1      -3.678  14.785  23.517  0.00  0.00    +0.000 A 
ATOM      8  C   UNL     1      -2.523  14.848  22.727  0.00  0.00    +0.000 A 
ATOM      9  C   UNL     1      -1.800  13.666  22.476  0.00  0.00    +0.000 A 
ENDROOT
BRANCH   1  12
ATOM     10  C   UNL     1      -0.013  14.362  19.613  0.00  0.00    +0.000 C 
ATOM     11  O   UNL     1      -0.865  13.796  18.940  0.00  0.00    +0.000 OA
ATOM     12  N   UNL     1       0.195  14.132  20.967  0.00  0.00    +0.000 N 
ATOM     13  H   UNL     1       0.597  14.935  21.458  0.00  0.00    +0.000 HD
BRANCH  10  19
ATOM     14  C   UNL     1       3.026  15.982  18.406  0.00  0.00    +0.000 A 
ATOM     15  N   UNL     1       2.664  17.199  17.981  0.00  0.00    +0.000 NA
ATOM     16  C   UNL     1       1.358  17.518  18.113  0.00  0.00    +0.000 A 
ATOM     17  C   UNL     1       0.400  16.684  18.651  0.00  0.00    +0.000 A 
ATOM     18 CL   UNL     1      -1.209  17.263  18.778  0.00  0.00    +0.000 Cl
ATOM     19  C   UNL     1       0.874  15.447  19.046  0.00  0.00    +0.000 A 
ATOM     20  N   UNL     1       2.186  15.082  18.942  0.00  0.00    +0.000 NA
BRANCH  14  21
ATOM     21  S   UNL     1       4.714  15.494  18.208  0.00  0.00    +0.000 S 
BRANCH  21  23
ATOM     22  C   UNL     1       6.683  16.491  19.825  0.00  0.00    +0.000 C 
ATOM     23  C   UNL     1       5.512  16.941  18.967  0.00  0.00    +0.000 C 
ENDBRANCH  21  23
ENDBRANCH  14  21
ENDBRANCH  10  19
ENDBRANCH   1  12
BRANCH   2  24
ATOM     24  C   UNL     1       0.505  11.130  21.168  0.00  0.00    +0.000 C 
ATOM     25  O   UNL     1       1.687  11.404  21.382  0.00  0.00    +0.000 OA
ATOM     26  N   UNL     1       0.095  10.105  20.329  0.00  0.00    +0.000 N 
ATOM     27  H   UNL     1      -0.879  10.097  20.054  0.00  0.00    +0.000 HD
BRANCH  26  28
ATOM     28  C   UNL     1       0.989   9.197  19.702  0.00  0.00    +0.000 A 
ATOM     29  C   UNL     1       1.423   9.358  18.380  0.00  0.00    +0.000 A 
ATOM     30  C   UNL     1       2.252   8.420  17.765  0.00  0.00    +0.000 A 
ATOM     31  C   UNL     1       2.674   7.302  18.479  0.00  0.00    +0.000 A 
ATOM     32  C   UNL     1       2.283   7.143  19.802  0.00  0.00    +0.000 A 
ATOM     33  C   UNL     1       1.454   8.092  20.424  0.00  0.00    +0.000 A 
ENDBRANCH  26  28
ENDBRANCH   2  24
TORSDOF 6
ENDMDL
