MODEL 1
REMARK VINA RESULT:      -8.0      0.000      0.000
REMARK  Name = 
REMARK  6 active torsions:
REMARK  status: ('A' for Active; 'I' for Inactive)
REMARK    1  A    between atoms: C_1  and  O_2
REMARK    2  A    between atoms: O_2  and  C_3
REMARK    3  A    between atoms: C_6  and  C_7
REMARK    4  A    between atoms: C_7  and  N_8
REMARK    5  A    between atoms: C_10  and  C_11
REMARK    6  A    between atoms: C_11  and  O_13
REMARK                            x       y       z     vdW  Elec       q    Type
REMARK                         _______ _______ _______ _____ _____    ______ ____
ROOT
ATOM      1  N   UNL     1       4.028   3.836  17.662  0.00  0.00    +0.000 N 
ATOM      2  C   UNL     1       3.782   2.435  17.653  0.00  0.00    +0.000 A 
ATOM      3  C   UNL     1       3.193   1.885  18.741  0.00  0.00    +0.000 A 
ATOM      4  C   UNL     1       1.828   2.521  18.677  0.00  0.00    +0.000 A 
ATOM      5  O   UNL     1       0.817   1.941  18.356  0.00  0.00    +0.000 OA
ATOM      6  C   UNL     1       1.943   3.982  18.942  0.00  0.00    +0.000 A 
ATOM      7  C   UNL     1       1.076   4.527  19.878  0.00  0.00    +0.000 A 
ATOM      8  F   UNL     1      -0.090   3.937  20.178  0.00  0.00    +0.000 F 
ATOM      9  C   UNL     1       1.500   5.608  20.628  0.00  0.00    +0.000 A 
ATOM     10  C   UNL     1       2.772   6.152  20.382  0.00  0.00    +0.000 A 
ATOM     11  C   UNL     1       3.590   5.683  19.320  0.00  0.00    +0.000 A 
ATOM     12  C   UNL     1       3.193   4.581  18.550  0.00  0.00    +0.000 A 
ENDROOT
BRANCH   3  13
ATOM     13  C   UNL     1       3.874   2.037  20.078  0.00  0.00    +0.000 C 
ATOM     14  O   UNL     1       3.263   2.242  21.114  0.00  0.00    +0.000 OA
BRANCH  13  15
ATOM     15  O   UNL     1       5.232   1.979  20.058  0.00  0.00    +0.000 OA
ATOM     16  H   UNL     1       5.647   2.762  19.654  0.00  0.00    +0.000 HD
ENDBRANCH  13  15
ENDBRANCH   3  13
BRANCH   1  17
ATOM     17  C   UNL     1       4.958   4.425  16.662  0.00  0.00    +0.000 C 
BRANCH  17  21
ATOM     18  C   UNL     1       7.882   7.244  18.259  0.00  0.00    +0.000 A 
ATOM     19  C   UNL     1       6.895   7.622  17.350  0.00  0.00    +0.000 A 
ATOM     20  C   UNL     1       5.996   6.693  16.824  0.00  0.00    +0.000 A 
ATOM     21  C   UNL     1       6.056   5.338  17.173  0.00  0.00    +0.000 A 
ATOM     22  C   UNL     1       7.046   4.963  18.105  0.00  0.00    +0.000 A 
ATOM     23  C   UNL     1       7.957   5.906  18.639  0.00  0.00    +0.000 A 
BRANCH  18  25
ATOM     24  C   UNL     1       8.451   9.571  18.127  0.00  0.00    +0.000 C 
ATOM     25  O   UNL     1       8.678   8.275  18.661  0.00  0.00    +0.000 OA
ENDBRANCH  18  25
ENDBRANCH  17  21
ENDBRANCH   1  17
TORSDOF 5
ENDMDL
MODEL 2
REMARK VINA RESULT:      -7.8      3.373      5.119
REMARK  Name = 
REMARK  6 active torsions:
REMARK  status: ('A' for Active; 'I' for Inactive)
REMARK    1  A    between atoms: C_1  and  O_2
REMARK    2  A    between atoms: O_2  and  C_3
REMARK    3  A    between atoms: C_6  and  C_7
REMARK    4  A    between atoms: C_7  and  N_8
REMARK    5  A    between atoms: C_10  and  C_11
REMARK    6  A    between atoms: C_11  and  O_13
REMARK                            x       y       z     vdW  Elec       q    Type
REMARK                         _______ _______ _______ _____ _____    ______ ____
ROOT
ATOM      1  N   UNL     1       3.259   5.952  18.755  0.00  0.00    +0.000 N 
ATOM      2  C   UNL     1       3.886   5.403  17.601  0.00  0.00    +0.000 A 
ATOM      3  C   UNL     1       4.040   4.060  17.538  0.00  0.00    +0.000 A 
ATOM      4  C   UNL     1       2.603   3.613  17.453  0.00  0.00    +0.000 A 
ATOM      5  O   UNL     1       2.080   3.178  16.453  0.00  0.00    +0.000 OA
ATOM      6  C   UNL     1       1.910   3.907  18.738  0.00  0.00    +0.000 A 
ATOM      7  C   UNL     1       1.172   2.881  19.310  0.00  0.00    +0.000 A 
ATOM      8  F   UNL     1       0.699   1.865  18.574  0.00  0.00    +0.000 F 
ATOM      9  C   UNL     1       1.065   2.825  20.687  0.00  0.00    +0.000 A 
ATOM     10  C   UNL     1       1.660   3.837  21.458  0.00  0.00    +0.000 A 
ATOM     11  C   UNL     1       2.283   4.963  20.858  0.00  0.00    +0.000 A 
ATOM     12  C   UNL     1       2.417   5.042  19.464  0.00  0.00    +0.000 A 
ENDROOT
BRANCH   3  13
ATOM     13  C   UNL     1       4.827   3.378  18.629  0.00  0.00    +0.000 C 
ATOM     14  O   UNL     1       5.702   3.941  19.267  0.00  0.00    +0.000 OA
BRANCH  13  15
ATOM     15  O   UNL     1       4.535   2.067  18.835  0.00  0.00    +0.000 OA
ATOM     16  H   UNL     1       3.605   1.910  19.080  0.00  0.00    +0.000 HD
ENDBRANCH  13  15
ENDBRANCH   3  13
BRANCH   1  17
ATOM     17  C   UNL     1       3.368   7.410  19.025  0.00  0.00    +0.000 C 
BRANCH  17  21
ATOM     18  C   UNL     1      -0.162   9.975  19.138  0.00  0.00    +0.000 A 
ATOM     19  C   UNL     1       0.354   9.359  20.277  0.00  0.00    +0.000 A 
ATOM     20  C   UNL     1       1.461   8.512  20.208  0.00  0.00    +0.000 A 
ATOM     21  C   UNL     1       2.092   8.230  18.990  0.00  0.00    +0.000 A 
ATOM     22  C   UNL     1       1.578   8.868  17.843  0.00  0.00    +0.000 A 
ATOM     23  C   UNL     1       0.455   9.728  17.914  0.00  0.00    +0.000 A 
BRANCH  18  25
ATOM     24  C   UNL     1      -2.262  10.865  18.396  0.00  0.00    +0.000 C 
ATOM     25  O   UNL     1      -1.249  10.759  19.386  0.00  0.00    +0.000 OA
ENDBRANCH  18  25
ENDBRANCH  17  21
ENDBRANCH   1  17
TORSDOF 5
ENDMDL
MODEL 3
REMARK VINA RESULT:      -7.5      3.768      5.678
REMARK  Name = 
REMARK  6 active torsions:
REMARK  status: ('A' for Active; 'I' for Inactive)
REMARK    1  A    between atoms: C_1  and  O_2
REMARK    2  A    between atoms: O_2  and  C_3
REMARK    3  A    between atoms: C_6  and  C_7
REMARK    4  A    between atoms: C_7  and  N_8
REMARK    5  A    between atoms: C_10  and  C_11
REMARK    6  A    between atoms: C_11  and  O_13
REMARK                            x       y       z     vdW  Elec       q    Type
REMARK                         _______ _______ _______ _____ _____    ______ ____
ROOT
ATOM      1  N   UNL     1       2.457   6.321  19.574  0.00  0.00    +0.000 N 
ATOM      2  C   UNL     1       2.820   6.249  18.200  0.00  0.00    +0.000 A 
ATOM      3  C   UNL     1       3.154   5.040  17.692  0.00  0.00    +0.000 A 
ATOM      4  C   UNL     1       1.834   4.318  17.786  0.00  0.00    +0.000 A 
ATOM      5  O   UNL     1       1.130   4.053  16.840  0.00  0.00    +0.000 OA
ATOM      6  C   UNL     1       1.482   4.101  19.217  0.00  0.00    +0.000 A 
ATOM      7  C   UNL     1       1.094   2.822  19.589  0.00  0.00    +0.000 A 
ATOM      8  F   UNL     1       0.598   1.955  18.695  0.00  0.00    +0.000 F 
ATOM      9  C   UNL     1       1.378   2.386  20.869  0.00  0.00    +0.000 A 
ATOM     10  C   UNL     1       2.000   3.269  21.768  0.00  0.00    +0.000 A 
ATOM     11  C   UNL     1       2.256   4.623  21.426  0.00  0.00    +0.000 A 
ATOM     12  C   UNL     1       1.990   5.091  20.131  0.00  0.00    +0.000 A 
ENDROOT
BRANCH   3  13
ATOM     13  C   UNL     1       4.303   4.292  18.320  0.00  0.00    +0.000 C 
ATOM     14  O   UNL     1       5.170   4.842  18.980  0.00  0.00    +0.000 OA
BRANCH  13  15
ATOM     15  O   UNL     1       4.347   2.958  18.066  0.00  0.00    +0.000 OA
ATOM     16  H   UNL     1       3.816   2.427  18.687  0.00  0.00    +0.000 HD
ENDBRANCH  13  15
ENDBRANCH   3  13
BRANCH   1  17
ATOM     17  C   UNL     1       2.412   7.643  20.253  0.00  0.00    +0.000 C 
BRANCH  17  21
ATOM     18  C   UNL     1      -0.681  10.593  19.366  0.00  0.00    +0.000 A 
ATOM     19  C   UNL     1      -0.537  10.012  20.624  0.00  0.00    +0.000 A 
ATOM     20  C   UNL     1       0.435   9.042  20.872  0.00  0.00    +0.000 A 
ATOM     21  C   UNL     1       1.299   8.597  19.864  0.00  0.00    +0.000 A 
ATOM     22  C   UNL     1       1.161   9.198  18.596  0.00  0.00    +0.000 A 
ATOM     23  C   UNL     1       0.175  10.183  18.346  0.00  0.00    +0.000 A 
BRANCH  18  25
ATOM     24  C   UNL     1      -2.358  11.708  18.063  0.00  0.00    +0.000 C 
ATOM     25  O   UNL     1      -1.685  11.512  19.298  0.00  0.00    +0.000 OA
ENDBRANCH  18  25
ENDBRANCH  17  21
ENDBRANCH   1  17
TORSDOF 5
ENDMDL
MODEL 4
REMARK VINA RESULT:      -7.5      3.522      5.980
REMARK  Name = 
REMARK  6 active torsions:
REMARK  status: ('A' for Active; 'I' for Inactive)
REMARK    1  A    between atoms: C_1  and  O_2
REMARK    2  A    between atoms: O_2  and  C_3
REMARK    3  A    between atoms: C_6  and  C_7
REMARK    4  A    between atoms: C_7  and  N_8
REMARK    5  A    between atoms: C_10  and  C_11
REMARK    6  A    between atoms: C_11  and  O_13
REMARK                            x       y       z     vdW  Elec       q    Type
REMARK                         _______ _______ _______ _____ _____    ______ ____
ROOT
ATOM      1  N   UNL     1       3.919   6.534  17.925  0.00  0.00    +0.000 N 
ATOM      2  C   UNL     1       3.855   5.905  19.200  0.00  0.00    +0.000 A 
ATOM      3  C   UNL     1       4.414   4.680  19.334  0.00  0.00    +0.000 A 
ATOM      4  C   UNL     1       5.871   5.010  19.134  0.00  0.00    +0.000 A 
ATOM      5  O   UNL     1       6.698   5.023  20.017  0.00  0.00    +0.000 OA
ATOM      6  C   UNL     1       6.100   5.435  17.726  0.00  0.00    +0.000 A 
ATOM      7  C   UNL     1       7.151   4.838  17.045  0.00  0.00    +0.000 A 
ATOM      8  F   UNL     1       8.186   4.291  17.698  0.00  0.00    +0.000 F 
ATOM      9  C   UNL     1       7.044   4.662  15.678  0.00  0.00    +0.000 A 
ATOM     10  C   UNL     1       5.902   5.141  15.016  0.00  0.00    +0.000 A 
ATOM     11  C   UNL     1       4.902   5.885  15.697  0.00  0.00    +0.000 A 
ATOM     12  C   UNL     1       4.977   6.069  17.085  0.00  0.00    +0.000 A 
ENDROOT
BRANCH   3  13
ATOM     13  C   UNL     1       3.916   3.564  18.452  0.00  0.00    +0.000 C 
ATOM     14  O   UNL     1       2.898   3.651  17.784  0.00  0.00    +0.000 OA
BRANCH  13  15
ATOM     15  O   UNL     1       4.649   2.419  18.478  0.00  0.00    +0.000 OA
ATOM     16  H   UNL     1       5.575   2.546  18.204  0.00  0.00    +0.000 HD
ENDBRANCH  13  15
ENDBRANCH   3  13
BRANCH   1  17
ATOM     17  C   UNL     1       3.044   7.702  17.638  0.00  0.00    +0.000 C 
BRANCH  17  21
ATOM     18  C   UNL     1       0.410   9.298  20.731  0.00  0.00    +0.000 A 
ATOM     19  C   UNL     1       0.580   9.921  19.496  0.00  0.00    +0.000 A 
ATOM     20  C   UNL     1       1.458   9.412  18.538  0.00  0.00    +0.000 A 
ATOM     21  C   UNL     1       2.219   8.262  18.781  0.00  0.00    +0.000 A 
ATOM     22  C   UNL     1       2.033   7.626  20.026  0.00  0.00    +0.000 A 
ATOM     23  C   UNL     1       1.140   8.143  20.996  0.00  0.00    +0.000 A 
BRANCH  18  25
ATOM     24  C   UNL     1      -0.374   9.753  22.952  0.00  0.00    +0.000 C 
ATOM     25  O   UNL     1      -0.477   9.935  21.547  0.00  0.00    +0.000 OA
ENDBRANCH  18  25
ENDBRANCH  17  21
ENDBRANCH   1  17
TORSDOF 5
ENDMDL
MODEL 5
REMARK VINA RESULT:      -7.4      0.246      1.003
REMARK  Name = 
REMARK  6 active torsions:
REMARK  status: ('A' for Active; 'I' for Inactive)
REMARK    1  A    between atoms: C_1  and  O_2
REMARK    2  A    between atoms: O_2  and  C_3
REMARK    3  A    between atoms: C_6  and  C_7
REMARK    4  A    between atoms: C_7  and  N_8
REMARK    5  A    between atoms: C_10  and  C_11
REMARK    6  A    between atoms: C_11  and  O_13
REMARK                            x       y       z     vdW  Elec       q    Type
REMARK                         _______ _______ _______ _____ _____    ______ ____
ROOT
ATOM      1  N   UNL     1       4.142   3.745  17.883  0.00  0.00    +0.000 N 
ATOM      2  C   UNL     1       3.927   2.339  17.919  0.00  0.00    +0.000 A 
ATOM      3  C   UNL     1       3.301   1.818  19.000  0.00  0.00    +0.000 A 
ATOM      4  C   UNL     1       1.928   2.420  18.851  0.00  0.00    +0.000 A 
ATOM      5  O   UNL     1       0.944   1.805  18.509  0.00  0.00    +0.000 OA
ATOM      6  C   UNL     1       1.999   3.892  19.063  0.00  0.00    +0.000 A 
ATOM      7  C   UNL     1       1.080   4.453  19.937  0.00  0.00    +0.000 A 
ATOM      8  F   UNL     1      -0.086   3.849  20.208  0.00  0.00    +0.000 F 
ATOM      9  C   UNL     1       1.447   5.571  20.663  0.00  0.00    +0.000 A 
ATOM     10  C   UNL     1       2.717   6.134  20.451  0.00  0.00    +0.000 A 
ATOM     11  C   UNL     1       3.592   5.644  19.447  0.00  0.00    +0.000 A 
ATOM     12  C   UNL     1       3.253   4.504  18.704  0.00  0.00    +0.000 A 
ENDROOT
BRANCH   3  13
ATOM     13  C   UNL     1       3.918   2.036  20.359  0.00  0.00    +0.000 C 
ATOM     14  O   UNL     1       3.262   2.336  21.344  0.00  0.00    +0.000 OA
BRANCH  13  15
ATOM     15  O   UNL     1       5.271   1.926  20.417  0.00  0.00    +0.000 OA
ATOM     16  H   UNL     1       5.713   2.126  19.572  0.00  0.00    +0.000 HD
ENDBRANCH  13  15
ENDBRANCH   3  13
BRANCH   1  17
ATOM     17  C   UNL     1       5.104   4.315  16.903  0.00  0.00    +0.000 C 
BRANCH  17  21
ATOM     18  C   UNL     1       7.844   7.483  18.133  0.00  0.00    +0.000 A 
ATOM     19  C   UNL     1       7.854   6.216  18.713  0.00  0.00    +0.000 A 
ATOM     20  C   UNL     1       6.942   5.232  18.329  0.00  0.00    +0.000 A 
ATOM     21  C   UNL     1       5.965   5.479  17.356  0.00  0.00    +0.000 A 
ATOM     22  C   UNL     1       5.968   6.757  16.761  0.00  0.00    +0.000 A 
ATOM     23  C   UNL     1       6.895   7.754  17.150  0.00  0.00    +0.000 A 
BRANCH  18  25
ATOM     24  C   UNL     1       8.675   9.717  18.403  0.00  0.00    +0.000 C 
ATOM     25  O   UNL     1       8.796   8.321  18.633  0.00  0.00    +0.000 OA
ENDBRANCH  18  25
ENDBRANCH  17  21
ENDBRANCH   1  17
TORSDOF 5
ENDMDL
MODEL 6
REMARK VINA RESULT:      -7.3      2.734      4.109
REMARK  Name = 
REMARK  6 active torsions:
REMARK  status: ('A' for Active; 'I' for Inactive)
REMARK    1  A    between atoms: C_1  and  O_2
REMARK    2  A    between atoms: O_2  and  C_3
REMARK    3  A    between atoms: C_6  and  C_7
REMARK    4  A    between atoms: C_7  and  N_8
REMARK    5  A    between atoms: C_10  and  C_11
REMARK    6  A    between atoms: C_11  and  O_13
REMARK                            x       y       z     vdW  Elec       q    Type
REMARK                         _______ _______ _______ _____ _____    ______ ____
ROOT
ATOM      1  N   UNL     1       4.016   5.302  18.445  0.00  0.00    +0.000 N 
ATOM      2  C   UNL     1       2.739   5.869  18.173  0.00  0.00    +0.000 A 
ATOM      3  C   UNL     1       1.642   5.127  18.450  0.00  0.00    +0.000 A 
ATOM      4  C   UNL     1       1.723   5.051  19.953  0.00  0.00    +0.000 A 
ATOM      5  O   UNL     1       0.994   5.650  20.710  0.00  0.00    +0.000 OA
ATOM      6  C   UNL     1       2.904   4.236  20.351  0.00  0.00    +0.000 A 
ATOM      7  C   UNL     1       2.698   3.236  21.290  0.00  0.00    +0.000 A 
ATOM      8  F   UNL     1       1.666   3.280  22.144  0.00  0.00    +0.000 F 
ATOM      9  C   UNL     1       3.479   2.096  21.230  0.00  0.00    +0.000 A 
ATOM     10  C   UNL     1       4.489   2.012  20.258  0.00  0.00    +0.000 A 
ATOM     11  C   UNL     1       4.791   3.102  19.400  0.00  0.00    +0.000 A 
ATOM     12  C   UNL     1       4.010   4.266  19.429  0.00  0.00    +0.000 A 
ENDROOT
BRANCH   3  13
ATOM     13  C   UNL     1       1.496   3.784  17.780  0.00  0.00    +0.000 C 
ATOM     14  O   UNL     1       2.034   3.511  16.719  0.00  0.00    +0.000 OA
BRANCH  13  15
ATOM     15  O   UNL     1       0.681   2.896  18.408  0.00  0.00    +0.000 OA
ATOM     16  H   UNL     1       0.428   3.172  19.308  0.00  0.00    +0.000 HD
ENDBRANCH  13  15
ENDBRANCH   3  13
BRANCH   1  17
ATOM     17  C   UNL     1       5.234   5.921  17.858  0.00  0.00    +0.000 C 
BRANCH  17  21
ATOM     18  C   UNL     1       6.562   4.361  14.004  0.00  0.00    +0.000 A 
ATOM     19  C   UNL     1       5.281   4.135  14.503  0.00  0.00    +0.000 A 
ATOM     20  C   UNL     1       4.893   4.611  15.756  0.00  0.00    +0.000 A 
ATOM     21  C   UNL     1       5.778   5.324  16.574  0.00  0.00    +0.000 A 
ATOM     22  C   UNL     1       7.069   5.564  16.059  0.00  0.00    +0.000 A 
ATOM     23  C   UNL     1       7.461   5.081  14.787  0.00  0.00    +0.000 A 
BRANCH  18  25
ATOM     24  C   UNL     1       5.696   3.169  12.110  0.00  0.00    +0.000 C 
ATOM     25  O   UNL     1       6.773   3.817  12.772  0.00  0.00    +0.000 OA
ENDBRANCH  18  25
ENDBRANCH  17  21
ENDBRANCH   1  17
TORSDOF 5
ENDMDL
MODEL 7
REMARK VINA RESULT:      -7.3      3.277      5.063
REMARK  Name = 
REMARK  6 active torsions:
REMARK  status: ('A' for Active; 'I' for Inactive)
REMARK    1  A    between atoms: C_1  and  O_2
REMARK    2  A    between atoms: O_2  and  C_3
REMARK    3  A    between atoms: C_6  and  C_7
REMARK    4  A    between atoms: C_7  and  N_8
REMARK    5  A    between atoms: C_10  and  C_11
REMARK    6  A    between atoms: C_11  and  O_13
REMARK                            x       y       z     vdW  Elec       q    Type
REMARK                         _______ _______ _______ _____ _____    ______ ____
ROOT
ATOM      1  N   UNL     1       3.267   5.997  18.766  0.00  0.00    +0.000 N 
ATOM      2  C   UNL     1       3.839   5.449  17.583  0.00  0.00    +0.000 A 
ATOM      3  C   UNL     1       3.938   4.103  17.489  0.00  0.00    +0.000 A 
ATOM      4  C   UNL     1       2.483   3.714  17.436  0.00  0.00    +0.000 A 
ATOM      5  O   UNL     1       1.915   3.321  16.443  0.00  0.00    +0.000 OA
ATOM      6  C   UNL     1       1.838   4.007  18.746  0.00  0.00    +0.000 A 
ATOM      7  C   UNL     1       1.076   2.999  19.318  0.00  0.00    +0.000 A 
ATOM      8  F   UNL     1       0.542   2.018  18.576  0.00  0.00    +0.000 F 
ATOM      9  C   UNL     1       1.006   2.918  20.696  0.00  0.00    +0.000 A 
ATOM     10  C   UNL     1       1.662   3.889  21.471  0.00  0.00    +0.000 A 
ATOM     11  C   UNL     1       2.312   5.002  20.876  0.00  0.00    +0.000 A 
ATOM     12  C   UNL     1       2.410   5.105  19.481  0.00  0.00    +0.000 A 
ENDROOT
BRANCH   3  13
ATOM     13  C   UNL     1       4.727   3.367  18.543  0.00  0.00    +0.000 C 
ATOM     14  O   UNL     1       5.614   3.894  19.195  0.00  0.00    +0.000 OA
BRANCH  13  15
ATOM     15  O   UNL     1       4.423   2.051  18.696  0.00  0.00    +0.000 OA
ATOM     16  H   UNL     1       3.592   1.792  18.259  0.00  0.00    +0.000 HD
ENDBRANCH  13  15
ENDBRANCH   3  13
BRANCH   1  17
ATOM     17  C   UNL     1       3.441   7.444  19.063  0.00  0.00    +0.000 C 
BRANCH  17  21
ATOM     18  C   UNL     1      -0.287   9.713  19.039  0.00  0.00    +0.000 A 
ATOM     19  C   UNL     1       0.458   9.483  17.885  0.00  0.00    +0.000 A 
ATOM     20  C   UNL     1       1.667   8.787  17.925  0.00  0.00    +0.000 A 
ATOM     21  C   UNL     1       2.194   8.304  19.129  0.00  0.00    +0.000 A 
ATOM     22  C   UNL     1       1.430   8.525  20.293  0.00  0.00    +0.000 A 
ATOM     23  C   UNL     1       0.202   9.230  20.251  0.00  0.00    +0.000 A 
BRANCH  18  25
ATOM     24  C   UNL     1      -2.256  10.066  17.714  0.00  0.00    +0.000 C 
ATOM     25  O   UNL     1      -1.434  10.415  18.820  0.00  0.00    +0.000 OA
ENDBRANCH  18  25
ENDBRANCH  17  21
ENDBRANCH   1  17
TORSDOF 5
ENDMDL
MODEL 8
REMARK VINA RESULT:      -7.3      3.758      5.641
REMARK  Name = 
REMARK  6 active torsions:
REMARK  status: ('A' for Active; 'I' for Inactive)
REMARK    1  A    between atoms: C_1  and  O_2
REMARK    2  A    between atoms: O_2  and  C_3
REMARK    3  A    between atoms: C_6  and  C_7
REMARK    4  A    between atoms: C_7  and  N_8
REMARK    5  A    between atoms: C_10  and  C_11
REMARK    6  A    between atoms: C_11  and  O_13
REMARK                            x       y       z     vdW  Elec       q    Type
REMARK                         _______ _______ _______ _____ _____    ______ ____
ROOT
ATOM      1  N   UNL     1       2.285   6.362  19.816  0.00  0.00    +0.000 N 
ATOM      2  C   UNL     1       2.637   6.418  18.439  0.00  0.00    +0.000 A 
ATOM      3  C   UNL     1       3.042   5.275  17.838  0.00  0.00    +0.000 A 
ATOM      4  C   UNL     1       1.773   4.464  17.884  0.00  0.00    +0.000 A 
ATOM      5  O   UNL     1       1.077   4.227  16.924  0.00  0.00    +0.000 OA
ATOM      6  C   UNL     1       1.450   4.117  19.296  0.00  0.00    +0.000 A 
ATOM      7  C   UNL     1       1.150   2.791  19.570  0.00  0.00    +0.000 A 
ATOM      8  F   UNL     1       0.701   1.964  18.616  0.00  0.00    +0.000 F 
ATOM      9  C   UNL     1       1.474   2.278  20.812  0.00  0.00    +0.000 A 
ATOM     10  C   UNL     1       2.048   3.128  21.772  0.00  0.00    +0.000 A 
ATOM     11  C   UNL     1       2.213   4.518  21.534  0.00  0.00    +0.000 A 
ATOM     12  C   UNL     1       1.904   5.065  20.280  0.00  0.00    +0.000 A 
ENDROOT
BRANCH   3  13
ATOM     13  C   UNL     1       4.244   4.558  18.400  0.00  0.00    +0.000 C 
ATOM     14  O   UNL     1       5.075   5.108  19.104  0.00  0.00    +0.000 OA
BRANCH  13  15
ATOM     15  O   UNL     1       4.378   3.256  18.034  0.00  0.00    +0.000 OA
ATOM     16  H   UNL     1       3.892   2.640  18.611  0.00  0.00    +0.000 HD
ENDBRANCH  13  15
ENDBRANCH   3  13
BRANCH   1  17
ATOM     17  C   UNL     1       2.162   7.623  20.595  0.00  0.00    +0.000 C 
BRANCH  17  21
ATOM     18  C   UNL     1      -0.497  10.548  18.745  0.00  0.00    +0.000 A 
ATOM     19  C   UNL     1       0.590   9.993  18.073  0.00  0.00    +0.000 A 
ATOM     20  C   UNL     1       1.449   9.089  18.700  0.00  0.00    +0.000 A 
ATOM     21  C   UNL     1       1.266   8.712  20.036  0.00  0.00    +0.000 A 
ATOM     22  C   UNL     1       0.156   9.263  20.708  0.00  0.00    +0.000 A 
ATOM     23  C   UNL     1      -0.715  10.180  20.070  0.00  0.00    +0.000 A 
BRANCH  18  25
ATOM     24  C   UNL     1      -2.403  10.956  17.347  0.00  0.00    +0.000 C 
ATOM     25  O   UNL     1      -1.222  11.418  17.987  0.00  0.00    +0.000 OA
ENDBRANCH  18  25
ENDBRANCH  17  21
ENDBRANCH   1  17
TORSDOF 5
ENDMDL
MODEL 9
REMARK VINA RESULT:      -7.2      3.484      6.003
REMARK  Name = 
REMARK  6 active torsions:
REMARK  status: ('A' for Active; 'I' for Inactive)
REMARK    1  A    between atoms: C_1  and  O_2
REMARK    2  A    between atoms: O_2  and  C_3
REMARK    3  A    between atoms: C_6  and  C_7
REMARK    4  A    between atoms: C_7  and  N_8
REMARK    5  A    between atoms: C_10  and  C_11
REMARK    6  A    between atoms: C_11  and  O_13
REMARK                            x       y       z     vdW  Elec       q    Type
REMARK                         _______ _______ _______ _____ _____    ______ ____
ROOT
ATOM      1  N   UNL     1       4.014   6.643  17.757  0.00  0.00    +0.000 N 
ATOM      2  C   UNL     1       3.862   6.051  19.042  0.00  0.00    +0.000 A 
ATOM      3  C   UNL     1       4.359   4.807  19.233  0.00  0.00    +0.000 A 
ATOM      4  C   UNL     1       5.837   5.067  19.095  0.00  0.00    +0.000 A 
ATOM      5  O   UNL     1       6.621   5.067  20.016  0.00  0.00    +0.000 OA
ATOM      6  C   UNL     1       6.150   5.445  17.689  0.00  0.00    +0.000 A 
ATOM      7  C   UNL     1       7.203   4.784  17.074  0.00  0.00    +0.000 A 
ATOM      8  F   UNL     1       8.181   4.209  17.789  0.00  0.00    +0.000 F 
ATOM      9  C   UNL     1       7.153   4.577  15.709  0.00  0.00    +0.000 A 
ATOM     10  C   UNL     1       6.066   5.088  14.981  0.00  0.00    +0.000 A 
ATOM     11  C   UNL     1       5.070   5.893  15.595  0.00  0.00    +0.000 A 
ATOM     12  C   UNL     1       5.088   6.110  16.981  0.00  0.00    +0.000 A 
ENDROOT
BRANCH   3  13
ATOM     13  C   UNL     1       3.852   3.691  18.355  0.00  0.00    +0.000 C 
ATOM     14  O   UNL     1       2.772   3.732  17.787  0.00  0.00    +0.000 OA
BRANCH  13  15
ATOM     15  O   UNL     1       4.656   2.599  18.266  0.00  0.00    +0.000 OA
ATOM     16  H   UNL     1       5.535   2.794  17.894  0.00  0.00    +0.000 HD
ENDBRANCH  13  15
ENDBRANCH   3  13
BRANCH   1  17
ATOM     17  C   UNL     1       3.207   7.840  17.400  0.00  0.00    +0.000 C 
BRANCH  17  21
ATOM     18  C   UNL     1       0.479   9.274  20.491  0.00  0.00    +0.000 A 
ATOM     19  C   UNL     1       1.342   8.199  20.693  0.00  0.00    +0.000 A 
ATOM     20  C   UNL     1       2.177   7.734  19.676  0.00  0.00    +0.000 A 
ATOM     21  C   UNL     1       2.173   8.317  18.403  0.00  0.00    +0.000 A 
ATOM     22  C   UNL     1       1.310   9.415  18.207  0.00  0.00    +0.000 A 
ATOM     23  C   UNL     1       0.464   9.886  19.240  0.00  0.00    +0.000 A 
BRANCH  18  25
ATOM     24  C   UNL     1       0.273   9.365  22.880  0.00  0.00    +0.000 C 
ATOM     25  O   UNL     1      -0.270   9.587  21.586  0.00  0.00    +0.000 OA
ENDBRANCH  18  25
ENDBRANCH  17  21
ENDBRANCH   1  17
TORSDOF 5
ENDMDL
