MODEL 1
REMARK VINA RESULT:      -8.6      0.000      0.000
REMARK  Name = 
REMARK  7 active torsions:
REMARK  status: ('A' for Active; 'I' for Inactive)
REMARK    1  A    between atoms: C_1  and  C_2
REMARK    2  A    between atoms: C_5  and  C_6
REMARK    3  A    between atoms: N_8  and  N_9
REMARK    4  A    between atoms: C_10  and  C_11
REMARK    5  A    between atoms: C_14  and  O_15
REMARK    6  A    between atoms: C_21  and  C_22
REMARK    7  A    between atoms: C_21  and  C_23
REMARK                            x       y       z     vdW  Elec       q    Type
REMARK                         _______ _______ _______ _____ _____    ______ ____
ROOT
ATOM      1  C   UNL     1       6.899   5.870  18.857  0.00  0.00    +0.000 C 
ATOM      2  O   UNL     1       7.378   5.711  19.980  0.00  0.00    +0.000 OA
ATOM      3  N   UNL     1       7.306   6.859  17.968  0.00  0.00    +0.000 N 
ATOM      4  H   UNL     1       6.803   7.016  17.100  0.00  0.00    +0.000 HD
ENDROOT
BRANCH   1   9
ATOM      5  C   UNL     1       2.423   4.036  17.320  0.00  0.00    +0.000 C 
ATOM      6  C   UNL     1       3.906   4.164  17.589  0.00  0.00    +0.000 C 
ATOM      7  C   UNL     1       4.795   3.962  16.345  0.00  0.00    +0.000 C 
ATOM      8  C   UNL     1       6.157   4.478  16.844  0.00  0.00    +0.000 C 
ATOM      9  C   UNL     1       5.842   4.908  18.304  0.00  0.00    +0.000 C 
ATOM     10  O   UNL     1       5.659   3.692  19.048  0.00  0.00    +0.000 OA
ATOM     11  C   UNL     1       4.465   3.163  18.591  0.00  0.00    +0.000 C 
ATOM     12  O   UNL     1       3.996   2.095  18.934  0.00  0.00    +0.000 OA
ATOM     13  C   UNL     1       4.409   5.475  18.232  0.00  0.00    +0.000 C 
ATOM     14  C   UNL     1       3.770   5.778  19.604  0.00  0.00    +0.000 C 
ATOM     15  C   UNL     1       4.236   6.731  17.359  0.00  0.00    +0.000 C 
ENDBRANCH   1   9
BRANCH   3  16
ATOM     16  N   UNL     1       8.238   7.759  18.399  0.00  0.00    +0.000 NA
ATOM     17  C   UNL     1       8.074   9.004  18.088  0.00  0.00    +0.000 C 
BRANCH  17  18
ATOM     18  C   UNL     1       9.044  10.024  18.556  0.00  0.00    +0.000 A 
ATOM     19  C   UNL     1       9.811  10.745  17.629  0.00  0.00    +0.000 A 
ATOM     20  C   UNL     1      10.737  11.694  18.066  0.00  0.00    +0.000 A 
ATOM     21  C   UNL     1      10.890  11.919  19.431  0.00  0.00    +0.000 A 
ATOM     22  C   UNL     1      10.131  11.212  20.359  0.00  0.00    +0.000 A 
ATOM     23  C   UNL     1       9.204  10.259  19.925  0.00  0.00    +0.000 A 
BRANCH  21  24
ATOM     24  O   UNL     1      11.785  12.831  19.902  0.00  0.00    +0.000 OA
ATOM     25  H   UNL     1      11.565  13.704  19.534  0.00  0.00    +0.000 HD
ENDBRANCH  21  24
ENDBRANCH  17  18
ENDBRANCH   3  16
TORSDOF 4
ENDMDL
MODEL 2
REMARK VINA RESULT:      -8.5      0.041      1.011
REMARK  Name = 
REMARK  7 active torsions:
REMARK  status: ('A' for Active; 'I' for Inactive)
REMARK    1  A    between atoms: C_1  and  C_2
REMARK    2  A    between atoms: C_5  and  C_6
REMARK    3  A    between atoms: N_8  and  N_9
REMARK    4  A    between atoms: C_10  and  C_11
REMARK    5  A    between atoms: C_14  and  O_15
REMARK    6  A    between atoms: C_21  and  C_22
REMARK    7  A    between atoms: C_21  and  C_23
REMARK                            x       y       z     vdW  Elec       q    Type
REMARK                         _______ _______ _______ _____ _____    ______ ____
ROOT
ATOM      1  C   UNL     1       6.907   5.864  18.879  0.00  0.00    +0.000 C 
ATOM      2  O   UNL     1       7.381   5.697  20.003  0.00  0.00    +0.000 OA
ATOM      3  N   UNL     1       7.314   6.861  18.000  0.00  0.00    +0.000 N 
ATOM      4  H   UNL     1       6.815   7.023  17.131  0.00  0.00    +0.000 HD
ENDROOT
BRANCH   1   9
ATOM      5  C   UNL     1       2.450   4.023  17.294  0.00  0.00    +0.000 C 
ATOM      6  C   UNL     1       3.930   4.155  17.576  0.00  0.00    +0.000 C 
ATOM      7  C   UNL     1       4.832   3.960  16.341  0.00  0.00    +0.000 C 
ATOM      8  C   UNL     1       6.187   4.477  16.854  0.00  0.00    +0.000 C 
ATOM      9  C   UNL     1       5.858   4.900  18.312  0.00  0.00    +0.000 C 
ATOM     10  O   UNL     1       5.671   3.681  19.050  0.00  0.00    +0.000 OA
ATOM     11  C   UNL     1       4.483   3.151  18.580  0.00  0.00    +0.000 C 
ATOM     12  O   UNL     1       4.014   2.080  18.915  0.00  0.00    +0.000 OA
ATOM     13  C   UNL     1       4.424   5.464  18.229  0.00  0.00    +0.000 C 
ATOM     14  C   UNL     1       3.771   5.761  19.597  0.00  0.00    +0.000 C 
ATOM     15  C   UNL     1       4.256   6.723  17.359  0.00  0.00    +0.000 C 
ENDBRANCH   1   9
BRANCH   3  16
ATOM     16  N   UNL     1       8.239   7.763  18.443  0.00  0.00    +0.000 NA
ATOM     17  C   UNL     1       8.104   9.000  18.091  0.00  0.00    +0.000 C 
BRANCH  17  18
ATOM     18  C   UNL     1       9.068  10.022  18.570  0.00  0.00    +0.000 A 
ATOM     19  C   UNL     1       9.220  10.258  19.943  0.00  0.00    +0.000 A 
ATOM     20  C   UNL     1      10.114  11.231  20.396  0.00  0.00    +0.000 A 
ATOM     21  C   UNL     1      10.854  11.961  19.469  0.00  0.00    +0.000 A 
ATOM     22  C   UNL     1      10.712  11.731  18.104  0.00  0.00    +0.000 A 
ATOM     23  C   UNL     1       9.816  10.759  17.647  0.00  0.00    +0.000 A 
BRANCH  21  24
ATOM     24  O   UNL     1      11.733  12.923  19.867  0.00  0.00    +0.000 OA
ATOM     25  H   UNL     1      12.241  12.588  20.625  0.00  0.00    +0.000 HD
ENDBRANCH  21  24
ENDBRANCH  17  18
ENDBRANCH   3  16
TORSDOF 4
ENDMDL
MODEL 3
REMARK VINA RESULT:      -8.4      5.447      7.163
REMARK  Name = 
REMARK  7 active torsions:
REMARK  status: ('A' for Active; 'I' for Inactive)
REMARK    1  A    between atoms: C_1  and  C_2
REMARK    2  A    between atoms: C_5  and  C_6
REMARK    3  A    between atoms: N_8  and  N_9
REMARK    4  A    between atoms: C_10  and  C_11
REMARK    5  A    between atoms: C_14  and  O_15
REMARK    6  A    between atoms: C_21  and  C_22
REMARK    7  A    between atoms: C_21  and  C_23
REMARK                            x       y       z     vdW  Elec       q    Type
REMARK                         _______ _______ _______ _____ _____    ______ ____
ROOT
ATOM      1  C   UNL     1       2.720   6.695  18.893  0.00  0.00    +0.000 C 
ATOM      2  O   UNL     1       2.503   7.475  17.966  0.00  0.00    +0.000 OA
ATOM      3  N   UNL     1       2.354   6.930  20.213  0.00  0.00    +0.000 N 
ATOM      4  H   UNL     1       2.655   6.306  20.955  0.00  0.00    +0.000 HD
ENDROOT
BRANCH   1   9
ATOM      5  C   UNL     1       3.197   1.701  18.116  0.00  0.00    +0.000 C 
ATOM      6  C   UNL     1       3.526   3.172  18.244  0.00  0.00    +0.000 C 
ATOM      7  C   UNL     1       4.240   3.772  17.016  0.00  0.00    +0.000 C 
ATOM      8  C   UNL     1       4.129   5.281  17.292  0.00  0.00    +0.000 C 
ATOM      9  C   UNL     1       3.357   5.323  18.640  0.00  0.00    +0.000 C 
ATOM     10  O   UNL     1       4.282   4.873  19.644  0.00  0.00    +0.000 OA
ATOM     11  C   UNL     1       4.454   3.523  19.400  0.00  0.00    +0.000 C 
ATOM     12  O   UNL     1       5.221   2.795  20.002  0.00  0.00    +0.000 OA
ATOM     13  C   UNL     1       2.365   4.145  18.547  0.00  0.00    +0.000 C 
ATOM     14  C   UNL     1       1.618   3.830  19.861  0.00  0.00    +0.000 C 
ATOM     15  C   UNL     1       1.308   4.255  17.433  0.00  0.00    +0.000 C 
ENDBRANCH   1   9
BRANCH   3  16
ATOM     16  N   UNL     1       1.791   8.137  20.513  0.00  0.00    +0.000 NA
ATOM     17  C   UNL     1       0.730   8.150  21.253  0.00  0.00    +0.000 C 
BRANCH  17  18
ATOM     18  C   UNL     1       0.098   9.438  21.630  0.00  0.00    +0.000 A 
ATOM     19  C   UNL     1      -0.537   9.575  22.872  0.00  0.00    +0.000 A 
ATOM     20  C   UNL     1      -1.148  10.781  23.224  0.00  0.00    +0.000 A 
ATOM     21  C   UNL     1      -1.118  11.846  22.327  0.00  0.00    +0.000 A 
ATOM     22  C   UNL     1      -0.487  11.722  21.093  0.00  0.00    +0.000 A 
ATOM     23  C   UNL     1       0.124  10.515  20.738  0.00  0.00    +0.000 A 
BRANCH  21  24
ATOM     24  O   UNL     1      -1.705  13.039  22.626  0.00  0.00    +0.000 OA
ATOM     25  H   UNL     1      -1.514  13.669  21.911  0.00  0.00    +0.000 HD
ENDBRANCH  21  24
ENDBRANCH  17  18
ENDBRANCH   3  16
TORSDOF 4
ENDMDL
MODEL 4
REMARK VINA RESULT:      -8.4      5.431      7.035
REMARK  Name = 
REMARK  7 active torsions:
REMARK  status: ('A' for Active; 'I' for Inactive)
REMARK    1  A    between atoms: C_1  and  C_2
REMARK    2  A    between atoms: C_5  and  C_6
REMARK    3  A    between atoms: N_8  and  N_9
REMARK    4  A    between atoms: C_10  and  C_11
REMARK    5  A    between atoms: C_14  and  O_15
REMARK    6  A    between atoms: C_21  and  C_22
REMARK    7  A    between atoms: C_21  and  C_23
REMARK                            x       y       z     vdW  Elec       q    Type
REMARK                         _______ _______ _______ _____ _____    ______ ____
ROOT
ATOM      1  C   UNL     1       2.737   6.741  18.900  0.00  0.00    +0.000 C 
ATOM      2  O   UNL     1       2.521   7.526  17.977  0.00  0.00    +0.000 OA
ATOM      3  N   UNL     1       2.381   6.976  20.223  0.00  0.00    +0.000 N 
ATOM      4  H   UNL     1       2.681   6.346  20.961  0.00  0.00    +0.000 HD
ENDROOT
BRANCH   1   9
ATOM      5  C   UNL     1       3.169   1.744  18.125  0.00  0.00    +0.000 C 
ATOM      6  C   UNL     1       3.509   3.212  18.245  0.00  0.00    +0.000 C 
ATOM      7  C   UNL     1       4.205   3.805  17.003  0.00  0.00    +0.000 C 
ATOM      8  C   UNL     1       4.108   5.316  17.278  0.00  0.00    +0.000 C 
ATOM      9  C   UNL     1       3.361   5.365  18.639  0.00  0.00    +0.000 C 
ATOM     10  O   UNL     1       4.300   4.912  19.628  0.00  0.00    +0.000 OA
ATOM     11  C   UNL     1       4.460   3.560  19.383  0.00  0.00    +0.000 C 
ATOM     12  O   UNL     1       5.232   2.828  19.973  0.00  0.00    +0.000 OA
ATOM     13  C   UNL     1       2.360   4.193  18.566  0.00  0.00    +0.000 C 
ATOM     14  C   UNL     1       1.634   3.885  19.893  0.00  0.00    +0.000 C 
ATOM     15  C   UNL     1       1.284   4.307  17.471  0.00  0.00    +0.000 C 
ENDBRANCH   1   9
BRANCH   3  16
ATOM     16  N   UNL     1       1.830   8.187  20.530  0.00  0.00    +0.000 NA
ATOM     17  C   UNL     1       0.798   8.209  21.311  0.00  0.00    +0.000 C 
BRANCH  17  18
ATOM     18  C   UNL     1       0.181   9.502  21.696  0.00  0.00    +0.000 A 
ATOM     19  C   UNL     1       0.378  10.641  20.902  0.00  0.00    +0.000 A 
ATOM     20  C   UNL     1      -0.188  11.864  21.271  0.00  0.00    +0.000 A 
ATOM     21  C   UNL     1      -0.952  11.938  22.433  0.00  0.00    +0.000 A 
ATOM     22  C   UNL     1      -1.156  10.812  23.225  0.00  0.00    +0.000 A 
ATOM     23  C   UNL     1      -0.589   9.587  22.860  0.00  0.00    +0.000 A 
BRANCH  21  24
ATOM     24  O   UNL     1      -1.517  13.111  22.833  0.00  0.00    +0.000 OA
ATOM     25  H   UNL     1      -2.436  13.140  22.514  0.00  0.00    +0.000 HD
ENDBRANCH  21  24
ENDBRANCH  17  18
ENDBRANCH   3  16
TORSDOF 4
ENDMDL
MODEL 5
REMARK VINA RESULT:      -7.9      5.335      6.616
REMARK  Name = 
REMARK  7 active torsions:
REMARK  status: ('A' for Active; 'I' for Inactive)
REMARK    1  A    between atoms: C_1  and  C_2
REMARK    2  A    between atoms: C_5  and  C_6
REMARK    3  A    between atoms: N_8  and  N_9
REMARK    4  A    between atoms: C_10  and  C_11
REMARK    5  A    between atoms: C_14  and  O_15
REMARK    6  A    between atoms: C_21  and  C_22
REMARK    7  A    between atoms: C_21  and  C_23
REMARK                            x       y       z     vdW  Elec       q    Type
REMARK                         _______ _______ _______ _____ _____    ______ ____
ROOT
ATOM      1  C   UNL     1       2.810   6.750  19.004  0.00  0.00    +0.000 C 
ATOM      2  O   UNL     1       2.384   7.013  20.129  0.00  0.00    +0.000 OA
ATOM      3  N   UNL     1       2.877   7.666  17.961  0.00  0.00    +0.000 N 
ATOM      4  H   UNL     1       3.132   7.369  17.024  0.00  0.00    +0.000 HD
ENDROOT
BRANCH   1   9
ATOM      5  C   UNL     1       3.111   1.774  18.047  0.00  0.00    +0.000 C 
ATOM      6  C   UNL     1       3.487   3.230  18.210  0.00  0.00    +0.000 C 
ATOM      7  C   UNL     1       4.172   3.850  16.976  0.00  0.00    +0.000 C 
ATOM      8  C   UNL     1       4.116   5.352  17.305  0.00  0.00    +0.000 C 
ATOM      9  C   UNL     1       3.396   5.370  18.682  0.00  0.00    +0.000 C 
ATOM     10  O   UNL     1       4.344   4.861  19.635  0.00  0.00    +0.000 OA
ATOM     11  C   UNL     1       4.468   3.515  19.340  0.00  0.00    +0.000 C 
ATOM     12  O   UNL     1       5.235   2.746  19.888  0.00  0.00    +0.000 OA
ATOM     13  C   UNL     1       2.368   4.224  18.589  0.00  0.00    +0.000 C 
ATOM     14  C   UNL     1       1.661   3.886  19.919  0.00  0.00    +0.000 C 
ATOM     15  C   UNL     1       1.273   4.401  17.521  0.00  0.00    +0.000 C 
ENDBRANCH   1   9
BRANCH   3  16
ATOM     16  N   UNL     1       2.362   8.913  18.173  0.00  0.00    +0.000 NA
ATOM     17  C   UNL     1       1.086   9.078  18.041  0.00  0.00    +0.000 C 
BRANCH  17  18
ATOM     18  C   UNL     1       0.476  10.408  18.288  0.00  0.00    +0.000 A 
ATOM     19  C   UNL     1       1.281  11.496  18.651  0.00  0.00    +0.000 A 
ATOM     20  C   UNL     1       0.708  12.745  18.901  0.00  0.00    +0.000 A 
ATOM     21  C   UNL     1      -0.671  12.898  18.782  0.00  0.00    +0.000 A 
ATOM     22  C   UNL     1      -1.478  11.824  18.419  0.00  0.00    +0.000 A 
ATOM     23  C   UNL     1      -0.908  10.572  18.170  0.00  0.00    +0.000 A 
BRANCH  21  24
ATOM     24  O   UNL     1      -1.272  14.097  19.022  0.00  0.00    +0.000 OA
ATOM     25  H   UNL     1      -2.091  14.145  18.500  0.00  0.00    +0.000 HD
ENDBRANCH  21  24
ENDBRANCH  17  18
ENDBRANCH   3  16
TORSDOF 4
ENDMDL
MODEL 6
REMARK VINA RESULT:      -7.9      5.318      6.591
REMARK  Name = 
REMARK  7 active torsions:
REMARK  status: ('A' for Active; 'I' for Inactive)
REMARK    1  A    between atoms: C_1  and  C_2
REMARK    2  A    between atoms: C_5  and  C_6
REMARK    3  A    between atoms: N_8  and  N_9
REMARK    4  A    between atoms: C_10  and  C_11
REMARK    5  A    between atoms: C_14  and  O_15
REMARK    6  A    between atoms: C_21  and  C_22
REMARK    7  A    between atoms: C_21  and  C_23
REMARK                            x       y       z     vdW  Elec       q    Type
REMARK                         _______ _______ _______ _____ _____    ______ ____
ROOT
ATOM      1  C   UNL     1       2.827   6.786  18.946  0.00  0.00    +0.000 C 
ATOM      2  O   UNL     1       2.377   7.055  20.060  0.00  0.00    +0.000 OA
ATOM      3  N   UNL     1       2.921   7.698  17.901  0.00  0.00    +0.000 N 
ATOM      4  H   UNL     1       3.196   7.396  16.971  0.00  0.00    +0.000 HD
ENDROOT
BRANCH   1   9
ATOM      5  C   UNL     1       3.127   1.798  18.055  0.00  0.00    +0.000 C 
ATOM      6  C   UNL     1       3.503   3.255  18.199  0.00  0.00    +0.000 C 
ATOM      7  C   UNL     1       4.186   3.859  16.955  0.00  0.00    +0.000 C 
ATOM      8  C   UNL     1       4.130   5.365  17.264  0.00  0.00    +0.000 C 
ATOM      9  C   UNL     1       3.413   5.402  18.642  0.00  0.00    +0.000 C 
ATOM     10  O   UNL     1       4.363   4.906  19.599  0.00  0.00    +0.000 OA
ATOM     11  C   UNL     1       4.486   3.556  19.323  0.00  0.00    +0.000 C 
ATOM     12  O   UNL     1       5.254   2.795  19.880  0.00  0.00    +0.000 OA
ATOM     13  C   UNL     1       2.384   4.254  18.566  0.00  0.00    +0.000 C 
ATOM     14  C   UNL     1       1.680   3.935  19.902  0.00  0.00    +0.000 C 
ATOM     15  C   UNL     1       1.288   4.417  17.497  0.00  0.00    +0.000 C 
ENDBRANCH   1   9
BRANCH   3  16
ATOM     16  N   UNL     1       2.409   8.948  18.098  0.00  0.00    +0.000 NA
ATOM     17  C   UNL     1       1.124   9.094  18.067  0.00  0.00    +0.000 C 
BRANCH  17  18
ATOM     18  C   UNL     1       0.518  10.428  18.303  0.00  0.00    +0.000 A 
ATOM     19  C   UNL     1      -0.866  10.607  18.164  0.00  0.00    +0.000 A 
ATOM     20  C   UNL     1      -1.438  11.865  18.368  0.00  0.00    +0.000 A 
ATOM     21  C   UNL     1      -0.620  12.937  18.714  0.00  0.00    +0.000 A 
ATOM     22  C   UNL     1       0.754  12.768  18.858  0.00  0.00    +0.000 A 
ATOM     23  C   UNL     1       1.330  11.510  18.652  0.00  0.00    +0.000 A 
BRANCH  21  24
ATOM     24  O   UNL     1      -1.135  14.182  18.918  0.00  0.00    +0.000 OA
ATOM     25  H   UNL     1      -0.958  14.725  18.131  0.00  0.00    +0.000 HD
ENDBRANCH  21  24
ENDBRANCH  17  18
ENDBRANCH   3  16
TORSDOF 4
ENDMDL
MODEL 7
REMARK VINA RESULT:      -7.8      2.079      8.986
REMARK  Name = 
REMARK  7 active torsions:
REMARK  status: ('A' for Active; 'I' for Inactive)
REMARK    1  A    between atoms: C_1  and  C_2
REMARK    2  A    between atoms: C_5  and  C_6
REMARK    3  A    between atoms: N_8  and  N_9
REMARK    4  A    between atoms: C_10  and  C_11
REMARK    5  A    between atoms: C_14  and  O_15
REMARK    6  A    between atoms: C_21  and  C_22
REMARK    7  A    between atoms: C_21  and  C_23
REMARK                            x       y       z     vdW  Elec       q    Type
REMARK                         _______ _______ _______ _____ _____    ______ ____
ROOT
ATOM      1  C   UNL     1       9.511  10.687  19.261  0.00  0.00    +0.000 C 
ATOM      2  O   UNL     1       9.305  10.353  20.428  0.00  0.00    +0.000 OA
ATOM      3  N   UNL     1       8.989  10.025  18.156  0.00  0.00    +0.000 N 
ATOM      4  H   UNL     1       9.281  10.275  17.216  0.00  0.00    +0.000 HD
ENDROOT
BRANCH   1   9
ATOM      5  C   UNL     1      10.657  15.562  18.429  0.00  0.00    +0.000 C 
ATOM      6  C   UNL     1      10.795  14.070  18.638  0.00  0.00    +0.000 C 
ATOM      7  C   UNL     1      11.798  13.674  19.740  0.00  0.00    +0.000 C 
ATOM      8  C   UNL     1      11.469  12.184  19.945  0.00  0.00    +0.000 C 
ATOM      9  C   UNL     1      10.317  11.949  18.930  0.00  0.00    +0.000 C 
ATOM     10  O   UNL     1      10.921  11.976  17.626  0.00  0.00    +0.000 OA
ATOM     11  C   UNL     1      11.283  13.295  17.421  0.00  0.00    +0.000 C 
ATOM     12  O   UNL     1      11.887  13.712  16.451  0.00  0.00    +0.000 OA
ATOM     13  C   UNL     1       9.514  13.267  18.954  0.00  0.00    +0.000 C 
ATOM     14  C   UNL     1       8.428  13.376  17.863  0.00  0.00    +0.000 C 
ATOM     15  C   UNL     1       8.850  13.614  20.298  0.00  0.00    +0.000 C 
ENDBRANCH   1   9
BRANCH   3  16
ATOM     16  N   UNL     1       8.270   8.886  18.376  0.00  0.00    +0.000 NA
ATOM     17  C   UNL     1       7.835   8.230  17.350  0.00  0.00    +0.000 C 
BRANCH  17  18
ATOM     18  C   UNL     1       7.072   6.971  17.537  0.00  0.00    +0.000 A 
ATOM     19  C   UNL     1       5.798   6.828  16.968  0.00  0.00    +0.000 A 
ATOM     20  C   UNL     1       5.070   5.651  17.156  0.00  0.00    +0.000 A 
ATOM     21  C   UNL     1       5.624   4.620  17.911  0.00  0.00    +0.000 A 
ATOM     22  C   UNL     1       6.889   4.751  18.476  0.00  0.00    +0.000 A 
ATOM     23  C   UNL     1       7.620   5.930  18.292  0.00  0.00    +0.000 A 
BRANCH  21  24
ATOM     24  O   UNL     1       4.947   3.457  18.125  0.00  0.00    +0.000 OA
ATOM     25  H   UNL     1       4.004   3.662  18.240  0.00  0.00    +0.000 HD
ENDBRANCH  21  24
ENDBRANCH  17  18
ENDBRANCH   3  16
TORSDOF 4
ENDMDL
MODEL 8
REMARK VINA RESULT:      -7.8      2.250      9.278
REMARK  Name = 
REMARK  7 active torsions:
REMARK  status: ('A' for Active; 'I' for Inactive)
REMARK    1  A    between atoms: C_1  and  C_2
REMARK    2  A    between atoms: C_5  and  C_6
REMARK    3  A    between atoms: N_8  and  N_9
REMARK    4  A    between atoms: C_10  and  C_11
REMARK    5  A    between atoms: C_14  and  O_15
REMARK    6  A    between atoms: C_21  and  C_22
REMARK    7  A    between atoms: C_21  and  C_23
REMARK                            x       y       z     vdW  Elec       q    Type
REMARK                         _______ _______ _______ _____ _____    ______ ____
ROOT
ATOM      1  C   UNL     1       9.469  11.316  19.086  0.00  0.00    +0.000 C 
ATOM      2  O   UNL     1       9.359  11.016  20.275  0.00  0.00    +0.000 OA
ATOM      3  N   UNL     1       9.058  10.504  18.036  0.00  0.00    +0.000 N 
ATOM      4  H   UNL     1       9.273  10.750  17.074  0.00  0.00    +0.000 HD
ENDROOT
BRANCH   1   9
ATOM      5  C   UNL     1      12.133  15.637  19.115  0.00  0.00    +0.000 C 
ATOM      6  C   UNL     1      11.220  14.516  18.669  0.00  0.00    +0.000 C 
ATOM      7  C   UNL     1      11.583  13.908  17.300  0.00  0.00    +0.000 C 
ATOM      8  C   UNL     1      10.731  12.626  17.288  0.00  0.00    +0.000 C 
ATOM      9  C   UNL     1      10.008  12.687  18.662  0.00  0.00    +0.000 C 
ATOM     10  O   UNL     1       9.029  13.733  18.552  0.00  0.00    +0.000 OA
ATOM     11  C   UNL     1       9.757  14.908  18.505  0.00  0.00    +0.000 C 
ATOM     12  O   UNL     1       9.285  16.018  18.346  0.00  0.00    +0.000 OA
ATOM     13  C   UNL     1      11.053  13.306  19.614  0.00  0.00    +0.000 C 
ATOM     14  C   UNL     1      10.508  13.678  21.010  0.00  0.00    +0.000 C 
ATOM     15  C   UNL     1      12.331  12.473  19.828  0.00  0.00    +0.000 C 
ENDBRANCH   1   9
BRANCH   3  16
ATOM     16  N   UNL     1       8.576   9.263  18.339  0.00  0.00    +0.000 NA
ATOM     17  C   UNL     1       7.805   8.680  17.481  0.00  0.00    +0.000 C 
BRANCH  17  18
ATOM     18  C   UNL     1       7.279   7.319  17.753  0.00  0.00    +0.000 A 
ATOM     19  C   UNL     1       6.125   6.866  17.098  0.00  0.00    +0.000 A 
ATOM     20  C   UNL     1       5.617   5.592  17.364  0.00  0.00    +0.000 A 
ATOM     21  C   UNL     1       6.271   4.776  18.284  0.00  0.00    +0.000 A 
ATOM     22  C   UNL     1       7.420   5.216  18.936  0.00  0.00    +0.000 A 
ATOM     23  C   UNL     1       7.929   6.492  18.673  0.00  0.00    +0.000 A 
BRANCH  21  24
ATOM     24  O   UNL     1       5.808   3.529  18.577  0.00  0.00    +0.000 OA
ATOM     25  H   UNL     1       6.457   2.874  18.268  0.00  0.00    +0.000 HD
ENDBRANCH  21  24
ENDBRANCH  17  18
ENDBRANCH   3  16
TORSDOF 4
ENDMDL
MODEL 9
REMARK VINA RESULT:      -7.7      5.845      7.333
REMARK  Name = 
REMARK  7 active torsions:
REMARK  status: ('A' for Active; 'I' for Inactive)
REMARK    1  A    between atoms: C_1  and  C_2
REMARK    2  A    between atoms: C_5  and  C_6
REMARK    3  A    between atoms: N_8  and  N_9
REMARK    4  A    between atoms: C_10  and  C_11
REMARK    5  A    between atoms: C_14  and  O_15
REMARK    6  A    between atoms: C_21  and  C_22
REMARK    7  A    between atoms: C_21  and  C_23
REMARK                            x       y       z     vdW  Elec       q    Type
REMARK                         _______ _______ _______ _____ _____    ______ ____
ROOT
ATOM      1  C   UNL     1       1.752   5.773  20.265  0.00  0.00    +0.000 C 
ATOM      2  O   UNL     1       0.684   5.410  20.757  0.00  0.00    +0.000 OA
ATOM      3  N   UNL     1       2.317   7.028  20.465  0.00  0.00    +0.000 N 
ATOM      4  H   UNL     1       3.142   7.314  19.947  0.00  0.00    +0.000 HD
ENDROOT
BRANCH   1   9
ATOM      5  C   UNL     1       3.683   1.463  18.404  0.00  0.00    +0.000 C 
ATOM      6  C   UNL     1       3.379   2.931  18.605  0.00  0.00    +0.000 C 
ATOM      7  C   UNL     1       2.897   3.659  17.333  0.00  0.00    +0.000 C 
ATOM      8  C   UNL     1       2.361   4.981  17.910  0.00  0.00    +0.000 C 
ATOM      9  C   UNL     1       2.609   4.811  19.435  0.00  0.00    +0.000 C 
ATOM     10  O   UNL     1       4.029   4.923  19.623  0.00  0.00    +0.000 OA
ATOM     11  C   UNL     1       4.561   3.774  19.068  0.00  0.00    +0.000 C 
ATOM     12  O   UNL     1       5.749   3.528  18.971  0.00  0.00    +0.000 OA
ATOM     13  C   UNL     1       2.355   3.311  19.696  0.00  0.00    +0.000 C 
ATOM     14  C   UNL     1       2.747   2.831  21.110  0.00  0.00    +0.000 C 
ATOM     15  C   UNL     1       0.918   2.826  19.430  0.00  0.00    +0.000 C 
ENDBRANCH   1   9
BRANCH   3  16
ATOM     16  N   UNL     1       1.603   7.941  21.187  0.00  0.00    +0.000 NA
ATOM     17  C   UNL     1       1.100   8.955  20.562  0.00  0.00    +0.000 C 
BRANCH  17  18
ATOM     18  C   UNL     1       0.293   9.960  21.297  0.00  0.00    +0.000 A 
ATOM     19  C   UNL     1       0.205  11.277  20.822  0.00  0.00    +0.000 A 
ATOM     20  C   UNL     1      -0.540  12.230  21.521  0.00  0.00    +0.000 A 
ATOM     21  C   UNL     1      -1.196  11.858  22.692  0.00  0.00    +0.000 A 
ATOM     22  C   UNL     1      -1.117  10.552  23.169  0.00  0.00    +0.000 A 
ATOM     23  C   UNL     1      -0.370   9.596  22.473  0.00  0.00    +0.000 A 
BRANCH  21  24
ATOM     24  O   UNL     1      -1.929  12.756  23.407  0.00  0.00    +0.000 OA
ATOM     25  H   UNL     1      -2.870  12.625  23.201  0.00  0.00    +0.000 HD
ENDBRANCH  21  24
ENDBRANCH  17  18
ENDBRANCH   3  16
TORSDOF 4
ENDMDL
