MODEL 1
REMARK VINA RESULT:      -7.7      0.000      0.000
REMARK  Name = 
REMARK  9 active torsions:
REMARK  status: ('A' for Active; 'I' for Inactive)
REMARK    1  A    between atoms: N_1  and  C_2
REMARK    2  A    between atoms: C_7  and  N_8
REMARK    3  A    between atoms: C_9  and  C_11
REMARK    4  A    between atoms: C_11  and  C_12
REMARK    5  A    between atoms: C_12  and  C_13
REMARK    6  A    between atoms: C_13  and  C_14
REMARK    7  A    between atoms: C_14  and  C_15
REMARK    8  A    between atoms: C_15  and  N_16
REMARK    9  A    between atoms: C_17  and  C_19
REMARK                            x       y       z     vdW  Elec       q    Type
REMARK                         _______ _______ _______ _____ _____    ______ ____
ROOT
ATOM      1  C   UNL     1       1.501   2.119  19.237  0.00  0.00    +0.000 C 
ENDROOT
BRANCH   1   2
ATOM      2  C   UNL     1       1.709   2.975  17.988  0.00  0.00    +0.000 C 
BRANCH   2   4
ATOM      3  N   UNL     1       3.627   4.154  17.046  0.00  0.00    +0.000 N 
ATOM      4  C   UNL     1       3.179   2.967  17.607  0.00  0.00    +0.000 C 
ATOM      5  O   UNL     1       3.838   1.944  17.772  0.00  0.00    +0.000 OA
ATOM      6  H   UNL     1       3.061   4.977  17.188  0.00  0.00    +0.000 HD
BRANCH   3  12
ATOM      7  C   UNL     1       6.056   4.438  17.282  0.00  0.00    +0.000 A 
ATOM      8  C   UNL     1       7.318   4.565  16.669  0.00  0.00    +0.000 A 
ATOM      9  C   UNL     1       7.442   4.731  15.289  0.00  0.00    +0.000 A 
ATOM     10  C   UNL     1       6.305   4.739  14.496  0.00  0.00    +0.000 A 
ATOM     11  C   UNL     1       5.049   4.560  15.078  0.00  0.00    +0.000 A 
ATOM     12  C   UNL     1       4.904   4.375  16.461  0.00  0.00    +0.000 A 
BRANCH   7  13
ATOM     13  N   UNL     1       6.029   4.139  18.662  0.00  0.00    +0.000 N 
ATOM     14  H   UNL     1       6.833   4.516  19.158  0.00  0.00    +0.000 HD
ATOM     15  H   UNL     1       5.169   4.369  19.137  0.00  0.00    +0.000 HD
ENDBRANCH   7  13
ENDBRANCH   3  12
ENDBRANCH   2   4
ENDBRANCH   1   2
BRANCH   1  16
ATOM     16  C   UNL     1       0.715   2.848  20.329  0.00  0.00    +0.000 C 
BRANCH  16  17
ATOM     17  C   UNL     1       1.604   3.111  21.549  0.00  0.00    +0.000 C 
BRANCH  17  18
ATOM     18  C   UNL     1       2.702   4.131  21.250  0.00  0.00    +0.000 C 
BRANCH  18  19
ATOM     19  N   UNL     1       2.143   5.428  20.918  0.00  0.00    +0.000 N 
ATOM     20  C   UNL     1       2.732   6.237  19.968  0.00  0.00    +0.000 C 
ATOM     21  O   UNL     1       3.748   5.927  19.353  0.00  0.00    +0.000 OA
ATOM     22  H   UNL     1       1.211   5.643  21.245  0.00  0.00    +0.000 HD
BRANCH  20  23
ATOM     23  C   UNL     1       2.064   7.541  19.677  0.00  0.00    +0.000 A 
ATOM     24  C   UNL     1       1.368   8.263  20.659  0.00  0.00    +0.000 A 
ATOM     25  C   UNL     1       0.782   9.493  20.340  0.00  0.00    +0.000 A 
ATOM     26  C   UNL     1       0.898  10.005  19.047  0.00  0.00    +0.000 A 
ATOM     27 CL   UNL     1       0.179  11.519  18.661  0.00  0.00    +0.000 Cl
ATOM     28  C   UNL     1       1.599   9.301  18.070  0.00  0.00    +0.000 A 
ATOM     29  C   UNL     1       2.187   8.074  18.386  0.00  0.00    +0.000 A 
ENDBRANCH  20  23
ENDBRANCH  18  19
ENDBRANCH  17  18
ENDBRANCH  16  17
ENDBRANCH   1  16
TORSDOF 9
ENDMDL
MODEL 2
REMARK VINA RESULT:      -7.4      0.548      1.111
REMARK  Name = 
REMARK  9 active torsions:
REMARK  status: ('A' for Active; 'I' for Inactive)
REMARK    1  A    between atoms: N_1  and  C_2
REMARK    2  A    between atoms: C_7  and  N_8
REMARK    3  A    between atoms: C_9  and  C_11
REMARK    4  A    between atoms: C_11  and  C_12
REMARK    5  A    between atoms: C_12  and  C_13
REMARK    6  A    between atoms: C_13  and  C_14
REMARK    7  A    between atoms: C_14  and  C_15
REMARK    8  A    between atoms: C_15  and  N_16
REMARK    9  A    between atoms: C_17  and  C_19
REMARK                            x       y       z     vdW  Elec       q    Type
REMARK                         _______ _______ _______ _____ _____    ______ ____
ROOT
ATOM      1  C   UNL     1       1.192   3.088  19.033  0.00  0.00    +0.000 C 
ENDROOT
BRANCH   1   2
ATOM      2  C   UNL     1       1.710   2.197  17.904  0.00  0.00    +0.000 C 
BRANCH   2   4
ATOM      3  N   UNL     1       3.536   3.623  17.135  0.00  0.00    +0.000 N 
ATOM      4  C   UNL     1       3.204   2.415  17.730  0.00  0.00    +0.000 C 
ATOM      5  O   UNL     1       3.984   1.532  18.074  0.00  0.00    +0.000 OA
ATOM      6  H   UNL     1       2.831   4.345  17.125  0.00  0.00    +0.000 HD
BRANCH   3  12
ATOM      7  C   UNL     1       5.841   4.277  17.675  0.00  0.00    +0.000 A 
ATOM      8  C   UNL     1       7.143   4.578  17.229  0.00  0.00    +0.000 A 
ATOM      9  C   UNL     1       7.429   4.727  15.871  0.00  0.00    +0.000 A 
ATOM     10  C   UNL     1       6.423   4.544  14.936  0.00  0.00    +0.000 A 
ATOM     11  C   UNL     1       5.138   4.191  15.355  0.00  0.00    +0.000 A 
ATOM     12  C   UNL     1       4.835   4.020  16.714  0.00  0.00    +0.000 A 
BRANCH   7  13
ATOM     13  N   UNL     1       5.670   4.010  19.052  0.00  0.00    +0.000 N 
ATOM     14  H   UNL     1       5.221   3.113  19.222  0.00  0.00    +0.000 HD
ATOM     15  H   UNL     1       6.498   4.115  19.618  0.00  0.00    +0.000 HD
ENDBRANCH   7  13
ENDBRANCH   3  12
ENDBRANCH   2   4
ENDBRANCH   1   2
BRANCH   1  16
ATOM     16  C   UNL     1       1.393   2.466  20.416  0.00  0.00    +0.000 C 
BRANCH  16  17
ATOM     17  C   UNL     1       1.555   3.556  21.480  0.00  0.00    +0.000 C 
BRANCH  17  18
ATOM     18  C   UNL     1       2.685   4.526  21.140  0.00  0.00    +0.000 C 
BRANCH  18  19
ATOM     19  N   UNL     1       2.175   5.852  20.850  0.00  0.00    +0.000 N 
ATOM     20  C   UNL     1       2.560   6.533  19.714  0.00  0.00    +0.000 C 
ATOM     21  O   UNL     1       3.344   6.077  18.886  0.00  0.00    +0.000 OA
ATOM     22  H   UNL     1       1.386   6.187  21.388  0.00  0.00    +0.000 HD
BRANCH  20  23
ATOM     23  C   UNL     1       1.957   7.882  19.491  0.00  0.00    +0.000 A 
ATOM     24  C   UNL     1       2.004   8.528  18.247  0.00  0.00    +0.000 A 
ATOM     25  C   UNL     1       1.400   9.781  18.085  0.00  0.00    +0.000 A 
ATOM     26  C   UNL     1       0.745  10.381  19.160  0.00  0.00    +0.000 A 
ATOM     27 CL   UNL     1       0.001  11.918  18.956  0.00  0.00    +0.000 Cl
ATOM     28  C   UNL     1       0.682   9.740  20.396  0.00  0.00    +0.000 A 
ATOM     29  C   UNL     1       1.282   8.489  20.559  0.00  0.00    +0.000 A 
ENDBRANCH  20  23
ENDBRANCH  18  19
ENDBRANCH  17  18
ENDBRANCH  16  17
ENDBRANCH   1  16
TORSDOF 9
ENDMDL
MODEL 3
REMARK VINA RESULT:      -7.3      2.253      3.884
REMARK  Name = 
REMARK  9 active torsions:
REMARK  status: ('A' for Active; 'I' for Inactive)
REMARK    1  A    between atoms: N_1  and  C_2
REMARK    2  A    between atoms: C_7  and  N_8
REMARK    3  A    between atoms: C_9  and  C_11
REMARK    4  A    between atoms: C_11  and  C_12
REMARK    5  A    between atoms: C_12  and  C_13
REMARK    6  A    between atoms: C_13  and  C_14
REMARK    7  A    between atoms: C_14  and  C_15
REMARK    8  A    between atoms: C_15  and  N_16
REMARK    9  A    between atoms: C_17  and  C_19
REMARK                            x       y       z     vdW  Elec       q    Type
REMARK                         _______ _______ _______ _____ _____    ______ ____
ROOT
ATOM      1  C   UNL     1       7.299   5.590  18.689  0.00  0.00    +0.000 C 
ENDROOT
BRANCH   1   2
ATOM      2  C   UNL     1       7.405   6.685  17.628  0.00  0.00    +0.000 C 
BRANCH   2   4
ATOM      3  N   UNL     1       7.369   5.252  15.653  0.00  0.00    +0.000 N 
ATOM      4  C   UNL     1       6.696   6.235  16.362  0.00  0.00    +0.000 C 
ATOM      5  O   UNL     1       5.641   6.776  16.040  0.00  0.00    +0.000 OA
ATOM      6  H   UNL     1       8.084   4.735  16.142  0.00  0.00    +0.000 HD
BRANCH   3  12
ATOM      7  C   UNL     1       7.731   5.199  13.224  0.00  0.00    +0.000 A 
ATOM      8  C   UNL     1       7.426   4.626  11.974  0.00  0.00    +0.000 A 
ATOM      9  C   UNL     1       6.374   3.721  11.827  0.00  0.00    +0.000 A 
ATOM     10  C   UNL     1       5.632   3.348  12.937  0.00  0.00    +0.000 A 
ATOM     11  C   UNL     1       5.955   3.862  14.194  0.00  0.00    +0.000 A 
ATOM     12  C   UNL     1       7.018   4.760  14.366  0.00  0.00    +0.000 A 
BRANCH   7  13
ATOM     13  N   UNL     1       8.893   5.998  13.308  0.00  0.00    +0.000 N 
ATOM     14  H   UNL     1       8.682   6.993  13.301  0.00  0.00    +0.000 HD
ATOM     15  H   UNL     1       9.522   5.767  14.062  0.00  0.00    +0.000 HD
ENDBRANCH   7  13
ENDBRANCH   3  12
ENDBRANCH   2   4
ENDBRANCH   1   2
BRANCH   1  16
ATOM     16  C   UNL     1       5.884   5.449  19.254  0.00  0.00    +0.000 C 
BRANCH  16  17
ATOM     17  C   UNL     1       5.351   4.031  19.027  0.00  0.00    +0.000 C 
BRANCH  17  18
ATOM     18  C   UNL     1       3.913   4.035  18.509  0.00  0.00    +0.000 C 
BRANCH  18  19
ATOM     19  N   UNL     1       3.389   5.384  18.412  0.00  0.00    +0.000 N 
ATOM     20  C   UNL     1       2.631   5.931  19.426  0.00  0.00    +0.000 C 
ATOM     21  O   UNL     1       2.350   5.329  20.459  0.00  0.00    +0.000 OA
ATOM     22  H   UNL     1       3.752   5.984  17.683  0.00  0.00    +0.000 HD
BRANCH  20  23
ATOM     23  C   UNL     1       2.162   7.337  19.243  0.00  0.00    +0.000 A 
ATOM     24  C   UNL     1       2.291   8.017  18.022  0.00  0.00    +0.000 A 
ATOM     25  C   UNL     1       1.811   9.326  17.897  0.00  0.00    +0.000 A 
ATOM     26  C   UNL     1       1.198   9.950  18.984  0.00  0.00    +0.000 A 
ATOM     27 CL   UNL     1       0.607  11.557  18.824  0.00  0.00    +0.000 Cl
ATOM     28  C   UNL     1       1.054   9.277  20.195  0.00  0.00    +0.000 A 
ATOM     29  C   UNL     1       1.530   7.969  20.323  0.00  0.00    +0.000 A 
ENDBRANCH  20  23
ENDBRANCH  18  19
ENDBRANCH  17  18
ENDBRANCH  16  17
ENDBRANCH   1  16
TORSDOF 9
ENDMDL
MODEL 4
REMARK VINA RESULT:      -7.2      1.656      2.406
REMARK  Name = 
REMARK  9 active torsions:
REMARK  status: ('A' for Active; 'I' for Inactive)
REMARK    1  A    between atoms: N_1  and  C_2
REMARK    2  A    between atoms: C_7  and  N_8
REMARK    3  A    between atoms: C_9  and  C_11
REMARK    4  A    between atoms: C_11  and  C_12
REMARK    5  A    between atoms: C_12  and  C_13
REMARK    6  A    between atoms: C_13  and  C_14
REMARK    7  A    between atoms: C_14  and  C_15
REMARK    8  A    between atoms: C_15  and  N_16
REMARK    9  A    between atoms: C_17  and  C_19
REMARK                            x       y       z     vdW  Elec       q    Type
REMARK                         _______ _______ _______ _____ _____    ______ ____
ROOT
ATOM      1  C   UNL     1       3.153   2.657  19.350  0.00  0.00    +0.000 C 
ENDROOT
BRANCH   1   2
ATOM      2  C   UNL     1       3.332   2.666  17.832  0.00  0.00    +0.000 C 
BRANCH   2   4
ATOM      3  N   UNL     1       4.929   4.410  18.434  0.00  0.00    +0.000 N 
ATOM      4  C   UNL     1       4.559   3.484  17.470  0.00  0.00    +0.000 C 
ATOM      5  O   UNL     1       5.097   3.311  16.379  0.00  0.00    +0.000 OA
ATOM      6  H   UNL     1       4.559   4.285  19.364  0.00  0.00    +0.000 HD
BRANCH   3  12
ATOM      7  C   UNL     1       5.773   6.448  17.351  0.00  0.00    +0.000 A 
ATOM      8  C   UNL     1       6.738   7.472  17.299  0.00  0.00    +0.000 A 
ATOM      9  C   UNL     1       7.893   7.422  18.082  0.00  0.00    +0.000 A 
ATOM     10  C   UNL     1       8.081   6.362  18.956  0.00  0.00    +0.000 A 
ATOM     11  C   UNL     1       7.109   5.366  19.062  0.00  0.00    +0.000 A 
ATOM     12  C   UNL     1       5.935   5.406  18.296  0.00  0.00    +0.000 A 
BRANCH   7  13
ATOM     13  N   UNL     1       4.575   6.645  16.628  0.00  0.00    +0.000 N 
ATOM     14  H   UNL     1       4.732   7.097  15.730  0.00  0.00    +0.000 HD
ATOM     15  H   UNL     1       3.994   5.827  16.524  0.00  0.00    +0.000 HD
ENDBRANCH   7  13
ENDBRANCH   3  12
ENDBRANCH   2   4
ENDBRANCH   1   2
BRANCH   1  16
ATOM     16  C   UNL     1       1.693   2.478  19.772  0.00  0.00    +0.000 C 
BRANCH  16  17
ATOM     17  C   UNL     1       1.168   3.746  20.453  0.00  0.00    +0.000 C 
BRANCH  17  18
ATOM     18  C   UNL     1       2.301   4.628  20.974  0.00  0.00    +0.000 C 
BRANCH  18  19
ATOM     19  N   UNL     1       2.012   6.035  20.774  0.00  0.00    +0.000 N 
ATOM     20  C   UNL     1       2.132   6.619  19.530  0.00  0.00    +0.000 C 
ATOM     21  O   UNL     1       2.486   6.006  18.527  0.00  0.00    +0.000 OA
ATOM     22  H   UNL     1       1.533   6.533  21.513  0.00  0.00    +0.000 HD
BRANCH  20  23
ATOM     23  C   UNL     1       1.784   8.068  19.422  0.00  0.00    +0.000 A 
ATOM     24  C   UNL     1       1.977   8.800  18.240  0.00  0.00    +0.000 A 
ATOM     25  C   UNL     1       1.610  10.149  18.184  0.00  0.00    +0.000 A 
ATOM     26  C   UNL     1       1.044  10.763  19.301  0.00  0.00    +0.000 A 
ATOM     27 CL   UNL     1       0.590  12.420  19.227  0.00  0.00    +0.000 Cl
ATOM     28  C   UNL     1       0.836  10.041  20.474  0.00  0.00    +0.000 A 
ATOM     29  C   UNL     1       1.199   8.692  20.532  0.00  0.00    +0.000 A 
ENDBRANCH  20  23
ENDBRANCH  18  19
ENDBRANCH  17  18
ENDBRANCH  16  17
ENDBRANCH   1  16
TORSDOF 9
ENDMDL
MODEL 5
REMARK VINA RESULT:      -7.0      6.766      8.388
REMARK  Name = 
REMARK  9 active torsions:
REMARK  status: ('A' for Active; 'I' for Inactive)
REMARK    1  A    between atoms: N_1  and  C_2
REMARK    2  A    between atoms: C_7  and  N_8
REMARK    3  A    between atoms: C_9  and  C_11
REMARK    4  A    between atoms: C_11  and  C_12
REMARK    5  A    between atoms: C_12  and  C_13
REMARK    6  A    between atoms: C_13  and  C_14
REMARK    7  A    between atoms: C_14  and  C_15
REMARK    8  A    between atoms: C_15  and  N_16
REMARK    9  A    between atoms: C_17  and  C_19
REMARK                            x       y       z     vdW  Elec       q    Type
REMARK                         _______ _______ _______ _____ _____    ______ ____
ROOT
ATOM      1  C   UNL     1       7.103   7.075  17.460  0.00  0.00    +0.000 C 
ENDROOT
BRANCH   1   2
ATOM      2  C   UNL     1       7.151   5.550  17.552  0.00  0.00    +0.000 C 
BRANCH   2   4
ATOM      3  N   UNL     1       5.070   4.654  18.459  0.00  0.00    +0.000 N 
ATOM      4  C   UNL     1       6.352   5.089  18.759  0.00  0.00    +0.000 C 
ATOM      5  O   UNL     1       6.853   5.167  19.877  0.00  0.00    +0.000 OA
ATOM      6  H   UNL     1       4.873   4.417  17.498  0.00  0.00    +0.000 HD
BRANCH   3  12
ATOM      7  C   UNL     1       3.958   2.989  19.882  0.00  0.00    +0.000 A 
ATOM      8  C   UNL     1       3.008   2.702  20.882  0.00  0.00    +0.000 A 
ATOM      9  C   UNL     1       2.104   3.669  21.324  0.00  0.00    +0.000 A 
ATOM     10  C   UNL     1       2.160   4.950  20.797  0.00  0.00    +0.000 A 
ATOM     11  C   UNL     1       3.131   5.269  19.845  0.00  0.00    +0.000 A 
ATOM     12  C   UNL     1       4.058   4.316  19.400  0.00  0.00    +0.000 A 
BRANCH   7  13
ATOM     13  N   UNL     1       4.918   1.994  19.592  0.00  0.00    +0.000 N 
ATOM     14  H   UNL     1       5.051   1.861  18.592  0.00  0.00    +0.000 HD
ATOM     15  H   UNL     1       5.803   2.098  20.065  0.00  0.00    +0.000 HD
ENDBRANCH   7  13
ENDBRANCH   3  12
ENDBRANCH   2   4
ENDBRANCH   1   2
BRANCH   1  16
ATOM     16  C   UNL     1       8.201   7.751  18.283  0.00  0.00    +0.000 C 
BRANCH  16  17
ATOM     17  C   UNL     1       8.235   9.258  18.004  0.00  0.00    +0.000 C 
BRANCH  17  18
ATOM     18  C   UNL     1       9.201   9.992  18.933  0.00  0.00    +0.000 C 
BRANCH  18  19
ATOM     19  N   UNL     1       9.238  11.412  18.643  0.00  0.00    +0.000 N 
ATOM     20  C   UNL     1      10.430  12.107  18.623  0.00  0.00    +0.000 C 
ATOM     21  O   UNL     1      11.518  11.585  18.846  0.00  0.00    +0.000 OA
ATOM     22  H   UNL     1       8.405  11.842  18.262  0.00  0.00    +0.000 HD
BRANCH  20  23
ATOM     23  C   UNL     1      10.365  13.560  18.286  0.00  0.00    +0.000 A 
ATOM     24  C   UNL     1       9.591  14.468  19.026  0.00  0.00    +0.000 A 
ATOM     25  C   UNL     1       9.585  15.825  18.683  0.00  0.00    +0.000 A 
ATOM     26  C   UNL     1      10.356  16.275  17.610  0.00  0.00    +0.000 A 
ATOM     27 CL   UNL     1      10.349  17.944  17.195  0.00  0.00    +0.000 Cl
ATOM     28  C   UNL     1      11.137  15.383  16.879  0.00  0.00    +0.000 A 
ATOM     29  C   UNL     1      11.147  14.028  17.220  0.00  0.00    +0.000 A 
ENDBRANCH  20  23
ENDBRANCH  18  19
ENDBRANCH  17  18
ENDBRANCH  16  17
ENDBRANCH   1  16
TORSDOF 9
ENDMDL
MODEL 6
REMARK VINA RESULT:      -6.9      1.923      2.568
REMARK  Name = 
REMARK  9 active torsions:
REMARK  status: ('A' for Active; 'I' for Inactive)
REMARK    1  A    between atoms: N_1  and  C_2
REMARK    2  A    between atoms: C_7  and  N_8
REMARK    3  A    between atoms: C_9  and  C_11
REMARK    4  A    between atoms: C_11  and  C_12
REMARK    5  A    between atoms: C_12  and  C_13
REMARK    6  A    between atoms: C_13  and  C_14
REMARK    7  A    between atoms: C_14  and  C_15
REMARK    8  A    between atoms: C_15  and  N_16
REMARK    9  A    between atoms: C_17  and  C_19
REMARK                            x       y       z     vdW  Elec       q    Type
REMARK                         _______ _______ _______ _____ _____    ______ ____
ROOT
ATOM      1  C   UNL     1       1.401   2.249  18.968  0.00  0.00    +0.000 C 
ENDROOT
BRANCH   1   2
ATOM      2  C   UNL     1       2.485   1.959  17.930  0.00  0.00    +0.000 C 
BRANCH   2   4
ATOM      3  N   UNL     1       3.881   3.823  17.201  0.00  0.00    +0.000 N 
ATOM      4  C   UNL     1       3.681   2.861  18.179  0.00  0.00    +0.000 C 
ATOM      5  O   UNL     1       4.388   2.663  19.163  0.00  0.00    +0.000 OA
ATOM      6  H   UNL     1       3.106   4.030  16.588  0.00  0.00    +0.000 HD
BRANCH   3  12
ATOM      7  C   UNL     1       6.115   4.318  16.308  0.00  0.00    +0.000 A 
ATOM      8  C   UNL     1       7.171   5.237  16.148  0.00  0.00    +0.000 A 
ATOM      9  C   UNL     1       7.185   6.454  16.831  0.00  0.00    +0.000 A 
ATOM     10  C   UNL     1       6.123   6.786  17.659  0.00  0.00    +0.000 A 
ATOM     11  C   UNL     1       5.042   5.913  17.788  0.00  0.00    +0.000 A 
ATOM     12  C   UNL     1       5.001   4.693  17.098  0.00  0.00    +0.000 A 
BRANCH   7  13
ATOM     13  N   UNL     1       6.115   3.175  15.479  0.00  0.00    +0.000 N 
ATOM     14  H   UNL     1       5.185   2.782  15.357  0.00  0.00    +0.000 HD
ATOM     15  H   UNL     1       6.581   3.286  14.591  0.00  0.00    +0.000 HD
ENDBRANCH   7  13
ENDBRANCH   3  12
ENDBRANCH   2   4
ENDBRANCH   1   2
BRANCH   1  16
ATOM     16  C   UNL     1       1.048   3.736  19.053  0.00  0.00    +0.000 C 
BRANCH  16  17
ATOM     17  C   UNL     1       1.306   4.272  20.465  0.00  0.00    +0.000 C 
BRANCH  17  18
ATOM     18  C   UNL     1       2.245   5.477  20.458  0.00  0.00    +0.000 C 
BRANCH  18  19
ATOM     19  N   UNL     1       1.606   6.650  21.023  0.00  0.00    +0.000 N 
ATOM     20  C   UNL     1       1.591   7.852  20.345  0.00  0.00    +0.000 C 
ATOM     21  O   UNL     1       2.106   8.012  19.243  0.00  0.00    +0.000 OA
ATOM     22  H   UNL     1       1.004   6.524  21.825  0.00  0.00    +0.000 HD
BRANCH  20  23
ATOM     23  C   UNL     1       0.883   8.993  21.000  0.00  0.00    +0.000 A 
ATOM     24  C   UNL     1       0.613  10.194  20.325  0.00  0.00    +0.000 A 
ATOM     25  C   UNL     1      -0.077  11.222  20.977  0.00  0.00    +0.000 A 
ATOM     26  C   UNL     1      -0.503  11.049  22.294  0.00  0.00    +0.000 A 
ATOM     27 CL   UNL     1      -1.354  12.315  23.090  0.00  0.00    +0.000 Cl
ATOM     28  C   UNL     1      -0.251   9.856  22.966  0.00  0.00    +0.000 A 
ATOM     29  C   UNL     1       0.435   8.826  22.318  0.00  0.00    +0.000 A 
ENDBRANCH  20  23
ENDBRANCH  18  19
ENDBRANCH  17  18
ENDBRANCH  16  17
ENDBRANCH   1  16
TORSDOF 9
ENDMDL
MODEL 7
REMARK VINA RESULT:      -6.9      1.816      2.349
REMARK  Name = 
REMARK  9 active torsions:
REMARK  status: ('A' for Active; 'I' for Inactive)
REMARK    1  A    between atoms: N_1  and  C_2
REMARK    2  A    between atoms: C_7  and  N_8
REMARK    3  A    between atoms: C_9  and  C_11
REMARK    4  A    between atoms: C_11  and  C_12
REMARK    5  A    between atoms: C_12  and  C_13
REMARK    6  A    between atoms: C_13  and  C_14
REMARK    7  A    between atoms: C_14  and  C_15
REMARK    8  A    between atoms: C_15  and  N_16
REMARK    9  A    between atoms: C_17  and  C_19
REMARK                            x       y       z     vdW  Elec       q    Type
REMARK                         _______ _______ _______ _____ _____    ______ ____
ROOT
ATOM      1  C   UNL     1       1.066   3.023  19.466  0.00  0.00    +0.000 C 
ENDROOT
BRANCH   1   2
ATOM      2  C   UNL     1       2.367   2.329  19.063  0.00  0.00    +0.000 C 
BRANCH   2   4
ATOM      3  N   UNL     1       4.182   3.370  17.808  0.00  0.00    +0.000 N 
ATOM      4  C   UNL     1       2.873   2.917  17.757  0.00  0.00    +0.000 C 
ATOM      5  O   UNL     1       2.112   2.988  16.796  0.00  0.00    +0.000 OA
ATOM      6  H   UNL     1       4.760   3.038  18.566  0.00  0.00    +0.000 HD
BRANCH   3  12
ATOM      7  C   UNL     1       4.657   5.496  16.672  0.00  0.00    +0.000 A 
ATOM      8  C   UNL     1       5.406   6.209  15.715  0.00  0.00    +0.000 A 
ATOM      9  C   UNL     1       6.254   5.553  14.822  0.00  0.00    +0.000 A 
ATOM     10  C   UNL     1       6.392   4.175  14.895  0.00  0.00    +0.000 A 
ATOM     11  C   UNL     1       5.700   3.458  15.872  0.00  0.00    +0.000 A 
ATOM     12  C   UNL     1       4.856   4.099  16.789  0.00  0.00    +0.000 A 
BRANCH   7  13
ATOM     13  N   UNL     1       3.930   6.248  17.622  0.00  0.00    +0.000 N 
ATOM     14  H   UNL     1       3.122   5.745  17.981  0.00  0.00    +0.000 HD
ATOM     15  H   UNL     1       4.478   6.639  18.373  0.00  0.00    +0.000 HD
ENDBRANCH   7  13
ENDBRANCH   3  12
ENDBRANCH   2   4
ENDBRANCH   1   2
BRANCH   1  16
ATOM     16  C   UNL     1       1.078   3.505  20.918  0.00  0.00    +0.000 C 
BRANCH  16  17
ATOM     17  C   UNL     1       2.330   4.344  21.198  0.00  0.00    +0.000 C 
BRANCH  17  18
ATOM     18  C   UNL     1       2.380   5.605  20.337  0.00  0.00    +0.000 C 
BRANCH  18  19
ATOM     19  N   UNL     1       1.654   6.697  20.955  0.00  0.00    +0.000 N 
ATOM     20  C   UNL     1       1.556   7.929  20.340  0.00  0.00    +0.000 C 
ATOM     21  O   UNL     1       2.065   8.182  19.253  0.00  0.00    +0.000 OA
ATOM     22  H   UNL     1       1.057   6.486  21.744  0.00  0.00    +0.000 HD
BRANCH  20  23
ATOM     23  C   UNL     1       0.762   8.980  21.045  0.00  0.00    +0.000 A 
ATOM     24  C   UNL     1       0.483   8.914  22.419  0.00  0.00    +0.000 A 
ATOM     25  C   UNL     1      -0.244   9.938  23.035  0.00  0.00    +0.000 A 
ATOM     26  C   UNL     1      -0.682  11.029  22.285  0.00  0.00    +0.000 A 
ATOM     27 CL   UNL     1      -1.572  12.289  23.048  0.00  0.00    +0.000 Cl
ATOM     28  C   UNL     1      -0.398  11.110  20.924  0.00  0.00    +0.000 A 
ATOM     29  C   UNL     1       0.329  10.089  20.306  0.00  0.00    +0.000 A 
ENDBRANCH  20  23
ENDBRANCH  18  19
ENDBRANCH  17  18
ENDBRANCH  16  17
ENDBRANCH   1  16
TORSDOF 9
ENDMDL
MODEL 8
REMARK VINA RESULT:      -6.9      5.644      7.580
REMARK  Name = 
REMARK  9 active torsions:
REMARK  status: ('A' for Active; 'I' for Inactive)
REMARK    1  A    between atoms: N_1  and  C_2
REMARK    2  A    between atoms: C_7  and  N_8
REMARK    3  A    between atoms: C_9  and  C_11
REMARK    4  A    between atoms: C_11  and  C_12
REMARK    5  A    between atoms: C_12  and  C_13
REMARK    6  A    between atoms: C_13  and  C_14
REMARK    7  A    between atoms: C_14  and  C_15
REMARK    8  A    between atoms: C_15  and  N_16
REMARK    9  A    between atoms: C_17  and  C_19
REMARK                            x       y       z     vdW  Elec       q    Type
REMARK                         _______ _______ _______ _____ _____    ______ ____
ROOT
ATOM      1  C   UNL     1       5.266   6.506  16.518  0.00  0.00    +0.000 C 
ENDROOT
BRANCH   1   2
ATOM      2  C   UNL     1       5.839   5.097  16.675  0.00  0.00    +0.000 C 
BRANCH   2   4
ATOM      3  N   UNL     1       3.860   4.382  17.911  0.00  0.00    +0.000 N 
ATOM      4  C   UNL     1       5.245   4.443  17.911  0.00  0.00    +0.000 C 
ATOM      5  O   UNL     1       5.993   4.065  18.809  0.00  0.00    +0.000 OA
ATOM      6  H   UNL     1       3.390   4.503  17.027  0.00  0.00    +0.000 HD
BRANCH   3  12
ATOM      7  C   UNL     1       2.318   2.752  18.912  0.00  0.00    +0.000 A 
ATOM      8  C   UNL     1       1.588   2.320  20.036  0.00  0.00    +0.000 A 
ATOM      9  C   UNL     1       1.481   3.110  21.182  0.00  0.00    +0.000 A 
ATOM     10  C   UNL     1       2.133   4.332  21.233  0.00  0.00    +0.000 A 
ATOM     11  C   UNL     1       2.907   4.754  20.150  0.00  0.00    +0.000 A 
ATOM     12  C   UNL     1       3.040   3.967  18.997  0.00  0.00    +0.000 A 
BRANCH   7  13
ATOM     13  N   UNL     1       2.485   1.835  17.852  0.00  0.00    +0.000 N 
ATOM     14  H   UNL     1       1.598   1.505  17.478  0.00  0.00    +0.000 HD
ATOM     15  H   UNL     1       3.100   2.138  17.112  0.00  0.00    +0.000 HD
ENDBRANCH   7  13
ENDBRANCH   3  12
ENDBRANCH   2   4
ENDBRANCH   1   2
BRANCH   1  16
ATOM     16  C   UNL     1       5.947   7.526  17.433  0.00  0.00    +0.000 C 
BRANCH  16  17
ATOM     17  C   UNL     1       7.471   7.449  17.289  0.00  0.00    +0.000 C 
BRANCH  17  18
ATOM     18  C   UNL     1       8.192   8.168  18.428  0.00  0.00    +0.000 C 
BRANCH  18  19
ATOM     19  N   UNL     1       8.702   9.456  18.001  0.00  0.00    +0.000 N 
ATOM     20  C   UNL     1       9.209  10.361  18.911  0.00  0.00    +0.000 C 
ATOM     21  O   UNL     1       9.261  10.147  20.119  0.00  0.00    +0.000 OA
ATOM     22  H   UNL     1       8.864   9.601  17.013  0.00  0.00    +0.000 HD
BRANCH  20  23
ATOM     23  C   UNL     1       9.736  11.649  18.369  0.00  0.00    +0.000 A 
ATOM     24  C   UNL     1      10.942  11.724  17.654  0.00  0.00    +0.000 A 
ATOM     25  C   UNL     1      11.379  12.952  17.145  0.00  0.00    +0.000 A 
ATOM     26  C   UNL     1      10.611  14.100  17.341  0.00  0.00    +0.000 A 
ATOM     27 CL   UNL     1      11.149  15.607  16.710  0.00  0.00    +0.000 Cl
ATOM     28  C   UNL     1       9.406  14.032  18.038  0.00  0.00    +0.000 A 
ATOM     29  C   UNL     1       8.966  12.807  18.546  0.00  0.00    +0.000 A 
ENDBRANCH  20  23
ENDBRANCH  18  19
ENDBRANCH  17  18
ENDBRANCH  16  17
ENDBRANCH   1  16
TORSDOF 9
ENDMDL
MODEL 9
REMARK VINA RESULT:      -6.9      6.077      7.551
REMARK  Name = 
REMARK  9 active torsions:
REMARK  status: ('A' for Active; 'I' for Inactive)
REMARK    1  A    between atoms: N_1  and  C_2
REMARK    2  A    between atoms: C_7  and  N_8
REMARK    3  A    between atoms: C_9  and  C_11
REMARK    4  A    between atoms: C_11  and  C_12
REMARK    5  A    between atoms: C_12  and  C_13
REMARK    6  A    between atoms: C_13  and  C_14
REMARK    7  A    between atoms: C_14  and  C_15
REMARK    8  A    between atoms: C_15  and  N_16
REMARK    9  A    between atoms: C_17  and  C_19
REMARK                            x       y       z     vdW  Elec       q    Type
REMARK                         _______ _______ _______ _____ _____    ______ ____
ROOT
ATOM      1  C   UNL     1       7.392   6.774  17.513  0.00  0.00    +0.000 C 
ENDROOT
BRANCH   1   2
ATOM      2  C   UNL     1       7.463   5.326  17.998  0.00  0.00    +0.000 C 
BRANCH   2   4
ATOM      3  N   UNL     1       5.416   4.004  17.882  0.00  0.00    +0.000 N 
ATOM      4  C   UNL     1       6.134   4.933  18.619  0.00  0.00    +0.000 C 
ATOM      5  O   UNL     1       5.777   5.469  19.664  0.00  0.00    +0.000 OA
ATOM      6  H   UNL     1       5.919   3.475  17.185  0.00  0.00    +0.000 HD
BRANCH   3  12
ATOM      7  C   UNL     1       3.851   2.484  19.013  0.00  0.00    +0.000 A 
ATOM      8  C   UNL     1       2.522   2.141  19.326  0.00  0.00    +0.000 A 
ATOM      9  C   UNL     1       1.442   2.784  18.719  0.00  0.00    +0.000 A 
ATOM     10  C   UNL     1       1.677   3.807  17.813  0.00  0.00    +0.000 A 
ATOM     11  C   UNL     1       2.987   4.199  17.531  0.00  0.00    +0.000 A 
ATOM     12  C   UNL     1       4.085   3.576  18.143  0.00  0.00    +0.000 A 
BRANCH   7  13
ATOM     13  N   UNL     1       4.877   1.878  19.771  0.00  0.00    +0.000 N 
ATOM     14  H   UNL     1       5.802   2.213  19.513  0.00  0.00    +0.000 HD
ATOM     15  H   UNL     1       4.747   1.903  20.771  0.00  0.00    +0.000 HD
ENDBRANCH   7  13
ENDBRANCH   3  12
ENDBRANCH   2   4
ENDBRANCH   1   2
BRANCH   1  16
ATOM     16  C   UNL     1       8.241   7.724  18.362  0.00  0.00    +0.000 C 
BRANCH  16  17
ATOM     17  C   UNL     1       8.049   9.174  17.905  0.00  0.00    +0.000 C 
BRANCH  17  18
ATOM     18  C   UNL     1       9.213  10.068  18.329  0.00  0.00    +0.000 C 
BRANCH  18  19
ATOM     19  N   UNL     1       8.881  10.845  19.508  0.00  0.00    +0.000 N 
ATOM     20  C   UNL     1       9.852  11.530  20.209  0.00  0.00    +0.000 C 
ATOM     21  O   UNL     1      11.039  11.530  19.894  0.00  0.00    +0.000 OA
ATOM     22  H   UNL     1       7.906  11.038  19.692  0.00  0.00    +0.000 HD
BRANCH  20  23
ATOM     23  C   UNL     1       9.404  12.324  21.392  0.00  0.00    +0.000 A 
ATOM     24  C   UNL     1       9.742  13.676  21.559  0.00  0.00    +0.000 A 
ATOM     25  C   UNL     1       9.275  14.381  22.674  0.00  0.00    +0.000 A 
ATOM     26  C   UNL     1       8.467  13.742  23.614  0.00  0.00    +0.000 A 
ATOM     27 CL   UNL     1       7.891  14.614  24.981  0.00  0.00    +0.000 Cl
ATOM     28  C   UNL     1       8.116  12.403  23.449  0.00  0.00    +0.000 A 
ATOM     29  C   UNL     1       8.579  11.697  22.336  0.00  0.00    +0.000 A 
ENDBRANCH  20  23
ENDBRANCH  18  19
ENDBRANCH  17  18
ENDBRANCH  16  17
ENDBRANCH   1  16
TORSDOF 9
ENDMDL
