MODEL 1
REMARK VINA RESULT:      -4.3      0.000      0.000
REMARK  Name = 
REMARK  1 active torsions:
REMARK  status: ('A' for Active; 'I' for Inactive)
REMARK    1  A    between atoms: C_1  and  N_2
REMARK                            x       y       z     vdW  Elec       q    Type
REMARK                         _______ _______ _______ _____ _____    ______ ____
ROOT
ATOM      1  C   UNL     1       5.680   4.693  18.646  0.00  0.00    +0.000 C 
ATOM      2  N   UNL     1       4.332   4.159  18.535  0.00  0.00    +0.000 N 
ATOM      3  C   UNL     1       3.345   4.942  17.862  0.00  0.00    +0.000 C 
ATOM      4  C   UNL     1       2.040   4.652  17.842  0.00  0.00    +0.000 C 
ATOM      5  C   UNL     1       1.394   3.468  18.494  0.00  0.00    +0.000 C 
ATOM      6  S   UNL     1       2.477   2.039  18.804  0.00  0.00    +0.000 S 
ATOM      7  C   UNL     1       4.033   2.885  19.108  0.00  0.00    +0.000 C 
ATOM      8  N   UNL     1       4.931   2.266  19.792  0.00  0.00    +0.000 NA
ATOM      9  H   UNL     1       4.758   1.328  20.183  0.00  0.00    +0.000 HD
ENDROOT
TORSDOF 0
ENDMDL
MODEL 2
REMARK VINA RESULT:      -4.3      1.733      2.380
REMARK  Name = 
REMARK  1 active torsions:
REMARK  status: ('A' for Active; 'I' for Inactive)
REMARK    1  A    between atoms: C_1  and  N_2
REMARK                            x       y       z     vdW  Elec       q    Type
REMARK                         _______ _______ _______ _____ _____    ______ ____
ROOT
ATOM      1  C   UNL     1       3.638   1.381  18.418  0.00  0.00    +0.000 C 
ATOM      2  N   UNL     1       3.301   2.794  18.473  0.00  0.00    +0.000 N 
ATOM      3  C   UNL     1       2.025   3.209  17.981  0.00  0.00    +0.000 C 
ATOM      4  C   UNL     1       1.661   4.484  17.812  0.00  0.00    +0.000 C 
ATOM      5  C   UNL     1       2.503   5.684  18.119  0.00  0.00    +0.000 C 
ATOM      6  S   UNL     1       3.832   5.437  19.337  0.00  0.00    +0.000 S 
ATOM      7  C   UNL     1       4.252   3.722  18.999  0.00  0.00    +0.000 C 
ATOM      8  N   UNL     1       5.426   3.313  19.334  0.00  0.00    +0.000 NA
ATOM      9  H   UNL     1       6.118   3.950  19.754  0.00  0.00    +0.000 HD
ENDROOT
TORSDOF 0
ENDMDL
MODEL 3
REMARK VINA RESULT:      -4.2      1.113      1.222
REMARK  Name = 
REMARK  1 active torsions:
REMARK  status: ('A' for Active; 'I' for Inactive)
REMARK    1  A    between atoms: C_1  and  N_2
REMARK                            x       y       z     vdW  Elec       q    Type
REMARK                         _______ _______ _______ _____ _____    ______ ____
ROOT
ATOM      1  C   UNL     1       4.451   5.910  18.122  0.00  0.00    +0.000 C 
ATOM      2  N   UNL     1       3.650   4.698  18.189  0.00  0.00    +0.000 N 
ATOM      3  C   UNL     1       2.259   4.785  17.875  0.00  0.00    +0.000 C 
ATOM      4  C   UNL     1       1.382   3.794  18.064  0.00  0.00    +0.000 C 
ATOM      5  C   UNL     1       1.698   2.435  18.611  0.00  0.00    +0.000 C 
ATOM      6  S   UNL     1       3.425   1.888  18.442  0.00  0.00    +0.000 S 
ATOM      7  C   UNL     1       4.269   3.469  18.575  0.00  0.00    +0.000 C 
ATOM      8  N   UNL     1       5.501   3.464  18.946  0.00  0.00    +0.000 NA
ATOM      9  H   UNL     1       5.985   2.588  19.192  0.00  0.00    +0.000 HD
ENDROOT
TORSDOF 0
ENDMDL
MODEL 4
REMARK VINA RESULT:      -4.2      1.756      2.432
REMARK  Name = 
REMARK  1 active torsions:
REMARK  status: ('A' for Active; 'I' for Inactive)
REMARK    1  A    between atoms: C_1  and  N_2
REMARK                            x       y       z     vdW  Elec       q    Type
REMARK                         _______ _______ _______ _____ _____    ______ ____
ROOT
ATOM      1  C   UNL     1       2.563   2.620  21.536  0.00  0.00    +0.000 C 
ATOM      2  N   UNL     1       2.684   3.006  20.140  0.00  0.00    +0.000 N 
ATOM      3  C   UNL     1       1.545   3.576  19.492  0.00  0.00    +0.000 C 
ATOM      4  C   UNL     1       1.466   3.811  18.178  0.00  0.00    +0.000 C 
ATOM      5  C   UNL     1       2.542   3.540  17.172  0.00  0.00    +0.000 C 
ATOM      6  S   UNL     1       4.241   3.465  17.821  0.00  0.00    +0.000 S 
ATOM      7  C   UNL     1       3.922   2.794  19.458  0.00  0.00    +0.000 C 
ATOM      8  N   UNL     1       4.884   2.184  20.056  0.00  0.00    +0.000 NA
ATOM      9  H   UNL     1       5.801   2.052  19.604  0.00  0.00    +0.000 HD
ENDROOT
TORSDOF 0
ENDMDL
MODEL 5
REMARK VINA RESULT:      -4.1      1.349      1.497
REMARK  Name = 
REMARK  1 active torsions:
REMARK  status: ('A' for Active; 'I' for Inactive)
REMARK    1  A    between atoms: C_1  and  N_2
REMARK                            x       y       z     vdW  Elec       q    Type
REMARK                         _______ _______ _______ _____ _____    ______ ____
ROOT
ATOM      1  C   UNL     1       4.754   3.988  16.647  0.00  0.00    +0.000 C 
ATOM      2  N   UNL     1       3.789   3.694  17.694  0.00  0.00    +0.000 N 
ATOM      3  C   UNL     1       2.399   3.732  17.366  0.00  0.00    +0.000 C 
ATOM      4  C   UNL     1       1.412   3.655  18.265  0.00  0.00    +0.000 C 
ATOM      5  C   UNL     1       1.583   3.501  19.745  0.00  0.00    +0.000 C 
ATOM      6  S   UNL     1       3.158   2.774  20.295  0.00  0.00    +0.000 S 
ATOM      7  C   UNL     1       4.254   3.391  19.011  0.00  0.00    +0.000 C 
ATOM      8  N   UNL     1       5.510   3.470  19.279  0.00  0.00    +0.000 NA
ATOM      9  H   UNL     1       5.879   3.219  20.208  0.00  0.00    +0.000 HD
ENDROOT
TORSDOF 0
ENDMDL
MODEL 6
REMARK VINA RESULT:      -4.1      1.810      2.647
REMARK  Name = 
REMARK  1 active torsions:
REMARK  status: ('A' for Active; 'I' for Inactive)
REMARK    1  A    between atoms: C_1  and  N_2
REMARK                            x       y       z     vdW  Elec       q    Type
REMARK                         _______ _______ _______ _____ _____    ______ ____
ROOT
ATOM      1  C   UNL     1       2.081   2.139  19.312  0.00  0.00    +0.000 C 
ATOM      2  N   UNL     1       2.801   3.364  19.004  0.00  0.00    +0.000 N 
ATOM      3  C   UNL     1       2.066   4.472  18.483  0.00  0.00    +0.000 C 
ATOM      4  C   UNL     1       2.625   5.586  17.998  0.00  0.00    +0.000 C 
ATOM      5  C   UNL     1       4.094   5.872  17.933  0.00  0.00    +0.000 C 
ATOM      6  S   UNL     1       5.139   4.955  19.105  0.00  0.00    +0.000 S 
ATOM      7  C   UNL     1       4.213   3.419  19.217  0.00  0.00    +0.000 C 
ATOM      8  N   UNL     1       4.845   2.362  19.591  0.00  0.00    +0.000 NA
ATOM      9  H   UNL     1       5.855   2.381  19.791  0.00  0.00    +0.000 HD
ENDROOT
TORSDOF 0
ENDMDL
MODEL 7
REMARK VINA RESULT:      -4.1      1.857      2.512
REMARK  Name = 
REMARK  1 active torsions:
REMARK  status: ('A' for Active; 'I' for Inactive)
REMARK    1  A    between atoms: C_1  and  N_2
REMARK                            x       y       z     vdW  Elec       q    Type
REMARK                         _______ _______ _______ _____ _____    ______ ____
ROOT
ATOM      1  C   UNL     1       2.559   2.759  21.211  0.00  0.00    +0.000 C 
ATOM      2  N   UNL     1       3.041   3.531  20.077  0.00  0.00    +0.000 N 
ATOM      3  C   UNL     1       2.215   4.581  19.570  0.00  0.00    +0.000 C 
ATOM      4  C   UNL     1       2.456   5.246  18.435  0.00  0.00    +0.000 C 
ATOM      5  C   UNL     1       3.621   5.026  17.520  0.00  0.00    +0.000 C 
ATOM      6  S   UNL     1       5.092   4.262  18.270  0.00  0.00    +0.000 S 
ATOM      7  C   UNL     1       4.309   3.212  19.499  0.00  0.00    +0.000 C 
ATOM      8  N   UNL     1       4.967   2.192  19.927  0.00  0.00    +0.000 NA
ATOM      9  H   UNL     1       5.901   1.961  19.558  0.00  0.00    +0.000 HD
ENDROOT
TORSDOF 0
ENDMDL
MODEL 8
REMARK VINA RESULT:      -4.1      1.616      1.668
REMARK  Name = 
REMARK  1 active torsions:
REMARK  status: ('A' for Active; 'I' for Inactive)
REMARK    1  A    between atoms: C_1  and  N_2
REMARK                            x       y       z     vdW  Elec       q    Type
REMARK                         _______ _______ _______ _____ _____    ______ ____
ROOT
ATOM      1  C   UNL     1       5.132   4.206  18.989  0.00  0.00    +0.000 C 
ATOM      2  N   UNL     1       3.730   3.934  19.266  0.00  0.00    +0.000 N 
ATOM      3  C   UNL     1       2.975   4.916  19.977  0.00  0.00    +0.000 C 
ATOM      4  C   UNL     1       1.738   4.721  20.446  0.00  0.00    +0.000 C 
ATOM      5  C   UNL     1       0.932   3.468  20.297  0.00  0.00    +0.000 C 
ATOM      6  S   UNL     1       1.389   2.384  18.908  0.00  0.00    +0.000 S 
ATOM      7  C   UNL     1       3.157   2.697  18.835  0.00  0.00    +0.000 C 
ATOM      8  N   UNL     1       3.905   1.803  18.289  0.00  0.00    +0.000 NA
ATOM      9  H   UNL     1       3.513   0.919  17.932  0.00  0.00    +0.000 HD
ENDROOT
TORSDOF 0
ENDMDL
MODEL 9
REMARK VINA RESULT:      -4.0      1.662      2.101
REMARK  Name = 
REMARK  1 active torsions:
REMARK  status: ('A' for Active; 'I' for Inactive)
REMARK    1  A    between atoms: C_1  and  N_2
REMARK                            x       y       z     vdW  Elec       q    Type
REMARK                         _______ _______ _______ _____ _____    ______ ____
ROOT
ATOM      1  C   UNL     1       3.663   3.429  17.222  0.00  0.00    +0.000 C 
ATOM      2  N   UNL     1       2.984   3.298  18.501  0.00  0.00    +0.000 N 
ATOM      3  C   UNL     1       1.578   3.546  18.553  0.00  0.00    +0.000 C 
ATOM      4  C   UNL     1       0.870   3.631  19.684  0.00  0.00    +0.000 C 
ATOM      5  C   UNL     1       1.410   3.466  21.071  0.00  0.00    +0.000 C 
ATOM      6  S   UNL     1       2.952   2.512  21.220  0.00  0.00    +0.000 S 
ATOM      7  C   UNL     1       3.738   2.941  19.662  0.00  0.00    +0.000 C 
ATOM      8  N   UNL     1       5.018   2.829  19.582  0.00  0.00    +0.000 NA
ATOM      9  H   UNL     1       5.583   2.534  20.392  0.00  0.00    +0.000 HD
ENDROOT
TORSDOF 0
ENDMDL
