MODEL 1
REMARK VINA RESULT:      -8.9      0.000      0.000
REMARK  Name = 
REMARK  5 active torsions:
REMARK  status: ('A' for Active; 'I' for Inactive)
REMARK    1  A    between atoms: C_2  and  O_3
REMARK    2  A    between atoms: C_2  and  C_4
REMARK    3  A    between atoms: C_9  and  C_10
REMARK    4  A    between atoms: N_20  and  C_21
REMARK    5  A    between atoms: C_26  and  C_27
REMARK                            x       y       z     vdW  Elec       q    Type
REMARK                         _______ _______ _______ _____ _____    ______ ____
ROOT
ATOM      1  C   UNL     1       6.726   4.939  14.447  0.00  0.00    +0.000 A 
ATOM      2  C   UNL     1       6.752   3.640  14.951  0.00  0.00    +0.000 A 
ATOM      3  C   UNL     1       5.931   3.296  16.026  0.00  0.00    +0.000 A 
ATOM      4  C   UNL     1       5.072   4.221  16.595  0.00  0.00    +0.000 A 
ATOM      5  N   UNL     1       4.280   3.839  17.606  0.00  0.00    +0.000 NA
ATOM      6  C   UNL     1       3.444   4.775  18.131  0.00  0.00    +0.000 A 
ATOM      7  C   UNL     1       3.458   6.118  17.668  0.00  0.00    +0.000 A 
ATOM      8  N   UNL     1       2.664   7.095  18.257  0.00  0.00    +0.000 N 
ATOM      9  C   UNL     1       2.292   8.284  17.466  0.00  0.00    +0.000 C 
ATOM     10  C   UNL     1       1.045   8.937  18.130  0.00  0.00    +0.000 C 
ATOM     11  N   UNL     1       1.401   9.265  19.529  0.00  0.00    +0.000 N 
ATOM     12  C   UNL     1       1.736   8.068  20.320  0.00  0.00    +0.000 C 
ATOM     13  C   UNL     1       2.984   7.416  19.670  0.00  0.00    +0.000 C 
ATOM     14  N   UNL     1       4.243   6.478  16.623  0.00  0.00    +0.000 NA
ATOM     15  C   UNL     1       5.042   5.540  16.085  0.00  0.00    +0.000 A 
ATOM     16  C   UNL     1       5.859   5.873  15.012  0.00  0.00    +0.000 A 
ENDROOT
BRANCH   6  17
ATOM     17  C   UNL     1       2.536   4.266  19.198  0.00  0.00    +0.000 A 
ATOM     18  C   UNL     1       1.275   3.729  18.886  0.00  0.00    +0.000 A 
ATOM     19  C   UNL     1       0.476   3.133  19.869  0.00  0.00    +0.000 A 
ATOM     20  C   UNL     1       0.926   3.040  21.183  0.00  0.00    +0.000 A 
ATOM     21  C   UNL     1       2.147   3.599  21.529  0.00  0.00    +0.000 A 
ATOM     22  C   UNL     1       2.914   4.243  20.556  0.00  0.00    +0.000 A 
ENDBRANCH   6  17
BRANCH  11  23
ATOM     23  C   UNL     1       0.845  10.369  20.123  0.00  0.00    +0.000 A 
ATOM     24  N   UNL     1       1.115  11.571  19.553  0.00  0.00    +0.000 NA
ATOM     25  C   UNL     1       0.659  12.702  20.138  0.00  0.00    +0.000 A 
ATOM     26  C   UNL     1      -0.078  12.714  21.298  0.00  0.00    +0.000 A 
ATOM     27  C   UNL     1      -0.354  11.492  21.886  0.00  0.00    +0.000 A 
ATOM     28  C   UNL     1       0.121  10.295  21.315  0.00  0.00    +0.000 A 
BRANCH  28  29
ATOM     29  C   UNL     1      -0.150   9.039  22.093  0.00  0.00    +0.000 C 
ATOM     30  F   UNL     1      -0.780   8.021  21.452  0.00  0.00    +0.000 F 
ATOM     31  F   UNL     1       0.999   8.475  22.573  0.00  0.00    +0.000 F 
ATOM     32  F   UNL     1      -0.913   9.289  23.200  0.00  0.00    +0.000 F 
ENDBRANCH  28  29
ENDBRANCH  11  23
BRANCH   1  34
ATOM     33  O   UNL     1       8.586   5.957  13.377  0.00  0.00    +0.000 OA
ATOM     34  C   UNL     1       7.594   5.257  13.292  0.00  0.00    +0.000 C 
BRANCH  34  35
ATOM     35  O   UNL     1       7.160   4.727  12.122  0.00  0.00    +0.000 OA
ATOM     36  H   UNL     1       7.693   4.944  11.338  0.00  0.00    +0.000 HD
ENDBRANCH  34  35
ENDBRANCH   1  34
TORSDOF 5
ENDMDL
MODEL 2
REMARK VINA RESULT:      -8.8      6.028     11.486
REMARK  Name = 
REMARK  5 active torsions:
REMARK  status: ('A' for Active; 'I' for Inactive)
REMARK    1  A    between atoms: C_2  and  O_3
REMARK    2  A    between atoms: C_2  and  C_4
REMARK    3  A    between atoms: C_9  and  C_10
REMARK    4  A    between atoms: N_20  and  C_21
REMARK    5  A    between atoms: C_26  and  C_27
REMARK                            x       y       z     vdW  Elec       q    Type
REMARK                         _______ _______ _______ _____ _____    ______ ____
ROOT
ATOM      1  C   UNL     1      -6.074  13.490  23.486  0.00  0.00    +0.000 A 
ATOM      2  C   UNL     1      -5.759  14.827  23.717  0.00  0.00    +0.000 A 
ATOM      3  C   UNL     1      -4.566  15.355  23.222  0.00  0.00    +0.000 A 
ATOM      4  C   UNL     1      -3.689  14.576  22.487  0.00  0.00    +0.000 A 
ATOM      5  N   UNL     1      -2.569  15.132  22.005  0.00  0.00    +0.000 NA
ATOM      6  C   UNL     1      -1.739  14.335  21.280  0.00  0.00    +0.000 A 
ATOM      7  C   UNL     1      -2.018  12.954  21.095  0.00  0.00    +0.000 A 
ATOM      8  N   UNL     1      -1.132  12.119  20.425  0.00  0.00    +0.000 N 
ATOM      9  C   UNL     1      -1.649  10.891  19.793  0.00  0.00    +0.000 C 
ATOM     10  C   UNL     1      -0.620  10.425  18.723  0.00  0.00    +0.000 C 
ATOM     11  N   UNL     1       0.676  10.218  19.408  0.00  0.00    +0.000 N 
ATOM     12  C   UNL     1       1.203  11.457  20.005  0.00  0.00    +0.000 C 
ATOM     13  C   UNL     1       0.186  11.923  21.079  0.00  0.00    +0.000 C 
ATOM     14  N   UNL     1      -3.172  12.417  21.562  0.00  0.00    +0.000 NA
ATOM     15  C   UNL     1      -4.005  13.218  22.249  0.00  0.00    +0.000 A 
ATOM     16  C   UNL     1      -5.198  12.701  22.741  0.00  0.00    +0.000 A 
ENDROOT
BRANCH   6  17
ATOM     17  C   UNL     1      -0.551  15.033  20.709  0.00  0.00    +0.000 A 
ATOM     18  C   UNL     1      -0.417  15.225  19.323  0.00  0.00    +0.000 A 
ATOM     19  C   UNL     1       0.628  15.991  18.794  0.00  0.00    +0.000 A 
ATOM     20  C   UNL     1       1.552  16.602  19.639  0.00  0.00    +0.000 A 
ATOM     21  C   UNL     1       1.470  16.395  21.007  0.00  0.00    +0.000 A 
ATOM     22  C   UNL     1       0.459  15.582  21.524  0.00  0.00    +0.000 A 
ENDBRANCH   6  17
BRANCH  11  23
ATOM     23  C   UNL     1       1.524   9.236  18.961  0.00  0.00    +0.000 A 
ATOM     24  N   UNL     1       2.000   9.369  17.697  0.00  0.00    +0.000 NA
ATOM     25  C   UNL     1       2.778   8.394  17.174  0.00  0.00    +0.000 A 
ATOM     26  C   UNL     1       3.127   7.252  17.854  0.00  0.00    +0.000 A 
ATOM     27  C   UNL     1       2.642   7.109  19.142  0.00  0.00    +0.000 A 
ATOM     28  C   UNL     1       1.814   8.095  19.713  0.00  0.00    +0.000 A 
BRANCH  28  29
ATOM     29  C   UNL     1       1.263   7.787  21.076  0.00  0.00    +0.000 C 
ATOM     30  F   UNL     1       1.446   6.532  21.564  0.00  0.00    +0.000 F 
ATOM     31  F   UNL     1       1.791   8.601  22.039  0.00  0.00    +0.000 F 
ATOM     32  F   UNL     1      -0.086   7.998  21.132  0.00  0.00    +0.000 F 
ENDBRANCH  28  29
ENDBRANCH  11  23
BRANCH   1  34
ATOM     33  O   UNL     1      -7.885  11.957  23.594  0.00  0.00    +0.000 OA
ATOM     34  C   UNL     1      -7.359  12.974  24.007  0.00  0.00    +0.000 C 
BRANCH  34  35
ATOM     35  O   UNL     1      -7.916  13.762  24.959  0.00  0.00    +0.000 OA
ATOM     36  H   UNL     1      -7.676  13.547  25.877  0.00  0.00    +0.000 HD
ENDBRANCH  34  35
ENDBRANCH   1  34
TORSDOF 5
ENDMDL
MODEL 3
REMARK VINA RESULT:      -8.6      1.823      2.222
REMARK  Name = 
REMARK  5 active torsions:
REMARK  status: ('A' for Active; 'I' for Inactive)
REMARK    1  A    between atoms: C_2  and  O_3
REMARK    2  A    between atoms: C_2  and  C_4
REMARK    3  A    between atoms: C_9  and  C_10
REMARK    4  A    between atoms: N_20  and  C_21
REMARK    5  A    between atoms: C_26  and  C_27
REMARK                            x       y       z     vdW  Elec       q    Type
REMARK                         _______ _______ _______ _____ _____    ______ ____
ROOT
ATOM      1  C   UNL     1       6.667   4.962  14.437  0.00  0.00    +0.000 A 
ATOM      2  C   UNL     1       6.701   3.647  14.897  0.00  0.00    +0.000 A 
ATOM      3  C   UNL     1       5.891   3.266  15.968  0.00  0.00    +0.000 A 
ATOM      4  C   UNL     1       5.037   4.169  16.576  0.00  0.00    +0.000 A 
ATOM      5  N   UNL     1       4.255   3.752  17.582  0.00  0.00    +0.000 NA
ATOM      6  C   UNL     1       3.423   4.668  18.147  0.00  0.00    +0.000 A 
ATOM      7  C   UNL     1       3.430   6.026  17.729  0.00  0.00    +0.000 A 
ATOM      8  N   UNL     1       2.641   6.982  18.358  0.00  0.00    +0.000 N 
ATOM      9  C   UNL     1       2.258   8.195  17.612  0.00  0.00    +0.000 C 
ATOM     10  C   UNL     1       1.018   8.823  18.309  0.00  0.00    +0.000 C 
ATOM     11  N   UNL     1       1.387   9.105  19.714  0.00  0.00    +0.000 N 
ATOM     12  C   UNL     1       1.732   7.884  20.462  0.00  0.00    +0.000 C 
ATOM     13  C   UNL     1       2.975   7.256  19.778  0.00  0.00    +0.000 C 
ATOM     14  N   UNL     1       4.204   6.422  16.688  0.00  0.00    +0.000 NA
ATOM     15  C   UNL     1       4.999   5.504  16.111  0.00  0.00    +0.000 A 
ATOM     16  C   UNL     1       5.805   5.875  15.042  0.00  0.00    +0.000 A 
ENDROOT
BRANCH   6  17
ATOM     17  C   UNL     1       2.527   4.122  19.206  0.00  0.00    +0.000 A 
ATOM     18  C   UNL     1       1.272   3.575  18.887  0.00  0.00    +0.000 A 
ATOM     19  C   UNL     1       0.486   2.946  19.859  0.00  0.00    +0.000 A 
ATOM     20  C   UNL     1       0.944   2.828  21.169  0.00  0.00    +0.000 A 
ATOM     21  C   UNL     1       2.159   3.396  21.522  0.00  0.00    +0.000 A 
ATOM     22  C   UNL     1       2.912   4.074  20.561  0.00  0.00    +0.000 A 
ENDBRANCH   6  17
BRANCH  11  23
ATOM     23  C   UNL     1       0.836  10.188  20.350  0.00  0.00    +0.000 A 
ATOM     24  N   UNL     1       0.043   9.930  21.422  0.00  0.00    +0.000 NA
ATOM     25  C   UNL     1      -0.590  10.951  22.042  0.00  0.00    +0.000 A 
ATOM     26  C   UNL     1      -0.480  12.264  21.650  0.00  0.00    +0.000 A 
ATOM     27  C   UNL     1       0.324  12.534  20.557  0.00  0.00    +0.000 A 
ATOM     28  C   UNL     1       0.984  11.493  19.875  0.00  0.00    +0.000 A 
BRANCH  28  29
ATOM     29  C   UNL     1       1.745  11.890  18.642  0.00  0.00    +0.000 C 
ATOM     30  F   UNL     1       2.928  11.268  18.401  0.00  0.00    +0.000 F 
ATOM     31  F   UNL     1       1.019  11.684  17.503  0.00  0.00    +0.000 F 
ATOM     32  F   UNL     1       2.037  13.226  18.640  0.00  0.00    +0.000 F 
ENDBRANCH  28  29
ENDBRANCH  11  23
BRANCH   1  34
ATOM     33  O   UNL     1       7.233   5.054  12.132  0.00  0.00    +0.000 OA
ATOM     34  C   UNL     1       7.523   5.320  13.284  0.00  0.00    +0.000 C 
BRANCH  34  35
ATOM     35  O   UNL     1       8.677   5.938  13.634  0.00  0.00    +0.000 OA
ATOM     36  H   UNL     1       8.581   6.834  13.999  0.00  0.00    +0.000 HD
ENDBRANCH  34  35
ENDBRANCH   1  34
TORSDOF 5
ENDMDL
MODEL 4
REMARK VINA RESULT:      -8.4      1.753      2.233
REMARK  Name = 
REMARK  5 active torsions:
REMARK  status: ('A' for Active; 'I' for Inactive)
REMARK    1  A    between atoms: C_2  and  O_3
REMARK    2  A    between atoms: C_2  and  C_4
REMARK    3  A    between atoms: C_9  and  C_10
REMARK    4  A    between atoms: N_20  and  C_21
REMARK    5  A    between atoms: C_26  and  C_27
REMARK                            x       y       z     vdW  Elec       q    Type
REMARK                         _______ _______ _______ _____ _____    ______ ____
ROOT
ATOM      1  C   UNL     1       6.839   4.964  14.380  0.00  0.00    +0.000 A 
ATOM      2  C   UNL     1       6.896   3.628  14.771  0.00  0.00    +0.000 A 
ATOM      3  C   UNL     1       6.091   3.176  15.818  0.00  0.00    +0.000 A 
ATOM      4  C   UNL     1       5.219   4.030  16.470  0.00  0.00    +0.000 A 
ATOM      5  N   UNL     1       4.443   3.546  17.450  0.00  0.00    +0.000 NA
ATOM      6  C   UNL     1       3.593   4.416  18.059  0.00  0.00    +0.000 A 
ATOM      7  C   UNL     1       3.574   5.793  17.713  0.00  0.00    +0.000 A 
ATOM      8  N   UNL     1       2.766   6.700  18.389  0.00  0.00    +0.000 N 
ATOM      9  C   UNL     1       2.362   7.943  17.705  0.00  0.00    +0.000 C 
ATOM     10  C   UNL     1       1.108   8.510  18.431  0.00  0.00    +0.000 C 
ATOM     11  N   UNL     1       1.469   8.725  19.850  0.00  0.00    +0.000 N 
ATOM     12  C   UNL     1       1.836   7.473  20.534  0.00  0.00    +0.000 C 
ATOM     13  C   UNL     1       3.091   6.906  19.822  0.00  0.00    +0.000 C 
ATOM     14  N   UNL     1       4.343   6.258  16.697  0.00  0.00    +0.000 NA
ATOM     15  C   UNL     1       5.157   5.387  16.076  0.00  0.00    +0.000 A 
ATOM     16  C   UNL     1       5.958   5.828  15.029  0.00  0.00    +0.000 A 
ENDROOT
BRANCH   6  17
ATOM     17  C   UNL     1       2.705   3.798  19.085  0.00  0.00    +0.000 A 
ATOM     18  C   UNL     1       3.216   3.349  20.316  0.00  0.00    +0.000 A 
ATOM     19  C   UNL     1       2.368   2.890  21.330  0.00  0.00    +0.000 A 
ATOM     20  C   UNL     1       0.987   2.888  21.148  0.00  0.00    +0.000 A 
ATOM     21  C   UNL     1       0.457   3.285  19.930  0.00  0.00    +0.000 A 
ATOM     22  C   UNL     1       1.312   3.687  18.901  0.00  0.00    +0.000 A 
ENDBRANCH   6  17
BRANCH  11  23
ATOM     23  C   UNL     1       0.896   9.763  20.540  0.00  0.00    +0.000 A 
ATOM     24  N   UNL     1       0.293   9.456  21.717  0.00  0.00    +0.000 NA
ATOM     25  C   UNL     1      -0.356  10.422  22.404  0.00  0.00    +0.000 A 
ATOM     26  C   UNL     1      -0.447  11.727  21.979  0.00  0.00    +0.000 A 
ATOM     27  C   UNL     1       0.163  12.046  20.780  0.00  0.00    +0.000 A 
ATOM     28  C   UNL     1       0.832  11.061  20.028  0.00  0.00    +0.000 A 
BRANCH  28  29
ATOM     29  C   UNL     1       1.367  11.498  18.693  0.00  0.00    +0.000 C 
ATOM     30  F   UNL     1       2.642  11.152  18.378  0.00  0.00    +0.000 F 
ATOM     31  F   UNL     1       0.621  11.010  17.657  0.00  0.00    +0.000 F 
ATOM     32  F   UNL     1       1.322  12.857  18.555  0.00  0.00    +0.000 F 
ENDBRANCH  28  29
ENDBRANCH  11  23
BRANCH   1  34
ATOM     33  O   UNL     1       8.703   6.057  13.395  0.00  0.00    +0.000 OA
ATOM     34  C   UNL     1       7.690   5.398  13.250  0.00  0.00    +0.000 C 
BRANCH  34  35
ATOM     35  O   UNL     1       7.215   5.027  12.037  0.00  0.00    +0.000 OA
ATOM     36  H   UNL     1       7.857   4.596  11.447  0.00  0.00    +0.000 HD
ENDBRANCH  34  35
ENDBRANCH   1  34
TORSDOF 5
ENDMDL
MODEL 5
REMARK VINA RESULT:      -8.4      7.780     11.408
REMARK  Name = 
REMARK  5 active torsions:
REMARK  status: ('A' for Active; 'I' for Inactive)
REMARK    1  A    between atoms: C_2  and  O_3
REMARK    2  A    between atoms: C_2  and  C_4
REMARK    3  A    between atoms: C_9  and  C_10
REMARK    4  A    between atoms: N_20  and  C_21
REMARK    5  A    between atoms: C_26  and  C_27
REMARK                            x       y       z     vdW  Elec       q    Type
REMARK                         _______ _______ _______ _____ _____    ______ ____
ROOT
ATOM      1  C   UNL     1       0.041  12.514  19.063  0.00  0.00    +0.000 A 
ATOM      2  C   UNL     1      -0.448  13.102  20.228  0.00  0.00    +0.000 A 
ATOM      3  C   UNL     1       0.370  13.952  20.973  0.00  0.00    +0.000 A 
ATOM      4  C   UNL     1       1.662  14.239  20.567  0.00  0.00    +0.000 A 
ATOM      5  N   UNL     1       2.402  15.084  21.297  0.00  0.00    +0.000 NA
ATOM      6  C   UNL     1       3.663  15.347  20.860  0.00  0.00    +0.000 A 
ATOM      7  C   UNL     1       4.194  14.702  19.711  0.00  0.00    +0.000 A 
ATOM      8  N   UNL     1       5.508  14.906  19.308  0.00  0.00    +0.000 N 
ATOM      9  C   UNL     1       5.863  14.684  17.893  0.00  0.00    +0.000 C 
ATOM     10  C   UNL     1       7.192  15.438  17.602  0.00  0.00    +0.000 C 
ATOM     11  N   UNL     1       8.215  14.923  18.540  0.00  0.00    +0.000 N 
ATOM     12  C   UNL     1       7.870  15.183  19.948  0.00  0.00    +0.000 C 
ATOM     13  C   UNL     1       6.550  14.426  20.249  0.00  0.00    +0.000 C 
ATOM     14  N   UNL     1       3.419  13.875  18.966  0.00  0.00    +0.000 NA
ATOM     15  C   UNL     1       2.162  13.645  19.385  0.00  0.00    +0.000 A 
ATOM     16  C   UNL     1       1.340  12.803  18.646  0.00  0.00    +0.000 A 
ENDROOT
BRANCH   6  17
ATOM     17  C   UNL     1       4.404  16.354  21.672  0.00  0.00    +0.000 A 
ATOM     18  C   UNL     1       4.661  17.644  21.177  0.00  0.00    +0.000 A 
ATOM     19  C   UNL     1       5.240  18.630  21.983  0.00  0.00    +0.000 A 
ATOM     20  C   UNL     1       5.557  18.358  23.312  0.00  0.00    +0.000 A 
ATOM     21  C   UNL     1       5.355  17.082  23.816  0.00  0.00    +0.000 A 
ATOM     22  C   UNL     1       4.830  16.086  22.989  0.00  0.00    +0.000 A 
ENDBRANCH   6  17
BRANCH  11  23
ATOM     23  C   UNL     1       9.525  14.858  18.137  0.00  0.00    +0.000 A 
ATOM     24  N   UNL     1      10.166  16.039  17.945  0.00  0.00    +0.000 NA
ATOM     25  C   UNL     1      11.433  16.039  17.474  0.00  0.00    +0.000 A 
ATOM     26  C   UNL     1      12.131  14.895  17.170  0.00  0.00    +0.000 A 
ATOM     27  C   UNL     1      11.483  13.687  17.359  0.00  0.00    +0.000 A 
ATOM     28  C   UNL     1      10.156  13.649  17.831  0.00  0.00    +0.000 A 
BRANCH  28  29
ATOM     29  C   UNL     1       9.518  12.291  17.900  0.00  0.00    +0.000 C 
ATOM     30  F   UNL     1       8.335  12.114  17.256  0.00  0.00    +0.000 F 
ATOM     31  F   UNL     1      10.328  11.317  17.387  0.00  0.00    +0.000 F 
ATOM     32  F   UNL     1       9.281  11.912  19.192  0.00  0.00    +0.000 F 
ENDBRANCH  28  29
ENDBRANCH  11  23
BRANCH   1  34
ATOM     33  O   UNL     1      -0.960  10.440  18.483  0.00  0.00    +0.000 OA
ATOM     34  C   UNL     1      -0.865  11.637  18.289  0.00  0.00    +0.000 C 
BRANCH  34  35
ATOM     35  O   UNL     1      -1.552  12.287  17.317  0.00  0.00    +0.000 OA
ATOM     36  H   UNL     1      -1.826  11.742  16.559  0.00  0.00    +0.000 HD
ENDBRANCH  34  35
ENDBRANCH   1  34
TORSDOF 5
ENDMDL
MODEL 6
REMARK VINA RESULT:      -8.3      6.143     11.771
REMARK  Name = 
REMARK  5 active torsions:
REMARK  status: ('A' for Active; 'I' for Inactive)
REMARK    1  A    between atoms: C_2  and  O_3
REMARK    2  A    between atoms: C_2  and  C_4
REMARK    3  A    between atoms: C_9  and  C_10
REMARK    4  A    between atoms: N_20  and  C_21
REMARK    5  A    between atoms: C_26  and  C_27
REMARK                            x       y       z     vdW  Elec       q    Type
REMARK                         _______ _______ _______ _____ _____    ______ ____
ROOT
ATOM      1  C   UNL     1      -5.603  15.123  23.287  0.00  0.00    +0.000 A 
ATOM      2  C   UNL     1      -5.119  16.422  23.431  0.00  0.00    +0.000 A 
ATOM      3  C   UNL     1      -3.865  16.756  22.917  0.00  0.00    +0.000 A 
ATOM      4  C   UNL     1      -3.094  15.823  22.246  0.00  0.00    +0.000 A 
ATOM      5  N   UNL     1      -1.910  16.195  21.743  0.00  0.00    +0.000 NA
ATOM      6  C   UNL     1      -1.187  15.251  21.083  0.00  0.00    +0.000 A 
ATOM      7  C   UNL     1      -1.642  13.908  20.988  0.00  0.00    +0.000 A 
ATOM      8  N   UNL     1      -0.868  12.922  20.386  0.00  0.00    +0.000 N 
ATOM      9  C   UNL     1      -1.538  11.731  19.831  0.00  0.00    +0.000 C 
ATOM     10  C   UNL     1      -0.574  11.064  18.808  0.00  0.00    +0.000 C 
ATOM     11  N   UNL     1       0.682  10.739  19.521  0.00  0.00    +0.000 N 
ATOM     12  C   UNL     1       1.362  11.938  20.040  0.00  0.00    +0.000 C 
ATOM     13  C   UNL     1       0.410  12.603  21.068  0.00  0.00    +0.000 C 
ATOM     14  N   UNL     1      -2.857  13.557  21.475  0.00  0.00    +0.000 NA
ATOM     15  C   UNL     1      -3.582  14.504  22.097  0.00  0.00    +0.000 A 
ATOM     16  C   UNL     1      -4.834  14.179  22.608  0.00  0.00    +0.000 A 
ENDROOT
BRANCH   6  17
ATOM     17  C   UNL     1       0.083  15.749  20.481  0.00  0.00    +0.000 A 
ATOM     18  C   UNL     1       1.214  16.005  21.276  0.00  0.00    +0.000 A 
ATOM     19  C   UNL     1       2.443  16.348  20.700  0.00  0.00    +0.000 A 
ATOM     20  C   UNL     1       2.578  16.422  19.316  0.00  0.00    +0.000 A 
ATOM     21  C   UNL     1       1.469  16.216  18.509  0.00  0.00    +0.000 A 
ATOM     22  C   UNL     1       0.232  15.932  19.092  0.00  0.00    +0.000 A 
ENDBRANCH   6  17
BRANCH  11  23
ATOM     23  C   UNL     1       1.397   9.628  19.151  0.00  0.00    +0.000 A 
ATOM     24  N   UNL     1       1.917   9.625  17.898  0.00  0.00    +0.000 NA
ATOM     25  C   UNL     1       2.565   8.527  17.449  0.00  0.00    +0.000 A 
ATOM     26  C   UNL     1       2.737   7.387  18.198  0.00  0.00    +0.000 A 
ATOM     27  C   UNL     1       2.208   7.382  19.476  0.00  0.00    +0.000 A 
ATOM     28  C   UNL     1       1.509   8.501  19.969  0.00  0.00    +0.000 A 
BRANCH  28  29
ATOM     29  C   UNL     1       0.889   8.346  21.329  0.00  0.00    +0.000 C 
ATOM     30  F   UNL     1       1.398   9.089  22.346  0.00  0.00    +0.000 F 
ATOM     31  F   UNL     1      -0.443   8.653  21.322  0.00  0.00    +0.000 F 
ATOM     32  F   UNL     1       0.953   7.052  21.766  0.00  0.00    +0.000 F 
ENDBRANCH  28  29
ENDBRANCH  11  23
BRANCH   1  34
ATOM     33  O   UNL     1      -7.916  15.526  23.641  0.00  0.00    +0.000 OA
ATOM     34  C   UNL     1      -6.946  14.815  23.825  0.00  0.00    +0.000 C 
BRANCH  34  35
ATOM     35  O   UNL     1      -6.986  13.686  24.575  0.00  0.00    +0.000 OA
ATOM     36  H   UNL     1      -6.133  13.390  24.936  0.00  0.00    +0.000 HD
ENDBRANCH  34  35
ENDBRANCH   1  34
TORSDOF 5
ENDMDL
MODEL 7
REMARK VINA RESULT:      -8.2      0.270      1.045
REMARK  Name = 
REMARK  5 active torsions:
REMARK  status: ('A' for Active; 'I' for Inactive)
REMARK    1  A    between atoms: C_2  and  O_3
REMARK    2  A    between atoms: C_2  and  C_4
REMARK    3  A    between atoms: C_9  and  C_10
REMARK    4  A    between atoms: N_20  and  C_21
REMARK    5  A    between atoms: C_26  and  C_27
REMARK                            x       y       z     vdW  Elec       q    Type
REMARK                         _______ _______ _______ _____ _____    ______ ____
ROOT
ATOM      1  C   UNL     1       6.955   5.087  14.319  0.00  0.00    +0.000 A 
ATOM      2  C   UNL     1       6.988   3.771  14.775  0.00  0.00    +0.000 A 
ATOM      3  C   UNL     1       6.150   3.377  15.819  0.00  0.00    +0.000 A 
ATOM      4  C   UNL     1       5.268   4.269  16.404  0.00  0.00    +0.000 A 
ATOM      5  N   UNL     1       4.461   3.840  17.384  0.00  0.00    +0.000 NA
ATOM      6  C   UNL     1       3.602   4.745  17.926  0.00  0.00    +0.000 A 
ATOM      7  C   UNL     1       3.607   6.105  17.514  0.00  0.00    +0.000 A 
ATOM      8  N   UNL     1       2.789   7.049  18.123  0.00  0.00    +0.000 N 
ATOM      9  C   UNL     1       2.417   8.262  17.369  0.00  0.00    +0.000 C 
ATOM     10  C   UNL     1       1.149   8.874  18.030  0.00  0.00    +0.000 C 
ATOM     11  N   UNL     1       1.473   9.154  19.447  0.00  0.00    +0.000 N 
ATOM     12  C   UNL     1       1.807   7.933  20.200  0.00  0.00    +0.000 C 
ATOM     13  C   UNL     1       3.077   7.321  19.553  0.00  0.00    +0.000 C 
ATOM     14  N   UNL     1       4.408   6.513  16.499  0.00  0.00    +0.000 NA
ATOM     15  C   UNL     1       5.231   5.606  15.943  0.00  0.00    +0.000 A 
ATOM     16  C   UNL     1       6.065   5.989  14.900  0.00  0.00    +0.000 A 
ENDROOT
BRANCH   6  17
ATOM     17  C   UNL     1       2.680   4.186  18.955  0.00  0.00    +0.000 A 
ATOM     18  C   UNL     1       3.009   4.214  20.321  0.00  0.00    +0.000 A 
ATOM     19  C   UNL     1       2.092   3.809  21.298  0.00  0.00    +0.000 A 
ATOM     20  C   UNL     1       0.816   3.387  20.936  0.00  0.00    +0.000 A 
ATOM     21  C   UNL     1       0.477   3.308  19.593  0.00  0.00    +0.000 A 
ATOM     22  C   UNL     1       1.416   3.658  18.621  0.00  0.00    +0.000 A 
ENDBRANCH   6  17
BRANCH  11  23
ATOM     23  C   UNL     1       0.891  10.229  20.070  0.00  0.00    +0.000 A 
ATOM     24  N   UNL     1       1.083  11.445  19.499  0.00  0.00    +0.000 NA
ATOM     25  C   UNL     1       0.599  12.550  20.109  0.00  0.00    +0.000 A 
ATOM     26  C   UNL     1      -0.092  12.522  21.298  0.00  0.00    +0.000 A 
ATOM     27  C   UNL     1      -0.289  11.286  21.887  0.00  0.00    +0.000 A 
ATOM     28  C   UNL     1       0.217  10.115  21.290  0.00  0.00    +0.000 A 
BRANCH  28  29
ATOM     29  C   UNL     1       0.034   8.843  22.069  0.00  0.00    +0.000 C 
ATOM     30  F   UNL     1       1.147   8.137  22.398  0.00  0.00    +0.000 F 
ATOM     31  F   UNL     1      -0.592   9.060  23.264  0.00  0.00    +0.000 F 
ATOM     32  F   UNL     1      -0.766   7.958  21.403  0.00  0.00    +0.000 F 
ENDBRANCH  28  29
ENDBRANCH  11  23
BRANCH   1  34
ATOM     33  O   UNL     1       8.853   6.121  13.335  0.00  0.00    +0.000 OA
ATOM     34  C   UNL     1       7.842   5.459  13.194  0.00  0.00    +0.000 C 
BRANCH  34  35
ATOM     35  O   UNL     1       7.401   5.027  11.987  0.00  0.00    +0.000 OA
ATOM     36  H   UNL     1       8.080   4.649  11.402  0.00  0.00    +0.000 HD
ENDBRANCH  34  35
ENDBRANCH   1  34
TORSDOF 5
ENDMDL
MODEL 8
REMARK VINA RESULT:      -8.2      9.834     13.065
REMARK  Name = 
REMARK  5 active torsions:
REMARK  status: ('A' for Active; 'I' for Inactive)
REMARK    1  A    between atoms: C_2  and  O_3
REMARK    2  A    between atoms: C_2  and  C_4
REMARK    3  A    between atoms: C_9  and  C_10
REMARK    4  A    between atoms: N_20  and  C_21
REMARK    5  A    between atoms: C_26  and  C_27
REMARK                            x       y       z     vdW  Elec       q    Type
REMARK                         _______ _______ _______ _____ _____    ______ ____
ROOT
ATOM      1  C   UNL     1       4.919  10.999  27.060  0.00  0.00    +0.000 A 
ATOM      2  C   UNL     1       5.215  11.776  28.179  0.00  0.00    +0.000 A 
ATOM      3  C   UNL     1       6.029  12.902  28.046  0.00  0.00    +0.000 A 
ATOM      4  C   UNL     1       6.539  13.274  26.815  0.00  0.00    +0.000 A 
ATOM      5  N   UNL     1       7.292  14.380  26.729  0.00  0.00    +0.000 NA
ATOM      6  C   UNL     1       7.767  14.717  25.500  0.00  0.00    +0.000 A 
ATOM      7  C   UNL     1       7.527  13.895  24.366  0.00  0.00    +0.000 A 
ATOM      8  N   UNL     1       8.079  14.193  23.125  0.00  0.00    +0.000 N 
ATOM      9  C   UNL     1       7.417  13.682  21.910  0.00  0.00    +0.000 C 
ATOM     10  C   UNL     1       7.896  14.536  20.701  0.00  0.00    +0.000 C 
ATOM     11  N   UNL     1       9.372  14.437  20.638  0.00  0.00    +0.000 N 
ATOM     12  C   UNL     1      10.025  14.983  21.840  0.00  0.00    +0.000 C 
ATOM     13  C   UNL     1       9.559  14.131  23.049  0.00  0.00    +0.000 C 
ATOM     14  N   UNL     1       6.736  12.799  24.466  0.00  0.00    +0.000 NA
ATOM     15  C   UNL     1       6.241  12.489  25.677  0.00  0.00    +0.000 A 
ATOM     16  C   UNL     1       5.426  11.372  25.816  0.00  0.00    +0.000 A 
ENDROOT
BRANCH   6  17
ATOM     17  C   UNL     1       8.531  15.997  25.459  0.00  0.00    +0.000 A 
ATOM     18  C   UNL     1       8.011  17.135  24.819  0.00  0.00    +0.000 A 
ATOM     19  C   UNL     1       8.665  18.371  24.891  0.00  0.00    +0.000 A 
ATOM     20  C   UNL     1       9.842  18.504  25.622  0.00  0.00    +0.000 A 
ATOM     21  C   UNL     1      10.401  17.389  26.229  0.00  0.00    +0.000 A 
ATOM     22  C   UNL     1       9.775  16.147  26.105  0.00  0.00    +0.000 A 
ENDBRANCH   6  17
BRANCH  11  23
ATOM     23  C   UNL     1       9.997  14.476  19.418  0.00  0.00    +0.000 A 
ATOM     24  N   UNL     1       9.938  15.649  18.737  0.00  0.00    +0.000 NA
ATOM     25  C   UNL     1      10.469  15.726  17.496  0.00  0.00    +0.000 A 
ATOM     26  C   UNL     1      11.080  14.669  16.864  0.00  0.00    +0.000 A 
ATOM     27  C   UNL     1      11.142  13.470  17.551  0.00  0.00    +0.000 A 
ATOM     28  C   UNL     1      10.583  13.348  18.838  0.00  0.00    +0.000 A 
BRANCH  28  29
ATOM     29  C   UNL     1      10.616  11.974  19.445  0.00  0.00    +0.000 C 
ATOM     30  F   UNL     1      11.220  11.831  20.654  0.00  0.00    +0.000 F 
ATOM     31  F   UNL     1       9.361  11.467  19.635  0.00  0.00    +0.000 F 
ATOM     32  F   UNL     1      11.242  11.077  18.625  0.00  0.00    +0.000 F 
ENDBRANCH  28  29
ENDBRANCH  11  23
BRANCH   1  34
ATOM     33  O   UNL     1       4.185   9.006  28.124  0.00  0.00    +0.000 OA
ATOM     34  C   UNL     1       4.033   9.827  27.238  0.00  0.00    +0.000 C 
BRANCH  34  35
ATOM     35  O   UNL     1       3.061   9.733  26.299  0.00  0.00    +0.000 OA
ATOM     36  H   UNL     1       2.160   9.942  26.603  0.00  0.00    +0.000 HD
ENDBRANCH  34  35
ENDBRANCH   1  34
TORSDOF 5
ENDMDL
MODEL 9
REMARK VINA RESULT:      -8.1      6.951      9.369
REMARK  Name = 
REMARK  5 active torsions:
REMARK  status: ('A' for Active; 'I' for Inactive)
REMARK    1  A    between atoms: C_2  and  O_3
REMARK    2  A    between atoms: C_2  and  C_4
REMARK    3  A    between atoms: C_9  and  C_10
REMARK    4  A    between atoms: N_20  and  C_21
REMARK    5  A    between atoms: C_26  and  C_27
REMARK                            x       y       z     vdW  Elec       q    Type
REMARK                         _______ _______ _______ _____ _____    ______ ____
ROOT
ATOM      1  C   UNL     1       3.774  16.133  19.635  0.00  0.00    +0.000 A 
ATOM      2  C   UNL     1       4.276  15.152  18.782  0.00  0.00    +0.000 A 
ATOM      3  C   UNL     1       3.460  14.092  18.385  0.00  0.00    +0.000 A 
ATOM      4  C   UNL     1       2.145  14.004  18.810  0.00  0.00    +0.000 A 
ATOM      5  N   UNL     1       1.388  12.985  18.380  0.00  0.00    +0.000 NA
ATOM      6  C   UNL     1       0.100  12.939  18.814  0.00  0.00    +0.000 A 
ATOM      7  C   UNL     1      -0.403  13.897  19.735  0.00  0.00    +0.000 A 
ATOM      8  N   UNL     1      -1.693  13.806  20.243  0.00  0.00    +0.000 N 
ATOM      9  C   UNL     1      -2.354  15.030  20.735  0.00  0.00    +0.000 C 
ATOM     10  C   UNL     1      -3.888  14.775  20.764  0.00  0.00    +0.000 C 
ATOM     11  N   UNL     1      -4.132  13.601  21.632  0.00  0.00    +0.000 N 
ATOM     12  C   UNL     1      -3.499  12.376  21.114  0.00  0.00    +0.000 C 
ATOM     13  C   UNL     1      -1.968  12.619  21.090  0.00  0.00    +0.000 C 
ATOM     14  N   UNL     1       0.368  14.939  20.134  0.00  0.00    +0.000 NA
ATOM     15  C   UNL     1       1.631  14.998  19.675  0.00  0.00    +0.000 A 
ATOM     16  C   UNL     1       2.449  16.052  20.062  0.00  0.00    +0.000 A 
ENDROOT
BRANCH   6  17
ATOM     17  C   UNL     1      -0.709  11.827  18.238  0.00  0.00    +0.000 A 
ATOM     18  C   UNL     1      -1.859  12.084  17.471  0.00  0.00    +0.000 A 
ATOM     19  C   UNL     1      -2.545  11.051  16.822  0.00  0.00    +0.000 A 
ATOM     20  C   UNL     1      -2.087   9.739  16.906  0.00  0.00    +0.000 A 
ATOM     21  C   UNL     1      -0.980   9.449  17.689  0.00  0.00    +0.000 A 
ATOM     22  C   UNL     1      -0.334  10.476  18.381  0.00  0.00    +0.000 A 
ENDBRANCH   6  17
BRANCH  11  23
ATOM     23  C   UNL     1      -5.286  13.539  22.371  0.00  0.00    +0.000 A 
ATOM     24  N   UNL     1      -6.429  13.936  21.756  0.00  0.00    +0.000 NA
ATOM     25  C   UNL     1      -7.584  13.970  22.456  0.00  0.00    +0.000 A 
ATOM     26  C   UNL     1      -7.680  13.621  23.782  0.00  0.00    +0.000 A 
ATOM     27  C   UNL     1      -6.519  13.218  24.417  0.00  0.00    +0.000 A 
ATOM     28  C   UNL     1      -5.293  13.188  23.724  0.00  0.00    +0.000 A 
BRANCH  28  29
ATOM     29  C   UNL     1      -4.081  12.835  24.539  0.00  0.00    +0.000 C 
ATOM     30  F   UNL     1      -3.119  13.782  24.685  0.00  0.00    +0.000 F 
ATOM     31  F   UNL     1      -4.409  12.487  25.819  0.00  0.00    +0.000 F 
ATOM     32  F   UNL     1      -3.434  11.744  24.029  0.00  0.00    +0.000 F 
ENDBRANCH  28  29
ENDBRANCH  11  23
BRANCH   1  34
ATOM     33  O   UNL     1       4.254  18.363  20.296  0.00  0.00    +0.000 OA
ATOM     34  C   UNL     1       4.664  17.252  20.013  0.00  0.00    +0.000 C 
BRANCH  34  35
ATOM     35  O   UNL     1       5.982  16.936  19.978  0.00  0.00    +0.000 OA
ATOM     36  H   UNL     1       6.199  16.012  20.193  0.00  0.00    +0.000 HD
ENDBRANCH  34  35
ENDBRANCH   1  34
TORSDOF 5
ENDMDL
