MODEL 1
REMARK VINA RESULT:      -7.6      0.000      0.000
REMARK  Name = 
REMARK  8 active torsions:
REMARK  status: ('A' for Active; 'I' for Inactive)
REMARK    1  A    between atoms: C_1  and  C_2
REMARK    2  A    between atoms: C_2  and  C_3
REMARK    3  A    between atoms: C_2  and  C_18
REMARK    4  A    between atoms: C_3  and  C_4
REMARK    5  A    between atoms: N_9  and  C_10
REMARK    6  A    between atoms: C_10  and  C_11
REMARK    7  A    between atoms: C_11  and  C_12
REMARK    8  A    between atoms: C_12  and  C_13
REMARK                            x       y       z     vdW  Elec       q    Type
REMARK                         _______ _______ _______ _____ _____    ______ ____
ROOT
ATOM      1  C   UNL     1       4.771   4.393  16.767  0.00  0.00    +0.000 C 
ATOM      2  O   UNL     1       5.471   3.632  16.098  0.00  0.00    +0.000 OA
ATOM      3  N   UNL     1       5.250   5.541  17.379  0.00  0.00    +0.000 N 
ATOM      4  C   UNL     1       6.508   6.071  17.225  0.00  0.00    +0.000 C 
ATOM      5  N   UNL     1       7.418   5.463  16.549  0.00  0.00    +0.000 NA
ATOM      6  N   UNL     1       6.722   7.294  17.797  0.00  0.00    +0.000 N 
ATOM      7  H   UNL     1       4.595   6.142  17.856  0.00  0.00    +0.000 HD
ATOM      8  H   UNL     1       7.029   4.570  16.201  0.00  0.00    +0.000 HD
ATOM      9  H   UNL     1       6.642   7.268  18.809  0.00  0.00    +0.000 HD
ENDROOT
BRANCH   1  10
ATOM     10  C   UNL     1       3.298   4.096  16.997  0.00  0.00    +0.000 C 
BRANCH  10  12
ATOM     11  C   UNL     1       2.274   6.175  17.975  0.00  0.00    +0.000 C 
ATOM     12  C   UNL     1       2.680   4.723  18.268  0.00  0.00    +0.000 C 
BRANCH  12  13
ATOM     13  C   UNL     1       1.511   3.902  18.911  0.00  0.00    +0.000 C 
ATOM     14  C   UNL     1       1.809   2.394  19.073  0.00  0.00    +0.000 C 
ATOM     15  C   UNL     1       2.813   2.076  20.184  0.00  0.00    +0.000 C 
ATOM     16  C   UNL     1       2.453   2.729  21.517  0.00  0.00    +0.000 C 
ATOM     17  C   UNL     1       2.137   4.214  21.367  0.00  0.00    +0.000 C 
ATOM     18  C   UNL     1       1.074   4.437  20.294  0.00  0.00    +0.000 C 
ENDBRANCH  12  13
ENDBRANCH  10  12
ENDBRANCH   1  10
BRANCH   6  19
ATOM     19  C   UNL     1       7.896   8.069  17.383  0.00  0.00    +0.000 C 
BRANCH  19  20
ATOM     20  C   UNL     1       8.483   8.803  18.586  0.00  0.00    +0.000 C 
BRANCH  20  21
ATOM     21  C   UNL     1       8.945  10.210  18.197  0.00  0.00    +0.000 C 
BRANCH  21  22
ATOM     22  C   UNL     1       9.681  10.891  19.298  0.00  0.00    +0.000 A 
ATOM     23  C   UNL     1       9.307  11.080  20.611  0.00  0.00    +0.000 A 
ATOM     24  N   UNL     1      10.338  11.772  21.184  0.00  0.00    +0.000 N 
ATOM     25  C   UNL     1      11.283  11.974  20.220  0.00  0.00    +0.000 A 
ATOM     26  N   UNL     1      10.915  11.456  19.071  0.00  0.00    +0.000 NA
ATOM     27  H   UNL     1      10.393  12.081  22.145  0.00  0.00    +0.000 HD
ENDBRANCH  21  22
ENDBRANCH  20  21
ENDBRANCH  19  20
ENDBRANCH   6  19
TORSDOF 7
ENDMDL
MODEL 2
REMARK VINA RESULT:      -7.4      2.492      4.430
REMARK  Name = 
REMARK  8 active torsions:
REMARK  status: ('A' for Active; 'I' for Inactive)
REMARK    1  A    between atoms: C_1  and  C_2
REMARK    2  A    between atoms: C_2  and  C_3
REMARK    3  A    between atoms: C_2  and  C_18
REMARK    4  A    between atoms: C_3  and  C_4
REMARK    5  A    between atoms: N_9  and  C_10
REMARK    6  A    between atoms: C_10  and  C_11
REMARK    7  A    between atoms: C_11  and  C_12
REMARK    8  A    between atoms: C_12  and  C_13
REMARK                            x       y       z     vdW  Elec       q    Type
REMARK                         _______ _______ _______ _____ _____    ______ ____
ROOT
ATOM      1  C   UNL     1       7.832   7.493  18.049  0.00  0.00    +0.000 C 
ATOM      2  O   UNL     1       7.362   7.929  16.996  0.00  0.00    +0.000 OA
ATOM      3  N   UNL     1       8.626   8.239  18.904  0.00  0.00    +0.000 N 
ATOM      4  C   UNL     1       8.891   9.582  18.792  0.00  0.00    +0.000 C 
ATOM      5  N   UNL     1       8.487  10.267  17.780  0.00  0.00    +0.000 NA
ATOM      6  N   UNL     1       9.571  10.153  19.831  0.00  0.00    +0.000 N 
ATOM      7  H   UNL     1       8.917   7.825  19.777  0.00  0.00    +0.000 HD
ATOM      8  H   UNL     1       7.986   9.635  17.133  0.00  0.00    +0.000 HD
ATOM      9  H   UNL     1      10.509   9.776  19.934  0.00  0.00    +0.000 HD
ENDROOT
BRANCH   1  10
ATOM     10  C   UNL     1       7.588   6.053  18.472  0.00  0.00    +0.000 C 
BRANCH  10  12
ATOM     11  C   UNL     1       7.179   4.476  16.556  0.00  0.00    +0.000 C 
ATOM     12  C   UNL     1       6.507   5.294  17.669  0.00  0.00    +0.000 C 
BRANCH  12  13
ATOM     13  C   UNL     1       5.528   4.425  18.531  0.00  0.00    +0.000 C 
ATOM     14  C   UNL     1       4.647   5.241  19.505  0.00  0.00    +0.000 C 
ATOM     15  C   UNL     1       3.536   6.038  18.816  0.00  0.00    +0.000 C 
ATOM     16  C   UNL     1       2.695   5.189  17.866  0.00  0.00    +0.000 C 
ATOM     17  C   UNL     1       3.554   4.363  16.913  0.00  0.00    +0.000 C 
ATOM     18  C   UNL     1       4.584   3.541  17.684  0.00  0.00    +0.000 C 
ENDBRANCH  12  13
ENDBRANCH  10  12
ENDBRANCH   1  10
BRANCH   6  19
ATOM     19  C   UNL     1       9.578  11.614  19.950  0.00  0.00    +0.000 C 
BRANCH  19  20
ATOM     20  C   UNL     1      10.805  12.065  20.739  0.00  0.00    +0.000 C 
BRANCH  20  21
ATOM     21  C   UNL     1      12.066  12.000  19.875  0.00  0.00    +0.000 C 
BRANCH  21  22
ATOM     22  C   UNL     1      12.173  13.153  18.938  0.00  0.00    +0.000 A 
ATOM     23  C   UNL     1      12.277  14.498  19.220  0.00  0.00    +0.000 A 
ATOM     24  N   UNL     1      12.331  15.119  18.002  0.00  0.00    +0.000 N 
ATOM     25  C   UNL     1      12.261  14.149  17.043  0.00  0.00    +0.000 A 
ATOM     26  N   UNL     1      12.162  12.953  17.577  0.00  0.00    +0.000 NA
ATOM     27  H   UNL     1      12.408  16.113  17.837  0.00  0.00    +0.000 HD
ENDBRANCH  21  22
ENDBRANCH  20  21
ENDBRANCH  19  20
ENDBRANCH   6  19
TORSDOF 7
ENDMDL
MODEL 3
REMARK VINA RESULT:      -7.3      0.752      1.022
REMARK  Name = 
REMARK  8 active torsions:
REMARK  status: ('A' for Active; 'I' for Inactive)
REMARK    1  A    between atoms: C_1  and  C_2
REMARK    2  A    between atoms: C_2  and  C_3
REMARK    3  A    between atoms: C_2  and  C_18
REMARK    4  A    between atoms: C_3  and  C_4
REMARK    5  A    between atoms: N_9  and  C_10
REMARK    6  A    between atoms: C_10  and  C_11
REMARK    7  A    between atoms: C_11  and  C_12
REMARK    8  A    between atoms: C_12  and  C_13
REMARK                            x       y       z     vdW  Elec       q    Type
REMARK                         _______ _______ _______ _____ _____    ______ ____
ROOT
ATOM      1  C   UNL     1       4.935   4.545  16.719  0.00  0.00    +0.000 C 
ATOM      2  O   UNL     1       5.343   4.115  15.638  0.00  0.00    +0.000 OA
ATOM      3  N   UNL     1       5.614   5.483  17.480  0.00  0.00    +0.000 N 
ATOM      4  C   UNL     1       6.742   6.167  17.097  0.00  0.00    +0.000 C 
ATOM      5  N   UNL     1       7.346   5.907  15.992  0.00  0.00    +0.000 NA
ATOM      6  N   UNL     1       7.160   7.160  17.938  0.00  0.00    +0.000 N 
ATOM      7  H   UNL     1       5.178   5.828  18.322  0.00  0.00    +0.000 HD
ATOM      8  H   UNL     1       6.848   5.134  15.518  0.00  0.00    +0.000 HD
ATOM      9  H   UNL     1       7.444   6.805  18.847  0.00  0.00    +0.000 HD
ENDROOT
BRANCH   1  10
ATOM     10  C   UNL     1       3.635   4.033  17.319  0.00  0.00    +0.000 C 
BRANCH  10  12
ATOM     11  C   UNL     1       3.009   6.392  17.927  0.00  0.00    +0.000 C 
ATOM     12  C   UNL     1       3.000   4.932  18.404  0.00  0.00    +0.000 C 
BRANCH  12  13
ATOM     13  C   UNL     1       1.582   4.480  18.893  0.00  0.00    +0.000 C 
ATOM     14  C   UNL     1       1.310   2.966  18.737  0.00  0.00    +0.000 C 
ATOM     15  C   UNL     1       2.073   2.093  19.736  0.00  0.00    +0.000 C 
ATOM     16  C   UNL     1       1.902   2.553  21.182  0.00  0.00    +0.000 C 
ATOM     17  C   UNL     1       2.148   4.050  21.346  0.00  0.00    +0.000 C 
ATOM     18  C   UNL     1       1.293   4.851  20.366  0.00  0.00    +0.000 C 
ENDBRANCH  12  13
ENDBRANCH  10  12
ENDBRANCH   1  10
BRANCH   6  19
ATOM     19  C   UNL     1       8.121   8.148  17.438  0.00  0.00    +0.000 C 
BRANCH  19  20
ATOM     20  C   UNL     1       8.462   9.145  18.542  0.00  0.00    +0.000 C 
BRANCH  20  21
ATOM     21  C   UNL     1       8.781  10.523  17.956  0.00  0.00    +0.000 C 
BRANCH  21  22
ATOM     22  C   UNL     1       9.934  11.177  18.635  0.00  0.00    +0.000 A 
ATOM     23  C   UNL     1      11.033  11.798  18.082  0.00  0.00    +0.000 A 
ATOM     24  N   UNL     1      11.787  12.211  19.147  0.00  0.00    +0.000 N 
ATOM     25  C   UNL     1      11.132  11.835  20.284  0.00  0.00    +0.000 A 
ATOM     26  N   UNL     1      10.013  11.207  20.008  0.00  0.00    +0.000 NA
ATOM     27  H   UNL     1      12.669  12.703  19.103  0.00  0.00    +0.000 HD
ENDBRANCH  21  22
ENDBRANCH  20  21
ENDBRANCH  19  20
ENDBRANCH   6  19
TORSDOF 7
ENDMDL
MODEL 4
REMARK VINA RESULT:      -7.3      1.357      1.722
REMARK  Name = 
REMARK  8 active torsions:
REMARK  status: ('A' for Active; 'I' for Inactive)
REMARK    1  A    between atoms: C_1  and  C_2
REMARK    2  A    between atoms: C_2  and  C_3
REMARK    3  A    between atoms: C_2  and  C_18
REMARK    4  A    between atoms: C_3  and  C_4
REMARK    5  A    between atoms: N_9  and  C_10
REMARK    6  A    between atoms: C_10  and  C_11
REMARK    7  A    between atoms: C_11  and  C_12
REMARK    8  A    between atoms: C_12  and  C_13
REMARK                            x       y       z     vdW  Elec       q    Type
REMARK                         _______ _______ _______ _____ _____    ______ ____
ROOT
ATOM      1  C   UNL     1       5.236   4.554  17.905  0.00  0.00    +0.000 C 
ATOM      2  O   UNL     1       5.886   3.842  18.672  0.00  0.00    +0.000 OA
ATOM      3  N   UNL     1       5.568   5.867  17.608  0.00  0.00    +0.000 N 
ATOM      4  C   UNL     1       6.715   6.515  17.994  0.00  0.00    +0.000 C 
ATOM      5  N   UNL     1       7.566   5.965  18.786  0.00  0.00    +0.000 NA
ATOM      6  N   UNL     1       6.915   7.757  17.461  0.00  0.00    +0.000 N 
ATOM      7  H   UNL     1       5.017   6.359  16.920  0.00  0.00    +0.000 HD
ATOM      8  H   UNL     1       7.215   5.029  19.049  0.00  0.00    +0.000 HD
ATOM      9  H   UNL     1       6.205   8.424  17.751  0.00  0.00    +0.000 HD
ENDROOT
BRANCH   1  10
ATOM     10  C   UNL     1       3.971   4.033  17.242  0.00  0.00    +0.000 C 
BRANCH  10  12
ATOM     11  C   UNL     1       1.560   4.724  17.436  0.00  0.00    +0.000 C 
ATOM     12  C   UNL     1       2.713   3.994  18.140  0.00  0.00    +0.000 C 
BRANCH  12  13
ATOM     13  C   UNL     1       2.294   2.565  18.632  0.00  0.00    +0.000 C 
ATOM     14  C   UNL     1       3.258   1.943  19.668  0.00  0.00    +0.000 C 
ATOM     15  C   UNL     1       3.174   2.585  21.055  0.00  0.00    +0.000 C 
ATOM     16  C   UNL     1       1.746   2.668  21.588  0.00  0.00    +0.000 C 
ATOM     17  C   UNL     1       0.781   3.262  20.567  0.00  0.00    +0.000 C 
ATOM     18  C   UNL     1       0.872   2.518  19.237  0.00  0.00    +0.000 C 
ENDBRANCH  12  13
ENDBRANCH  10  12
ENDBRANCH   1  10
BRANCH   6  19
ATOM     19  C   UNL     1       8.253   8.351  17.540  0.00  0.00    +0.000 C 
BRANCH  19  20
ATOM     20  C   UNL     1       8.149   9.811  17.973  0.00  0.00    +0.000 C 
BRANCH  20  21
ATOM     21  C   UNL     1       9.258  10.168  18.966  0.00  0.00    +0.000 C 
BRANCH  21  22
ATOM     22  C   UNL     1       9.753  11.562  18.787  0.00  0.00    +0.000 A 
ATOM     23  C   UNL     1      10.310  12.153  17.673  0.00  0.00    +0.000 A 
ATOM     24  N   UNL     1      10.598  13.436  18.052  0.00  0.00    +0.000 N 
ATOM     25  C   UNL     1      10.214  13.576  19.355  0.00  0.00    +0.000 A 
ATOM     26  N   UNL     1       9.703  12.462  19.827  0.00  0.00    +0.000 NA
ATOM     27  H   UNL     1      11.021  14.151  17.477  0.00  0.00    +0.000 HD
ENDBRANCH  21  22
ENDBRANCH  20  21
ENDBRANCH  19  20
ENDBRANCH   6  19
TORSDOF 7
ENDMDL
MODEL 5
REMARK VINA RESULT:      -7.2      2.766      9.914
REMARK  Name = 
REMARK  8 active torsions:
REMARK  status: ('A' for Active; 'I' for Inactive)
REMARK    1  A    between atoms: C_1  and  C_2
REMARK    2  A    between atoms: C_2  and  C_3
REMARK    3  A    between atoms: C_2  and  C_18
REMARK    4  A    between atoms: C_3  and  C_4
REMARK    5  A    between atoms: N_9  and  C_10
REMARK    6  A    between atoms: C_10  and  C_11
REMARK    7  A    between atoms: C_11  and  C_12
REMARK    8  A    between atoms: C_12  and  C_13
REMARK                            x       y       z     vdW  Elec       q    Type
REMARK                         _______ _______ _______ _____ _____    ______ ____
ROOT
ATOM      1  C   UNL     1       8.824   9.503  18.718  0.00  0.00    +0.000 C 
ATOM      2  O   UNL     1       8.398  10.175  17.777  0.00  0.00    +0.000 OA
ATOM      3  N   UNL     1       8.497   8.171  18.922  0.00  0.00    +0.000 N 
ATOM      4  C   UNL     1       7.784   7.375  18.060  0.00  0.00    +0.000 C 
ATOM      5  N   UNL     1       7.250   7.849  16.990  0.00  0.00    +0.000 NA
ATOM      6  N   UNL     1       7.709   6.050  18.384  0.00  0.00    +0.000 N 
ATOM      7  H   UNL     1       8.940   7.677  19.682  0.00  0.00    +0.000 HD
ATOM      8  H   UNL     1       7.446   8.863  16.944  0.00  0.00    +0.000 HD
ATOM      9  H   UNL     1       7.210   5.891  19.255  0.00  0.00    +0.000 HD
ENDROOT
BRANCH   1  10
ATOM     10  C   UNL     1       9.738  10.120  19.764  0.00  0.00    +0.000 C 
BRANCH  10  12
ATOM     11  C   UNL     1       8.861  11.895  21.314  0.00  0.00    +0.000 C 
ATOM     12  C   UNL     1       9.576  11.642  19.979  0.00  0.00    +0.000 C 
BRANCH  12  13
ATOM     13  C   UNL     1      10.898  12.474  19.850  0.00  0.00    +0.000 C 
ATOM     14  C   UNL     1      11.852  11.980  18.739  0.00  0.00    +0.000 C 
ATOM     15  C   UNL     1      11.367  12.292  17.321  0.00  0.00    +0.000 C 
ATOM     16  C   UNL     1      10.987  13.759  17.131  0.00  0.00    +0.000 C 
ATOM     17  C   UNL     1      10.061  14.264  18.233  0.00  0.00    +0.000 C 
ATOM     18  C   UNL     1      10.653  13.982  19.612  0.00  0.00    +0.000 C 
ENDBRANCH  12  13
ENDBRANCH  10  12
ENDBRANCH   1  10
BRANCH   6  19
ATOM     19  C   UNL     1       7.281   5.096  17.356  0.00  0.00    +0.000 C 
BRANCH  19  20
ATOM     20  C   UNL     1       5.766   4.920  17.408  0.00  0.00    +0.000 C 
BRANCH  20  21
ATOM     21  C   UNL     1       5.334   4.285  18.733  0.00  0.00    +0.000 C 
BRANCH  21  22
ATOM     22  C   UNL     1       4.241   3.289  18.555  0.00  0.00    +0.000 A 
ATOM     23  C   UNL     1       3.994   2.132  19.263  0.00  0.00    +0.000 A 
ATOM     24  N   UNL     1       2.880   1.587  18.684  0.00  0.00    +0.000 N 
ATOM     25  C   UNL     1       2.499   2.415  17.667  0.00  0.00    +0.000 A 
ATOM     26  N   UNL     1       3.301   3.448  17.564  0.00  0.00    +0.000 NA
ATOM     27  H   UNL     1       2.422   0.727  18.954  0.00  0.00    +0.000 HD
ENDBRANCH  21  22
ENDBRANCH  20  21
ENDBRANCH  19  20
ENDBRANCH   6  19
TORSDOF 7
ENDMDL
MODEL 6
REMARK VINA RESULT:      -7.2      1.206      1.468
REMARK  Name = 
REMARK  8 active torsions:
REMARK  status: ('A' for Active; 'I' for Inactive)
REMARK    1  A    between atoms: C_1  and  C_2
REMARK    2  A    between atoms: C_2  and  C_3
REMARK    3  A    between atoms: C_2  and  C_18
REMARK    4  A    between atoms: C_3  and  C_4
REMARK    5  A    between atoms: N_9  and  C_10
REMARK    6  A    between atoms: C_10  and  C_11
REMARK    7  A    between atoms: C_11  and  C_12
REMARK    8  A    between atoms: C_12  and  C_13
REMARK                            x       y       z     vdW  Elec       q    Type
REMARK                         _______ _______ _______ _____ _____    ______ ____
ROOT
ATOM      1  C   UNL     1       4.888   4.505  16.434  0.00  0.00    +0.000 C 
ATOM      2  O   UNL     1       5.529   3.877  15.590  0.00  0.00    +0.000 OA
ATOM      3  N   UNL     1       5.430   5.510  17.221  0.00  0.00    +0.000 N 
ATOM      4  C   UNL     1       6.688   6.045  17.090  0.00  0.00    +0.000 C 
ATOM      5  N   UNL     1       7.541   5.567  16.255  0.00  0.00    +0.000 NA
ATOM      6  N   UNL     1       6.965   7.134  17.868  0.00  0.00    +0.000 N 
ATOM      7  H   UNL     1       4.819   6.017  17.844  0.00  0.00    +0.000 HD
ATOM      8  H   UNL     1       7.112   4.761  15.769  0.00  0.00    +0.000 HD
ATOM      9  H   UNL     1       6.946   6.916  18.861  0.00  0.00    +0.000 HD
ENDROOT
BRANCH   1  10
ATOM     10  C   UNL     1       3.425   4.187  16.697  0.00  0.00    +0.000 C 
BRANCH  10  12
ATOM     11  C   UNL     1       2.378   5.956  18.147  0.00  0.00    +0.000 C 
ATOM     12  C   UNL     1       2.914   4.517  18.119  0.00  0.00    +0.000 C 
BRANCH  12  13
ATOM     13  C   UNL     1       1.885   3.492  18.707  0.00  0.00    +0.000 C 
ATOM     14  C   UNL     1       2.510   2.152  19.156  0.00  0.00    +0.000 C 
ATOM     15  C   UNL     1       3.337   2.253  20.441  0.00  0.00    +0.000 C 
ATOM     16  C   UNL     1       2.587   2.938  21.580  0.00  0.00    +0.000 C 
ATOM     17  C   UNL     1       1.948   4.253  21.144  0.00  0.00    +0.000 C 
ATOM     18  C   UNL     1       1.080   4.050  19.904  0.00  0.00    +0.000 C 
ENDBRANCH  12  13
ENDBRANCH  10  12
ENDBRANCH   1  10
BRANCH   6  19
ATOM     19  C   UNL     1       8.129   7.960  17.536  0.00  0.00    +0.000 C 
BRANCH  19  20
ATOM     20  C   UNL     1       7.864   9.412  17.923  0.00  0.00    +0.000 C 
BRANCH  20  21
ATOM     21  C   UNL     1       9.005   9.968  18.778  0.00  0.00    +0.000 C 
BRANCH  21  22
ATOM     22  C   UNL     1       9.544  11.249  18.243  0.00  0.00    +0.000 A 
ATOM     23  C   UNL     1      10.787  11.517  17.710  0.00  0.00    +0.000 A 
ATOM     24  N   UNL     1      10.763  12.846  17.387  0.00  0.00    +0.000 N 
ATOM     25  C   UNL     1       9.531  13.329  17.727  0.00  0.00    +0.000 A 
ATOM     26  N   UNL     1       8.775  12.390  18.248  0.00  0.00    +0.000 NA
ATOM     27  H   UNL     1      11.516  13.378  16.974  0.00  0.00    +0.000 HD
ENDBRANCH  21  22
ENDBRANCH  20  21
ENDBRANCH  19  20
ENDBRANCH   6  19
TORSDOF 7
ENDMDL
MODEL 7
REMARK VINA RESULT:      -7.2      1.589      2.060
REMARK  Name = 
REMARK  8 active torsions:
REMARK  status: ('A' for Active; 'I' for Inactive)
REMARK    1  A    between atoms: C_1  and  C_2
REMARK    2  A    between atoms: C_2  and  C_3
REMARK    3  A    between atoms: C_2  and  C_18
REMARK    4  A    between atoms: C_3  and  C_4
REMARK    5  A    between atoms: N_9  and  C_10
REMARK    6  A    between atoms: C_10  and  C_11
REMARK    7  A    between atoms: C_11  and  C_12
REMARK    8  A    between atoms: C_12  and  C_13
REMARK                            x       y       z     vdW  Elec       q    Type
REMARK                         _______ _______ _______ _____ _____    ______ ____
ROOT
ATOM      1  C   UNL     1       5.440   4.456  17.517  0.00  0.00    +0.000 C 
ATOM      2  O   UNL     1       5.503   4.127  16.331  0.00  0.00    +0.000 OA
ATOM      3  N   UNL     1       6.238   5.435  18.087  0.00  0.00    +0.000 N 
ATOM      4  C   UNL     1       7.098   6.268  17.413  0.00  0.00    +0.000 C 
ATOM      5  N   UNL     1       7.318   6.132  16.153  0.00  0.00    +0.000 NA
ATOM      6  N   UNL     1       7.672   7.267  18.148  0.00  0.00    +0.000 N 
ATOM      7  H   UNL     1       6.077   5.687  19.051  0.00  0.00    +0.000 HD
ATOM      8  H   UNL     1       6.770   5.326  15.807  0.00  0.00    +0.000 HD
ATOM      9  H   UNL     1       8.278   6.909  18.881  0.00  0.00    +0.000 HD
ENDROOT
BRANCH   1  10
ATOM     10  C   UNL     1       4.475   3.764  18.467  0.00  0.00    +0.000 C 
BRANCH  10  12
ATOM     11  C   UNL     1       3.538   1.430  18.445  0.00  0.00    +0.000 C 
ATOM     12  C   UNL     1       3.444   2.822  17.803  0.00  0.00    +0.000 C 
BRANCH  12  13
ATOM     13  C   UNL     1       1.973   3.363  17.778  0.00  0.00    +0.000 C 
ATOM     14  C   UNL     1       1.006   2.612  18.721  0.00  0.00    +0.000 C 
ATOM     15  C   UNL     1       1.227   2.915  20.205  0.00  0.00    +0.000 C 
ATOM     16  C   UNL     1       1.268   4.411  20.509  0.00  0.00    +0.000 C 
ATOM     17  C   UNL     1       2.204   5.166  19.571  0.00  0.00    +0.000 C 
ATOM     18  C   UNL     1       1.868   4.869  18.111  0.00  0.00    +0.000 C 
ENDBRANCH  12  13
ENDBRANCH  10  12
ENDBRANCH   1  10
BRANCH   6  19
ATOM     19  C   UNL     1       8.305   8.385  17.443  0.00  0.00    +0.000 C 
BRANCH  19  20
ATOM     20  C   UNL     1       8.145   9.668  18.254  0.00  0.00    +0.000 C 
BRANCH  20  21
ATOM     21  C   UNL     1       9.437  10.488  18.244  0.00  0.00    +0.000 C 
BRANCH  21  22
ATOM     22  C   UNL     1       9.199  11.927  18.548  0.00  0.00    +0.000 A 
ATOM     23  C   UNL     1       9.328  12.597  19.745  0.00  0.00    +0.000 A 
ATOM     24  N   UNL     1       8.976  13.891  19.474  0.00  0.00    +0.000 N 
ATOM     25  C   UNL     1       8.655  13.960  18.148  0.00  0.00    +0.000 A 
ATOM     26  N   UNL     1       8.777  12.791  17.564  0.00  0.00    +0.000 NA
ATOM     27  H   UNL     1       8.955  14.658  20.131  0.00  0.00    +0.000 HD
ENDBRANCH  21  22
ENDBRANCH  20  21
ENDBRANCH  19  20
ENDBRANCH   6  19
TORSDOF 7
ENDMDL
MODEL 8
REMARK VINA RESULT:      -7.1      1.183      1.827
REMARK  Name = 
REMARK  8 active torsions:
REMARK  status: ('A' for Active; 'I' for Inactive)
REMARK    1  A    between atoms: C_1  and  C_2
REMARK    2  A    between atoms: C_2  and  C_3
REMARK    3  A    between atoms: C_2  and  C_18
REMARK    4  A    between atoms: C_3  and  C_4
REMARK    5  A    between atoms: N_9  and  C_10
REMARK    6  A    between atoms: C_10  and  C_11
REMARK    7  A    between atoms: C_11  and  C_12
REMARK    8  A    between atoms: C_12  and  C_13
REMARK                            x       y       z     vdW  Elec       q    Type
REMARK                         _______ _______ _______ _____ _____    ______ ____
ROOT
ATOM      1  C   UNL     1       5.564   4.462  17.555  0.00  0.00    +0.000 C 
ATOM      2  O   UNL     1       5.777   4.004  16.431  0.00  0.00    +0.000 OA
ATOM      3  N   UNL     1       6.253   5.539  18.090  0.00  0.00    +0.000 N 
ATOM      4  C   UNL     1       7.154   6.332  17.421  0.00  0.00    +0.000 C 
ATOM      5  N   UNL     1       7.525   6.065  16.219  0.00  0.00    +0.000 NA
ATOM      6  N   UNL     1       7.600   7.436  18.092  0.00  0.00    +0.000 N 
ATOM      7  H   UNL     1       5.972   5.890  18.993  0.00  0.00    +0.000 HD
ATOM      8  H   UNL     1       7.051   5.198  15.912  0.00  0.00    +0.000 HD
ATOM      9  H   UNL     1       8.130   7.196  18.925  0.00  0.00    +0.000 HD
ENDROOT
BRANCH   1  10
ATOM     10  C   UNL     1       4.522   3.834  18.467  0.00  0.00    +0.000 C 
BRANCH  10  12
ATOM     11  C   UNL     1       3.456   1.561  18.317  0.00  0.00    +0.000 C 
ATOM     12  C   UNL     1       3.436   2.992  17.759  0.00  0.00    +0.000 C 
BRANCH  12  13
ATOM     13  C   UNL     1       1.997   3.614  17.782  0.00  0.00    +0.000 C 
ATOM     14  C   UNL     1       0.988   2.845  18.664  0.00  0.00    +0.000 C 
ATOM     15  C   UNL     1       1.223   3.014  20.167  0.00  0.00    +0.000 C 
ATOM     16  C   UNL     1       1.346   4.477  20.590  0.00  0.00    +0.000 C 
ATOM     17  C   UNL     1       2.325   5.252  19.714  0.00  0.00    +0.000 C 
ATOM     18  C   UNL     1       1.975   5.092  18.236  0.00  0.00    +0.000 C 
ENDBRANCH  12  13
ENDBRANCH  10  12
ENDBRANCH   1  10
BRANCH   6  19
ATOM     19  C   UNL     1       8.269   8.497  17.334  0.00  0.00    +0.000 C 
BRANCH  19  20
ATOM     20  C   UNL     1       8.152   9.823  18.081  0.00  0.00    +0.000 C 
BRANCH  20  21
ATOM     21  C   UNL     1       9.037   9.828  19.330  0.00  0.00    +0.000 C 
BRANCH  21  22
ATOM     22  C   UNL     1       9.811  11.092  19.473  0.00  0.00    +0.000 A 
ATOM     23  C   UNL     1      10.948  11.498  18.808  0.00  0.00    +0.000 A 
ATOM     24  N   UNL     1      11.250  12.727  19.327  0.00  0.00    +0.000 N 
ATOM     25  C   UNL     1      10.305  13.019  20.268  0.00  0.00    +0.000 A 
ATOM     26  N   UNL     1       9.425  12.051  20.381  0.00  0.00    +0.000 NA
ATOM     27  H   UNL     1      12.030  13.314  19.065  0.00  0.00    +0.000 HD
ENDBRANCH  21  22
ENDBRANCH  20  21
ENDBRANCH  19  20
ENDBRANCH   6  19
TORSDOF 7
ENDMDL
MODEL 9
REMARK VINA RESULT:      -7.1      2.859      9.767
REMARK  Name = 
REMARK  8 active torsions:
REMARK  status: ('A' for Active; 'I' for Inactive)
REMARK    1  A    between atoms: C_1  and  C_2
REMARK    2  A    between atoms: C_2  and  C_3
REMARK    3  A    between atoms: C_2  and  C_18
REMARK    4  A    between atoms: C_3  and  C_4
REMARK    5  A    between atoms: N_9  and  C_10
REMARK    6  A    between atoms: C_10  and  C_11
REMARK    7  A    between atoms: C_11  and  C_12
REMARK    8  A    between atoms: C_12  and  C_13
REMARK                            x       y       z     vdW  Elec       q    Type
REMARK                         _______ _______ _______ _____ _____    ______ ____
ROOT
ATOM      1  C   UNL     1       8.656   9.769  18.305  0.00  0.00    +0.000 C 
ATOM      2  O   UNL     1       9.182   9.425  19.365  0.00  0.00    +0.000 OA
ATOM      3  N   UNL     1       8.005   8.894  17.450  0.00  0.00    +0.000 N 
ATOM      4  C   UNL     1       7.727   7.573  17.706  0.00  0.00    +0.000 C 
ATOM      5  N   UNL     1       8.157   6.988  18.767  0.00  0.00    +0.000 NA
ATOM      6  N   UNL     1       6.938   6.934  16.792  0.00  0.00    +0.000 N 
ATOM      7  H   UNL     1       7.547   9.269  16.633  0.00  0.00    +0.000 HD
ATOM      8  H   UNL     1       8.716   7.664  19.315  0.00  0.00    +0.000 HD
ATOM      9  H   UNL     1       7.379   6.868  15.878  0.00  0.00    +0.000 HD
ENDROOT
BRANCH   1  10
ATOM     10  C   UNL     1       8.718  11.214  17.838  0.00  0.00    +0.000 C 
BRANCH  10  12
ATOM     11  C   UNL     1      11.171  11.761  17.742  0.00  0.00    +0.000 C 
ATOM     12  C   UNL     1       9.848  12.069  18.458  0.00  0.00    +0.000 C 
BRANCH  12  13
ATOM     13  C   UNL     1       9.555  13.607  18.523  0.00  0.00    +0.000 C 
ATOM     14  C   UNL     1       8.321  13.983  19.374  0.00  0.00    +0.000 C 
ATOM     15  C   UNL     1       8.539  13.831  20.882  0.00  0.00    +0.000 C 
ATOM     16  C   UNL     1       9.803  14.533  21.375  0.00  0.00    +0.000 C 
ATOM     17  C   UNL     1      11.024  14.185  20.530  0.00  0.00    +0.000 C 
ATOM     18  C   UNL     1      10.749  14.436  19.049  0.00  0.00    +0.000 C 
ENDBRANCH  12  13
ENDBRANCH  10  12
ENDBRANCH   1  10
BRANCH   6  19
ATOM     19  C   UNL     1       6.317   5.660  17.166  0.00  0.00    +0.000 C 
BRANCH  19  20
ATOM     20  C   UNL     1       4.818   5.855  17.376  0.00  0.00    +0.000 C 
BRANCH  20  21
ATOM     21  C   UNL     1       4.378   5.301  18.734  0.00  0.00    +0.000 C 
BRANCH  21  22
ATOM     22  C   UNL     1       4.141   3.831  18.698  0.00  0.00    +0.000 A 
ATOM     23  C   UNL     1       4.511   2.867  19.611  0.00  0.00    +0.000 A 
ATOM     24  N   UNL     1       4.060   1.685  19.089  0.00  0.00    +0.000 N 
ATOM     25  C   UNL     1       3.445   1.968  17.903  0.00  0.00    +0.000 A 
ATOM     26  N   UNL     1       3.480   3.253  17.639  0.00  0.00    +0.000 NA
ATOM     27  H   UNL     1       4.164   0.768  19.502  0.00  0.00    +0.000 HD
ENDBRANCH  21  22
ENDBRANCH  20  21
ENDBRANCH  19  20
ENDBRANCH   6  19
TORSDOF 7
ENDMDL
