MODEL 1
REMARK VINA RESULT:      -7.7      0.000      0.000
REMARK  Name = 
REMARK  11 active torsions:
REMARK  status: ('A' for Active; 'I' for Inactive)
REMARK    1  A    between atoms: C_1  and  C_2
REMARK    2  A    between atoms: C_2  and  C_3
REMARK    3  A    between atoms: C_3  and  C_4
REMARK    4  A    between atoms: C_4  and  N_5
REMARK    5  A    between atoms: C_6  and  S_7
REMARK    6  A    between atoms: S_7  and  C_8
REMARK    7  A    between atoms: C_8  and  C_9
REMARK    8  A    between atoms: N_11  and  C_12
REMARK    9  A    between atoms: N_11  and  C_13
REMARK   10  A    between atoms: C_23  and  S_24
REMARK   11  A    between atoms: S_24  and  N_25
REMARK                            x       y       z     vdW  Elec       q    Type
REMARK                         _______ _______ _______ _____ _____    ______ ____
ROOT
ATOM      1  N   UNL     1       2.618   5.235  20.388  0.00  0.00    +0.000 N 
ATOM      2  C   UNL     1       2.088   6.486  20.110  0.00  0.00    +0.000 A 
ATOM      3  N   UNL     1       2.739   7.067  19.121  0.00  0.00    +0.000 NA
ATOM      4  C   UNL     1       3.708   6.169  18.732  0.00  0.00    +0.000 A 
ATOM      5  C   UNL     1       4.694   6.286  17.742  0.00  0.00    +0.000 A 
ATOM      6  C   UNL     1       5.560   5.194  17.548  0.00  0.00    +0.000 A 
ATOM      7  C   UNL     1       5.459   4.019  18.287  0.00  0.00    +0.000 A 
ATOM      8  C   UNL     1       4.475   3.893  19.259  0.00  0.00    +0.000 A 
ATOM      9  C   UNL     1       3.632   4.994  19.476  0.00  0.00    +0.000 A 
ENDROOT
BRANCH   6  10
ATOM     10  S   UNL     1       6.853   5.305  16.338  0.00  0.00    +0.000 S 
ATOM     11  O   UNL     1       6.383   4.757  15.099  0.00  0.00    +0.000 OA
ATOM     12  O   UNL     1       7.460   6.610  16.450  0.00  0.00    +0.000 OA
BRANCH  10  13
ATOM     13  N   UNL     1       7.910   4.206  17.026  0.00  0.00    +0.000 NA
ATOM     14  H   UNL     1       8.695   3.945  16.435  0.00  0.00    +0.000 HD
ATOM     15  H   UNL     1       8.055   4.318  18.027  0.00  0.00    +0.000 HD
ENDBRANCH  10  13
ENDBRANCH   6  10
BRANCH   1  16
ATOM     16  C   UNL     1       2.338   4.304  21.467  0.00  0.00    +0.000 C 
BRANCH  16  17
ATOM     17  C   UNL     1       1.711   2.995  21.021  0.00  0.00    +0.000 C 
BRANCH  17  19
ATOM     18  C   UNL     1       0.954   2.390  18.724  0.00  0.00    +0.000 C 
ATOM     19  C   UNL     1       0.650   3.229  19.950  0.00  0.00    +0.000 C 
ENDBRANCH  17  19
ENDBRANCH  16  17
ENDBRANCH   1  16
BRANCH   2  20
ATOM     20  S   UNL     1       0.784   7.258  20.997  0.00  0.00    +0.000 S 
BRANCH  20  21
ATOM     21  C   UNL     1       1.172   9.048  20.865  0.00  0.00    +0.000 C 
BRANCH  21  22
ATOM     22  C   UNL     1       0.578   9.913  21.998  0.00  0.00    +0.000 C 
ATOM     23  O   UNL     1       0.868   9.725  23.193  0.00  0.00    +0.000 OA
ATOM     24  N   UNL     1      -0.374  10.906  21.648  0.00  0.00    +0.000 N 
ATOM     25  C   UNL     1      -0.806  11.152  20.270  0.00  0.00    +0.000 C 
BRANCH  24  26
ATOM     26  C   UNL     1      -0.823  11.856  22.707  0.00  0.00    +0.000 C 
ATOM     27  C   UNL     1      -2.293  11.735  23.161  0.00  0.00    +0.000 C 
ATOM     28  C   UNL     1      -3.158  12.590  22.248  0.00  0.00    +0.000 C 
ATOM     29  S   UNL     1      -2.159  14.010  21.866  0.00  0.00    +0.000 S 
ATOM     30  O   UNL     1      -2.496  15.062  22.806  0.00  0.00    +0.000 OA
ATOM     31  O   UNL     1      -2.196  14.221  20.434  0.00  0.00    +0.000 OA
ATOM     32  C   UNL     1      -0.578  13.321  22.319  0.00  0.00    +0.000 C 
ENDBRANCH  24  26
ENDBRANCH  21  22
ENDBRANCH  20  21
ENDBRANCH   2  20
TORSDOF 9
ENDMDL
MODEL 2
REMARK VINA RESULT:      -7.7      1.339      1.384
REMARK  Name = 
REMARK  11 active torsions:
REMARK  status: ('A' for Active; 'I' for Inactive)
REMARK    1  A    between atoms: C_1  and  C_2
REMARK    2  A    between atoms: C_2  and  C_3
REMARK    3  A    between atoms: C_3  and  C_4
REMARK    4  A    between atoms: C_4  and  N_5
REMARK    5  A    between atoms: C_6  and  S_7
REMARK    6  A    between atoms: S_7  and  C_8
REMARK    7  A    between atoms: C_8  and  C_9
REMARK    8  A    between atoms: N_11  and  C_12
REMARK    9  A    between atoms: N_11  and  C_13
REMARK   10  A    between atoms: C_23  and  S_24
REMARK   11  A    between atoms: S_24  and  N_25
REMARK                            x       y       z     vdW  Elec       q    Type
REMARK                         _______ _______ _______ _____ _____    ______ ____
ROOT
ATOM      1  N   UNL     1       2.690   5.475  19.968  0.00  0.00    +0.000 N 
ATOM      2  C   UNL     1       2.396   6.815  19.762  0.00  0.00    +0.000 A 
ATOM      3  N   UNL     1       3.075   7.296  18.739  0.00  0.00    +0.000 NA
ATOM      4  C   UNL     1       3.818   6.242  18.254  0.00  0.00    +0.000 A 
ATOM      5  C   UNL     1       4.734   6.204  17.192  0.00  0.00    +0.000 A 
ATOM      6  C   UNL     1       5.353   4.973  16.905  0.00  0.00    +0.000 A 
ATOM      7  C   UNL     1       5.078   3.812  17.623  0.00  0.00    +0.000 A 
ATOM      8  C   UNL     1       4.162   3.843  18.666  0.00  0.00    +0.000 A 
ATOM      9  C   UNL     1       3.568   5.076  18.974  0.00  0.00    +0.000 A 
ENDROOT
BRANCH   6  10
ATOM     10  S   UNL     1       6.551   4.877  15.601  0.00  0.00    +0.000 S 
ATOM     11  O   UNL     1       6.286   5.911  14.644  0.00  0.00    +0.000 OA
ATOM     12  O   UNL     1       7.848   4.663  16.200  0.00  0.00    +0.000 OA
BRANCH  10  13
ATOM     13  N   UNL     1       6.062   3.420  14.942  0.00  0.00    +0.000 NA
ATOM     14  H   UNL     1       5.442   3.503  14.141  0.00  0.00    +0.000 HD
ATOM     15  H   UNL     1       6.766   2.685  14.954  0.00  0.00    +0.000 HD
ENDBRANCH  10  13
ENDBRANCH   6  10
BRANCH   1  16
ATOM     16  C   UNL     1       2.312   4.575  21.044  0.00  0.00    +0.000 C 
BRANCH  16  17
ATOM     17  C   UNL     1       1.018   3.817  20.805  0.00  0.00    +0.000 C 
BRANCH  17  19
ATOM     18  C   UNL     1       0.819   2.353  18.797  0.00  0.00    +0.000 C 
ATOM     19  C   UNL     1       1.290   2.428  20.237  0.00  0.00    +0.000 C 
ENDBRANCH  17  19
ENDBRANCH  16  17
ENDBRANCH   1  16
BRANCH   2  20
ATOM     20  S   UNL     1       1.336   7.790  20.766  0.00  0.00    +0.000 S 
BRANCH  20  21
ATOM     21  C   UNL     1       1.089   9.316  19.775  0.00  0.00    +0.000 C 
BRANCH  21  22
ATOM     22  C   UNL     1       0.716  10.562  20.609  0.00  0.00    +0.000 C 
ATOM     23  O   UNL     1       1.365  10.901  21.615  0.00  0.00    +0.000 OA
ATOM     24  N   UNL     1      -0.444  11.291  20.236  0.00  0.00    +0.000 N 
ATOM     25  C   UNL     1      -1.290  10.922  19.098  0.00  0.00    +0.000 C 
BRANCH  24  26
ATOM     26  C   UNL     1      -0.714  12.586  20.925  0.00  0.00    +0.000 C 
ATOM     27  C   UNL     1      -1.173  12.499  22.397  0.00  0.00    +0.000 C 
ATOM     28  C   UNL     1      -2.686  12.347  22.427  0.00  0.00    +0.000 C 
ATOM     29  S   UNL     1      -3.275  13.330  21.067  0.00  0.00    +0.000 S 
ATOM     30  O   UNL     1      -3.617  14.644  21.579  0.00  0.00    +0.000 OA
ATOM     31  O   UNL     1      -4.215  12.536  20.305  0.00  0.00    +0.000 OA
ATOM     32  C   UNL     1      -1.738  13.446  20.171  0.00  0.00    +0.000 C 
ENDBRANCH  24  26
ENDBRANCH  21  22
ENDBRANCH  20  21
ENDBRANCH   2  20
TORSDOF 9
ENDMDL
MODEL 3
REMARK VINA RESULT:      -7.6      1.694      1.977
REMARK  Name = 
REMARK  11 active torsions:
REMARK  status: ('A' for Active; 'I' for Inactive)
REMARK    1  A    between atoms: C_1  and  C_2
REMARK    2  A    between atoms: C_2  and  C_3
REMARK    3  A    between atoms: C_3  and  C_4
REMARK    4  A    between atoms: C_4  and  N_5
REMARK    5  A    between atoms: C_6  and  S_7
REMARK    6  A    between atoms: S_7  and  C_8
REMARK    7  A    between atoms: C_8  and  C_9
REMARK    8  A    between atoms: N_11  and  C_12
REMARK    9  A    between atoms: N_11  and  C_13
REMARK   10  A    between atoms: C_23  and  S_24
REMARK   11  A    between atoms: S_24  and  N_25
REMARK                            x       y       z     vdW  Elec       q    Type
REMARK                         _______ _______ _______ _____ _____    ______ ____
ROOT
ATOM      1  N   UNL     1       2.666   5.850  19.583  0.00  0.00    +0.000 N 
ATOM      2  C   UNL     1       2.460   7.194  19.310  0.00  0.00    +0.000 A 
ATOM      3  N   UNL     1       3.192   7.586  18.284  0.00  0.00    +0.000 NA
ATOM      4  C   UNL     1       3.880   6.467  17.867  0.00  0.00    +0.000 A 
ATOM      5  C   UNL     1       4.816   6.324  16.832  0.00  0.00    +0.000 A 
ATOM      6  C   UNL     1       5.365   5.046  16.617  0.00  0.00    +0.000 A 
ATOM      7  C   UNL     1       5.001   3.939  17.379  0.00  0.00    +0.000 A 
ATOM      8  C   UNL     1       4.065   4.073  18.396  0.00  0.00    +0.000 A 
ATOM      9  C   UNL     1       3.541   5.354  18.632  0.00  0.00    +0.000 A 
ENDROOT
BRANCH   6  10
ATOM     10  S   UNL     1       6.585   4.818  15.350  0.00  0.00    +0.000 S 
ATOM     11  O   UNL     1       6.398   5.813  14.335  0.00  0.00    +0.000 OA
ATOM     12  O   UNL     1       7.854   4.567  15.992  0.00  0.00    +0.000 OA
BRANCH  10  13
ATOM     13  N   UNL     1       6.032   3.356  14.756  0.00  0.00    +0.000 NA
ATOM     14  H   UNL     1       5.188   3.008  15.204  0.00  0.00    +0.000 HD
ATOM     15  H   UNL     1       6.156   3.225  13.755  0.00  0.00    +0.000 HD
ENDBRANCH  10  13
ENDBRANCH   6  10
BRANCH   1  16
ATOM     16  C   UNL     1       2.208   5.026  20.688  0.00  0.00    +0.000 C 
BRANCH  16  17
ATOM     17  C   UNL     1       0.878   4.334  20.448  0.00  0.00    +0.000 C 
BRANCH  17  19
ATOM     18  C   UNL     1       0.855   2.435  18.833  0.00  0.00    +0.000 C 
ATOM     19  C   UNL     1       1.062   2.829  20.283  0.00  0.00    +0.000 C 
ENDBRANCH  17  19
ENDBRANCH  16  17
ENDBRANCH   1  16
BRANCH   2  20
ATOM     20  S   UNL     1       1.439   8.277  20.241  0.00  0.00    +0.000 S 
BRANCH  20  21
ATOM     21  C   UNL     1       0.954   9.565  19.024  0.00  0.00    +0.000 C 
BRANCH  21  22
ATOM     22  C   UNL     1      -0.289  10.387  19.430  0.00  0.00    +0.000 C 
ATOM     23  O   UNL     1      -1.419  10.146  18.968  0.00  0.00    +0.000 OA
ATOM     24  N   UNL     1      -0.103  11.486  20.309  0.00  0.00    +0.000 N 
ATOM     25  C   UNL     1       1.204  11.865  20.852  0.00  0.00    +0.000 C 
BRANCH  24  26
ATOM     26  C   UNL     1      -1.314  12.177  20.840  0.00  0.00    +0.000 C 
ATOM     27  C   UNL     1      -1.819  13.394  20.036  0.00  0.00    +0.000 C 
ATOM     28  C   UNL     1      -1.089  14.636  20.523  0.00  0.00    +0.000 C 
ATOM     29  S   UNL     1      -0.874  14.388  22.270  0.00  0.00    +0.000 S 
ATOM     30  O   UNL     1      -1.977  15.036  22.954  0.00  0.00    +0.000 OA
ATOM     31  O   UNL     1       0.506  14.670  22.604  0.00  0.00    +0.000 OA
ATOM     32  C   UNL     1      -1.138  12.625  22.297  0.00  0.00    +0.000 C 
ENDBRANCH  24  26
ENDBRANCH  21  22
ENDBRANCH  20  21
ENDBRANCH   2  20
TORSDOF 9
ENDMDL
MODEL 4
REMARK VINA RESULT:      -7.5      2.173      2.605
REMARK  Name = 
REMARK  11 active torsions:
REMARK  status: ('A' for Active; 'I' for Inactive)
REMARK    1  A    between atoms: C_1  and  C_2
REMARK    2  A    between atoms: C_2  and  C_3
REMARK    3  A    between atoms: C_3  and  C_4
REMARK    4  A    between atoms: C_4  and  N_5
REMARK    5  A    between atoms: C_6  and  S_7
REMARK    6  A    between atoms: S_7  and  C_8
REMARK    7  A    between atoms: C_8  and  C_9
REMARK    8  A    between atoms: N_11  and  C_12
REMARK    9  A    between atoms: N_11  and  C_13
REMARK   10  A    between atoms: C_23  and  S_24
REMARK   11  A    between atoms: S_24  and  N_25
REMARK                            x       y       z     vdW  Elec       q    Type
REMARK                         _______ _______ _______ _____ _____    ______ ____
ROOT
ATOM      1  N   UNL     1       2.550   6.100  19.624  0.00  0.00    +0.000 N 
ATOM      2  C   UNL     1       2.361   7.408  19.203  0.00  0.00    +0.000 A 
ATOM      3  N   UNL     1       3.189   7.713  18.221  0.00  0.00    +0.000 NA
ATOM      4  C   UNL     1       3.925   6.573  17.985  0.00  0.00    +0.000 A 
ATOM      5  C   UNL     1       4.962   6.349  17.068  0.00  0.00    +0.000 A 
ATOM      6  C   UNL     1       5.542   5.067  17.034  0.00  0.00    +0.000 A 
ATOM      7  C   UNL     1       5.114   4.031  17.859  0.00  0.00    +0.000 A 
ATOM      8  C   UNL     1       4.078   4.244  18.760  0.00  0.00    +0.000 A 
ATOM      9  C   UNL     1       3.522   5.531  18.817  0.00  0.00    +0.000 A 
ENDROOT
BRANCH   6  10
ATOM     10  S   UNL     1       6.886   4.741  15.922  0.00  0.00    +0.000 S 
ATOM     11  O   UNL     1       6.500   3.702  15.013  0.00  0.00    +0.000 OA
ATOM     12  O   UNL     1       7.429   6.009  15.495  0.00  0.00    +0.000 OA
BRANCH  10  13
ATOM     13  N   UNL     1       7.954   4.092  17.034  0.00  0.00    +0.000 NA
ATOM     14  H   UNL     1       8.182   4.706  17.812  0.00  0.00    +0.000 HD
ATOM     15  H   UNL     1       7.846   3.095  17.201  0.00  0.00    +0.000 HD
ENDBRANCH  10  13
ENDBRANCH   6  10
BRANCH   1  16
ATOM     16  C   UNL     1       1.991   5.377  20.753  0.00  0.00    +0.000 C 
BRANCH  16  17
ATOM     17  C   UNL     1       0.801   4.499  20.410  0.00  0.00    +0.000 C 
BRANCH  17  19
ATOM     18  C   UNL     1       0.896   2.410  19.053  0.00  0.00    +0.000 C 
ATOM     19  C   UNL     1       1.187   3.023  20.410  0.00  0.00    +0.000 C 
ENDBRANCH  17  19
ENDBRANCH  16  17
ENDBRANCH   1  16
BRANCH   2  20
ATOM     20  S   UNL     1       1.242   8.555  19.917  0.00  0.00    +0.000 S 
BRANCH  20  21
ATOM     21  C   UNL     1       0.772   9.635  18.508  0.00  0.00    +0.000 C 
BRANCH  21  22
ATOM     22  C   UNL     1       1.430  11.032  18.530  0.00  0.00    +0.000 C 
ATOM     23  O   UNL     1       2.537  11.249  18.005  0.00  0.00    +0.000 OA
ATOM     24  N   UNL     1       0.764  12.071  19.233  0.00  0.00    +0.000 N 
ATOM     25  C   UNL     1      -0.514  11.880  19.922  0.00  0.00    +0.000 C 
BRANCH  24  26
ATOM     26  C   UNL     1       1.302  13.458  19.116  0.00  0.00    +0.000 C 
ATOM     27  C   UNL     1       2.349  13.880  20.170  0.00  0.00    +0.000 C 
ATOM     28  C   UNL     1       1.621  14.432  21.385  0.00  0.00    +0.000 C 
ATOM     29  S   UNL     1       0.205  15.283  20.727  0.00  0.00    +0.000 S 
ATOM     30  O   UNL     1       0.555  16.683  20.574  0.00  0.00    +0.000 OA
ATOM     31  O   UNL     1      -0.965  14.862  21.468  0.00  0.00    +0.000 OA
ATOM     32  C   UNL     1       0.191  14.517  19.117  0.00  0.00    +0.000 C 
ENDBRANCH  24  26
ENDBRANCH  21  22
ENDBRANCH  20  21
ENDBRANCH   2  20
TORSDOF 9
ENDMDL
MODEL 5
REMARK VINA RESULT:      -7.4      2.023      2.451
REMARK  Name = 
REMARK  11 active torsions:
REMARK  status: ('A' for Active; 'I' for Inactive)
REMARK    1  A    between atoms: C_1  and  C_2
REMARK    2  A    between atoms: C_2  and  C_3
REMARK    3  A    between atoms: C_3  and  C_4
REMARK    4  A    between atoms: C_4  and  N_5
REMARK    5  A    between atoms: C_6  and  S_7
REMARK    6  A    between atoms: S_7  and  C_8
REMARK    7  A    between atoms: C_8  and  C_9
REMARK    8  A    between atoms: N_11  and  C_12
REMARK    9  A    between atoms: N_11  and  C_13
REMARK   10  A    between atoms: C_23  and  S_24
REMARK   11  A    between atoms: S_24  and  N_25
REMARK                            x       y       z     vdW  Elec       q    Type
REMARK                         _______ _______ _______ _____ _____    ______ ____
ROOT
ATOM      1  N   UNL     1       2.547   6.079  19.513  0.00  0.00    +0.000 N 
ATOM      2  C   UNL     1       2.359   7.400  19.135  0.00  0.00    +0.000 A 
ATOM      3  N   UNL     1       3.149   7.720  18.128  0.00  0.00    +0.000 NA
ATOM      4  C   UNL     1       3.859   6.578  17.831  0.00  0.00    +0.000 A 
ATOM      5  C   UNL     1       4.853   6.365  16.864  0.00  0.00    +0.000 A 
ATOM      6  C   UNL     1       5.412   5.077  16.772  0.00  0.00    +0.000 A 
ATOM      7  C   UNL     1       5.004   4.025  17.587  0.00  0.00    +0.000 A 
ATOM      8  C   UNL     1       4.010   4.227  18.536  0.00  0.00    +0.000 A 
ATOM      9  C   UNL     1       3.475   5.519  18.651  0.00  0.00    +0.000 A 
ENDROOT
BRANCH   6  10
ATOM     10  S   UNL     1       6.704   4.764  15.597  0.00  0.00    +0.000 S 
ATOM     11  O   UNL     1       6.639   5.748  14.557  0.00  0.00    +0.000 OA
ATOM     12  O   UNL     1       7.910   4.461  16.330  0.00  0.00    +0.000 OA
BRANCH  10  13
ATOM     13  N   UNL     1       6.118   3.321  14.987  0.00  0.00    +0.000 NA
ATOM     14  H   UNL     1       6.530   3.036  14.102  0.00  0.00    +0.000 HD
ATOM     15  H   UNL     1       5.901   2.615  15.686  0.00  0.00    +0.000 HD
ENDBRANCH  10  13
ENDBRANCH   6  10
BRANCH   1  16
ATOM     16  C   UNL     1       2.025   5.332  20.645  0.00  0.00    +0.000 C 
BRANCH  16  17
ATOM     17  C   UNL     1       0.863   4.414  20.310  0.00  0.00    +0.000 C 
BRANCH  17  19
ATOM     18  C   UNL     1       2.273   2.875  21.674  0.00  0.00    +0.000 C 
ATOM     19  C   UNL     1       1.216   2.956  20.589  0.00  0.00    +0.000 C 
ENDBRANCH  17  19
ENDBRANCH  16  17
ENDBRANCH   1  16
BRANCH   2  20
ATOM     20  S   UNL     1       1.287   8.542  19.926  0.00  0.00    +0.000 S 
BRANCH  20  21
ATOM     21  C   UNL     1       0.806   9.690  18.575  0.00  0.00    +0.000 C 
BRANCH  21  22
ATOM     22  C   UNL     1       1.323  11.135  18.755  0.00  0.00    +0.000 C 
ATOM     23  O   UNL     1       2.352  11.542  18.187  0.00  0.00    +0.000 OA
ATOM     24  N   UNL     1       0.622  11.987  19.648  0.00  0.00    +0.000 N 
ATOM     25  C   UNL     1      -0.566  11.563  20.394  0.00  0.00    +0.000 C 
BRANCH  24  26
ATOM     26  C   UNL     1       1.008  13.427  19.698  0.00  0.00    +0.000 C 
ATOM     27  C   UNL     1       1.386  13.990  21.084  0.00  0.00    +0.000 C 
ATOM     28  C   UNL     1       0.119  14.468  21.777  0.00  0.00    +0.000 C 
ATOM     29  S   UNL     1      -0.896  15.129  20.477  0.00  0.00    +0.000 S 
ATOM     30  O   UNL     1      -0.659  16.558  20.405  0.00  0.00    +0.000 OA
ATOM     31  O   UNL     1      -2.228  14.579  20.614  0.00  0.00    +0.000 OA
ATOM     32  C   UNL     1      -0.073  14.342  19.105  0.00  0.00    +0.000 C 
ENDBRANCH  24  26
ENDBRANCH  21  22
ENDBRANCH  20  21
ENDBRANCH   2  20
TORSDOF 9
ENDMDL
MODEL 6
REMARK VINA RESULT:      -7.3      1.236      1.332
REMARK  Name = 
REMARK  11 active torsions:
REMARK  status: ('A' for Active; 'I' for Inactive)
REMARK    1  A    between atoms: C_1  and  C_2
REMARK    2  A    between atoms: C_2  and  C_3
REMARK    3  A    between atoms: C_3  and  C_4
REMARK    4  A    between atoms: C_4  and  N_5
REMARK    5  A    between atoms: C_6  and  S_7
REMARK    6  A    between atoms: S_7  and  C_8
REMARK    7  A    between atoms: C_8  and  C_9
REMARK    8  A    between atoms: N_11  and  C_12
REMARK    9  A    between atoms: N_11  and  C_13
REMARK   10  A    between atoms: C_23  and  S_24
REMARK   11  A    between atoms: S_24  and  N_25
REMARK                            x       y       z     vdW  Elec       q    Type
REMARK                         _______ _______ _______ _____ _____    ______ ____
ROOT
ATOM      1  N   UNL     1       2.673   5.308  20.314  0.00  0.00    +0.000 N 
ATOM      2  C   UNL     1       2.240   6.587  19.996  0.00  0.00    +0.000 A 
ATOM      3  N   UNL     1       2.922   7.078  18.979  0.00  0.00    +0.000 NA
ATOM      4  C   UNL     1       3.812   6.092  18.614  0.00  0.00    +0.000 A 
ATOM      5  C   UNL     1       4.791   6.095  17.610  0.00  0.00    +0.000 A 
ATOM      6  C   UNL     1       5.566   4.931  17.447  0.00  0.00    +0.000 A 
ATOM      7  C   UNL     1       5.382   3.796  18.231  0.00  0.00    +0.000 A 
ATOM      8  C   UNL     1       4.404   3.784  19.217  0.00  0.00    +0.000 A 
ATOM      9  C   UNL     1       3.653   4.954  19.401  0.00  0.00    +0.000 A 
ENDROOT
BRANCH   6  10
ATOM     10  S   UNL     1       6.847   4.895  16.221  0.00  0.00    +0.000 S 
ATOM     11  O   UNL     1       6.454   4.017  15.159  0.00  0.00    +0.000 OA
ATOM     12  O   UNL     1       7.297   6.250  16.005  0.00  0.00    +0.000 OA
BRANCH  10  13
ATOM     13  N   UNL     1       8.018   4.122  17.131  0.00  0.00    +0.000 NA
ATOM     14  H   UNL     1       8.047   4.399  18.109  0.00  0.00    +0.000 HD
ATOM     15  H   UNL     1       8.181   3.149  16.884  0.00  0.00    +0.000 HD
ENDBRANCH  10  13
ENDBRANCH   6  10
BRANCH   1  16
ATOM     16  C   UNL     1       2.335   4.442  21.430  0.00  0.00    +0.000 C 
BRANCH  16  17
ATOM     17  C   UNL     1       1.490   3.237  21.056  0.00  0.00    +0.000 C 
BRANCH  17  19
ATOM     18  C   UNL     1       0.857   2.432  18.783  0.00  0.00    +0.000 C 
ATOM     19  C   UNL     1       0.645   3.520  19.818  0.00  0.00    +0.000 C 
ENDBRANCH  17  19
ENDBRANCH  16  17
ENDBRANCH   1  16
BRANCH   2  20
ATOM     20  S   UNL     1       1.013   7.491  20.867  0.00  0.00    +0.000 S 
BRANCH  20  21
ATOM     21  C   UNL     1       1.064   9.152  20.084  0.00  0.00    +0.000 C 
BRANCH  21  22
ATOM     22  C   UNL     1       0.739  10.317  21.044  0.00  0.00    +0.000 C 
ATOM     23  O   UNL     1       0.715  10.168  22.279  0.00  0.00    +0.000 OA
ATOM     24  N   UNL     1       0.398  11.573  20.476  0.00  0.00    +0.000 N 
ATOM     25  C   UNL     1       0.351  11.812  19.032  0.00  0.00    +0.000 C 
BRANCH  24  26
ATOM     26  C   UNL     1       0.251  12.743  21.389  0.00  0.00    +0.000 C 
ATOM     27  C   UNL     1      -1.189  13.120  21.797  0.00  0.00    +0.000 C 
ATOM     28  C   UNL     1      -1.760  14.065  20.750  0.00  0.00    +0.000 C 
ATOM     29  S   UNL     1      -0.384  15.065  20.234  0.00  0.00    +0.000 S 
ATOM     30  O   UNL     1      -0.394  16.283  21.021  0.00  0.00    +0.000 OA
ATOM     31  O   UNL     1      -0.355  15.088  18.786  0.00  0.00    +0.000 OA
ATOM     32  C   UNL     1       0.921  14.007  20.832  0.00  0.00    +0.000 C 
ENDBRANCH  24  26
ENDBRANCH  21  22
ENDBRANCH  20  21
ENDBRANCH   2  20
TORSDOF 9
ENDMDL
MODEL 7
REMARK VINA RESULT:      -7.3      2.794      3.144
REMARK  Name = 
REMARK  11 active torsions:
REMARK  status: ('A' for Active; 'I' for Inactive)
REMARK    1  A    between atoms: C_1  and  C_2
REMARK    2  A    between atoms: C_2  and  C_3
REMARK    3  A    between atoms: C_3  and  C_4
REMARK    4  A    between atoms: C_4  and  N_5
REMARK    5  A    between atoms: C_6  and  S_7
REMARK    6  A    between atoms: S_7  and  C_8
REMARK    7  A    between atoms: C_8  and  C_9
REMARK    8  A    between atoms: N_11  and  C_12
REMARK    9  A    between atoms: N_11  and  C_13
REMARK   10  A    between atoms: C_23  and  S_24
REMARK   11  A    between atoms: S_24  and  N_25
REMARK                            x       y       z     vdW  Elec       q    Type
REMARK                         _______ _______ _______ _____ _____    ______ ____
ROOT
ATOM      1  N   UNL     1       2.273   5.911  19.160  0.00  0.00    +0.000 N 
ATOM      2  C   UNL     1       2.314   7.293  19.051  0.00  0.00    +0.000 A 
ATOM      3  N   UNL     1       3.261   7.674  18.216  0.00  0.00    +0.000 NA
ATOM      4  C   UNL     1       3.843   6.513  17.756  0.00  0.00    +0.000 A 
ATOM      5  C   UNL     1       4.914   6.338  16.868  0.00  0.00    +0.000 A 
ATOM      6  C   UNL     1       5.303   5.020  16.562  0.00  0.00    +0.000 A 
ATOM      7  C   UNL     1       4.657   3.908  17.095  0.00  0.00    +0.000 A 
ATOM      8  C   UNL     1       3.586   4.077  17.963  0.00  0.00    +0.000 A 
ATOM      9  C   UNL     1       3.220   5.390  18.294  0.00  0.00    +0.000 A 
ENDROOT
BRANCH   6  10
ATOM     10  S   UNL     1       6.680   4.741  15.479  0.00  0.00    +0.000 S 
ATOM     11  O   UNL     1       6.651   5.713  14.426  0.00  0.00    +0.000 OA
ATOM     12  O   UNL     1       7.845   4.486  16.293  0.00  0.00    +0.000 OA
BRANCH  10  13
ATOM     13  N   UNL     1       6.184   3.274  14.848  0.00  0.00    +0.000 NA
ATOM     14  H   UNL     1       5.210   3.243  14.559  0.00  0.00    +0.000 HD
ATOM     15  H   UNL     1       6.884   2.787  14.292  0.00  0.00    +0.000 HD
ENDBRANCH  10  13
ENDBRANCH   6  10
BRANCH   1  16
ATOM     16  C   UNL     1       1.516   5.052  20.054  0.00  0.00    +0.000 C 
BRANCH  16  17
ATOM     17  C   UNL     1       2.275   4.609  21.292  0.00  0.00    +0.000 C 
BRANCH  17  19
ATOM     18  C   UNL     1       1.236   2.504  20.453  0.00  0.00    +0.000 C 
ATOM     19  C   UNL     1       2.132   3.107  21.517  0.00  0.00    +0.000 C 
ENDBRANCH  17  19
ENDBRANCH  16  17
ENDBRANCH   1  16
BRANCH   2  20
ATOM     20  S   UNL     1       1.313   8.415  19.957  0.00  0.00    +0.000 S 
BRANCH  20  21
ATOM     21  C   UNL     1       1.335   9.939  18.932  0.00  0.00    +0.000 C 
BRANCH  21  22
ATOM     22  C   UNL     1       1.045  11.237  19.715  0.00  0.00    +0.000 C 
ATOM     23  O   UNL     1       0.244  11.269  20.667  0.00  0.00    +0.000 OA
ATOM     24  N   UNL     1       1.673  12.434  19.279  0.00  0.00    +0.000 N 
ATOM     25  C   UNL     1       2.585  12.487  18.134  0.00  0.00    +0.000 C 
BRANCH  24  26
ATOM     26  C   UNL     1       1.535  13.652  20.128  0.00  0.00    +0.000 C 
ATOM     27  C   UNL     1       0.284  14.523  19.882  0.00  0.00    +0.000 C 
ATOM     28  C   UNL     1       0.594  15.520  18.776  0.00  0.00    +0.000 C 
ATOM     29  S   UNL     1       2.301  15.954  19.014  0.00  0.00    +0.000 S 
ATOM     30  O   UNL     1       2.349  17.163  19.815  0.00  0.00    +0.000 OA
ATOM     31  O   UNL     1       2.979  15.854  17.738  0.00  0.00    +0.000 OA
ATOM     32  C   UNL     1       2.763  14.569  20.037  0.00  0.00    +0.000 C 
ENDBRANCH  24  26
ENDBRANCH  21  22
ENDBRANCH  20  21
ENDBRANCH   2  20
TORSDOF 9
ENDMDL
MODEL 8
REMARK VINA RESULT:      -7.3      1.749      2.345
REMARK  Name = 
REMARK  11 active torsions:
REMARK  status: ('A' for Active; 'I' for Inactive)
REMARK    1  A    between atoms: C_1  and  C_2
REMARK    2  A    between atoms: C_2  and  C_3
REMARK    3  A    between atoms: C_3  and  C_4
REMARK    4  A    between atoms: C_4  and  N_5
REMARK    5  A    between atoms: C_6  and  S_7
REMARK    6  A    between atoms: S_7  and  C_8
REMARK    7  A    between atoms: C_8  and  C_9
REMARK    8  A    between atoms: N_11  and  C_12
REMARK    9  A    between atoms: N_11  and  C_13
REMARK   10  A    between atoms: C_23  and  S_24
REMARK   11  A    between atoms: S_24  and  N_25
REMARK                            x       y       z     vdW  Elec       q    Type
REMARK                         _______ _______ _______ _____ _____    ______ ____
ROOT
ATOM      1  N   UNL     1       2.030   4.753  18.732  0.00  0.00    +0.000 N 
ATOM      2  C   UNL     1       2.205   5.849  19.564  0.00  0.00    +0.000 A 
ATOM      3  N   UNL     1       3.400   6.383  19.398  0.00  0.00    +0.000 NA
ATOM      4  C   UNL     1       4.015   5.627  18.424  0.00  0.00    +0.000 A 
ATOM      5  C   UNL     1       5.304   5.740  17.883  0.00  0.00    +0.000 A 
ATOM      6  C   UNL     1       5.675   4.826  16.878  0.00  0.00    +0.000 A 
ATOM      7  C   UNL     1       4.810   3.842  16.407  0.00  0.00    +0.000 A 
ATOM      8  C   UNL     1       3.528   3.736  16.931  0.00  0.00    +0.000 A 
ATOM      9  C   UNL     1       3.169   4.625  17.955  0.00  0.00    +0.000 A 
ENDROOT
BRANCH   6  10
ATOM     10  S   UNL     1       7.308   4.896  16.189  0.00  0.00    +0.000 S 
ATOM     11  O   UNL     1       8.212   4.197  17.056  0.00  0.00    +0.000 OA
ATOM     12  O   UNL     1       7.206   4.636  14.772  0.00  0.00    +0.000 OA
BRANCH  10  13
ATOM     13  N   UNL     1       7.569   6.537  16.376  0.00  0.00    +0.000 NA
ATOM     14  H   UNL     1       8.076   6.976  15.611  0.00  0.00    +0.000 HD
ATOM     15  H   UNL     1       6.812   7.043  16.829  0.00  0.00    +0.000 HD
ENDBRANCH  10  13
ENDBRANCH   6  10
BRANCH   1  16
ATOM     16  C   UNL     1       0.960   3.773  18.667  0.00  0.00    +0.000 C 
BRANCH  16  17
ATOM     17  C   UNL     1       0.747   2.988  19.949  0.00  0.00    +0.000 C 
BRANCH  17  19
ATOM     18  C   UNL     1       2.426   2.766  21.779  0.00  0.00    +0.000 C 
ATOM     19  C   UNL     1       2.034   2.297  20.391  0.00  0.00    +0.000 C 
ENDBRANCH  17  19
ENDBRANCH  16  17
ENDBRANCH   1  16
BRANCH   2  20
ATOM     20  S   UNL     1       1.045   6.420  20.752  0.00  0.00    +0.000 S 
BRANCH  20  21
ATOM     21  C   UNL     1       1.532   8.170  21.024  0.00  0.00    +0.000 C 
BRANCH  21  22
ATOM     22  C   UNL     1       0.344   9.149  21.146  0.00  0.00    +0.000 C 
ATOM     23  O   UNL     1      -0.415   9.145  22.131  0.00  0.00    +0.000 OA
ATOM     24  N   UNL     1       0.092  10.029  20.060  0.00  0.00    +0.000 N 
ATOM     25  C   UNL     1       0.909  10.056  18.844  0.00  0.00    +0.000 C 
BRANCH  24  26
ATOM     26  C   UNL     1      -0.941  11.090  20.239  0.00  0.00    +0.000 C 
ATOM     27  C   UNL     1      -1.729  11.501  18.977  0.00  0.00    +0.000 C 
ATOM     28  C   UNL     1      -0.957  12.594  18.254  0.00  0.00    +0.000 C 
ATOM     29  S   UNL     1      -0.216  13.565  19.546  0.00  0.00    +0.000 S 
ATOM     30  O   UNL     1      -1.099  14.681  19.830  0.00  0.00    +0.000 OA
ATOM     31  O   UNL     1       1.183  13.756  19.227  0.00  0.00    +0.000 OA
ATOM     32  C   UNL     1      -0.363  12.369  20.860  0.00  0.00    +0.000 C 
ENDBRANCH  24  26
ENDBRANCH  21  22
ENDBRANCH  20  21
ENDBRANCH   2  20
TORSDOF 9
ENDMDL
MODEL 9
REMARK VINA RESULT:      -7.3      1.575      2.262
REMARK  Name = 
REMARK  11 active torsions:
REMARK  status: ('A' for Active; 'I' for Inactive)
REMARK    1  A    between atoms: C_1  and  C_2
REMARK    2  A    between atoms: C_2  and  C_3
REMARK    3  A    between atoms: C_3  and  C_4
REMARK    4  A    between atoms: C_4  and  N_5
REMARK    5  A    between atoms: C_6  and  S_7
REMARK    6  A    between atoms: S_7  and  C_8
REMARK    7  A    between atoms: C_8  and  C_9
REMARK    8  A    between atoms: N_11  and  C_12
REMARK    9  A    between atoms: N_11  and  C_13
REMARK   10  A    between atoms: C_23  and  S_24
REMARK   11  A    between atoms: S_24  and  N_25
REMARK                            x       y       z     vdW  Elec       q    Type
REMARK                         _______ _______ _______ _____ _____    ______ ____
ROOT
ATOM      1  N   UNL     1       2.052   4.736  18.746  0.00  0.00    +0.000 N 
ATOM      2  C   UNL     1       2.159   5.857  19.557  0.00  0.00    +0.000 A 
ATOM      3  N   UNL     1       3.321   6.456  19.384  0.00  0.00    +0.000 NA
ATOM      4  C   UNL     1       3.984   5.720  18.426  0.00  0.00    +0.000 A 
ATOM      5  C   UNL     1       5.266   5.897  17.886  0.00  0.00    +0.000 A 
ATOM      6  C   UNL     1       5.693   4.988  16.901  0.00  0.00    +0.000 A 
ATOM      7  C   UNL     1       4.890   3.945  16.447  0.00  0.00    +0.000 A 
ATOM      8  C   UNL     1       3.615   3.774  16.969  0.00  0.00    +0.000 A 
ATOM      9  C   UNL     1       3.200   4.661  17.975  0.00  0.00    +0.000 A 
ENDROOT
BRANCH   6  10
ATOM     10  S   UNL     1       7.322   5.139  16.214  0.00  0.00    +0.000 S 
ATOM     11  O   UNL     1       8.206   4.246  16.904  0.00  0.00    +0.000 OA
ATOM     12  O   UNL     1       7.199   5.182  14.776  0.00  0.00    +0.000 OA
BRANCH  10  13
ATOM     13  N   UNL     1       7.648   6.696  16.731  0.00  0.00    +0.000 NA
ATOM     14  H   UNL     1       6.989   7.064  17.413  0.00  0.00    +0.000 HD
ATOM     15  H   UNL     1       8.635   6.921  16.822  0.00  0.00    +0.000 HD
ENDBRANCH  10  13
ENDBRANCH   6  10
BRANCH   1  16
ATOM     16  C   UNL     1       1.042   3.693  18.697  0.00  0.00    +0.000 C 
BRANCH  16  17
ATOM     17  C   UNL     1       1.375   2.457  19.513  0.00  0.00    +0.000 C 
BRANCH  17  19
ATOM     18  C   UNL     1       2.554   2.759  21.689  0.00  0.00    +0.000 C 
ATOM     19  C   UNL     1       1.201   2.719  21.006  0.00  0.00    +0.000 C 
ENDBRANCH  17  19
ENDBRANCH  16  17
ENDBRANCH   1  16
BRANCH   2  20
ATOM     20  S   UNL     1       0.964   6.382  20.730  0.00  0.00    +0.000 S 
BRANCH  20  21
ATOM     21  C   UNL     1       1.556   8.045  21.235  0.00  0.00    +0.000 C 
BRANCH  21  22
ATOM     22  C   UNL     1       0.887   9.215  20.481  0.00  0.00    +0.000 C 
ATOM     23  O   UNL     1       1.049   9.392  19.260  0.00  0.00    +0.000 OA
ATOM     24  N   UNL     1       0.119  10.141  21.234  0.00  0.00    +0.000 N 
ATOM     25  C   UNL     1      -0.074  10.030  22.682  0.00  0.00    +0.000 C 
BRANCH  24  26
ATOM     26  C   UNL     1      -0.668  11.170  20.495  0.00  0.00    +0.000 C 
ATOM     27  C   UNL     1       0.136  12.147  19.611  0.00  0.00    +0.000 C 
ATOM     28  C   UNL     1       0.578  13.325  20.466  0.00  0.00    +0.000 C 
ATOM     29  S   UNL     1      -0.762  13.598  21.602  0.00  0.00    +0.000 S 
ATOM     30  O   UNL     1      -1.628  14.615  21.037  0.00  0.00    +0.000 OA
ATOM     31  O   UNL     1      -0.211  13.715  22.936  0.00  0.00    +0.000 OA
ATOM     32  C   UNL     1      -1.553  12.010  21.427  0.00  0.00    +0.000 C 
ENDBRANCH  24  26
ENDBRANCH  21  22
ENDBRANCH  20  21
ENDBRANCH   2  20
TORSDOF 9
ENDMDL
