MODEL 1
REMARK VINA RESULT:      -7.5      0.000      0.000
REMARK  Name = 
REMARK  11 active torsions:
REMARK  status: ('A' for Active; 'I' for Inactive)
REMARK    1  A    between atoms: C_1  and  C_2
REMARK    2  A    between atoms: C_2  and  C_3
REMARK    3  A    between atoms: C_2  and  C_4
REMARK    4  A    between atoms: C_4  and  O_5
REMARK    5  A    between atoms: O_5  and  C_6
REMARK    6  A    between atoms: N_8  and  C_9
REMARK    7  A    between atoms: C_13  and  N_14
REMARK    8  A    between atoms: N_14  and  C_15
REMARK    9  A    between atoms: C_15  and  C_16
REMARK   10  A    between atoms: C_19  and  C_20
REMARK   11  A    between atoms: N_23  and  C_24
REMARK                            x       y       z     vdW  Elec       q    Type
REMARK                         _______ _______ _______ _____ _____    ______ ____
ROOT
ATOM      1  C   UNL     1       6.353   4.346  16.989  0.00  0.00    +0.000 A 
ATOM      2  C   UNL     1       7.611   4.676  17.495  0.00  0.00    +0.000 A 
ATOM      3  C   UNL     1       7.730   5.278  18.744  0.00  0.00    +0.000 A 
ATOM      4  C   UNL     1       6.590   5.558  19.494  0.00  0.00    +0.000 A 
ATOM      5  C   UNL     1       5.308   5.296  18.992  0.00  0.00    +0.000 A 
ATOM      6  C   UNL     1       5.207   4.671  17.738  0.00  0.00    +0.000 A 
ENDROOT
BRANCH   1   9
ATOM      7  C   UNL     1       6.455   4.245  14.503  0.00  0.00    +0.000 C 
ATOM      8  O   UNL     1       7.068   5.268  14.241  0.00  0.00    +0.000 OA
ATOM      9  N   UNL     1       6.176   3.722  15.737  0.00  0.00    +0.000 N 
ATOM     10  H   UNL     1       5.721   2.821  15.712  0.00  0.00    +0.000 HD
BRANCH   7  11
ATOM     11  O   UNL     1       5.851   3.471  13.559  0.00  0.00    +0.000 OA
BRANCH  11  12
ATOM     12  C   UNL     1       6.483   3.535  12.273  0.00  0.00    +0.000 C 
BRANCH  12  14
ATOM     13  C   UNL     1       6.010   1.254  11.270  0.00  0.00    +0.000 C 
ATOM     14  C   UNL     1       5.752   2.757  11.174  0.00  0.00    +0.000 C 
ATOM     15  C   UNL     1       4.251   3.042  11.291  0.00  0.00    +0.000 C 
ENDBRANCH  12  14
ENDBRANCH  11  12
ENDBRANCH   7  11
ENDBRANCH   1   9
BRANCH   5  16
ATOM     16  N   UNL     1       4.209   5.542  19.834  0.00  0.00    +0.000 N 
ATOM     17  H   UNL     1       4.415   6.335  20.444  0.00  0.00    +0.000 HD
BRANCH  16  18
ATOM     18  C   UNL     1       2.887   5.719  19.230  0.00  0.00    +0.000 C 
BRANCH  18  19
ATOM     19  C   UNL     1       2.193   6.945  19.734  0.00  0.00    +0.000 A 
ATOM     20  N   UNL     1       1.575   7.051  20.895  0.00  0.00    +0.000 NA
ATOM     21  N   UNL     1       1.009   8.295  20.965  0.00  0.00    +0.000 NA
ATOM     22  C   UNL     1       1.272   8.934  19.843  0.00  0.00    +0.000 A 
ATOM     23  N   UNL     1       2.028   8.119  19.038  0.00  0.00    +0.000 N 
ATOM     24  C   UNL     1       2.562   8.415  17.736  0.00  0.00    +0.000 C 
BRANCH  22  25
ATOM     25  C   UNL     1       0.786  10.349  19.559  0.00  0.00    +0.000 C 
ATOM     26  C   UNL     1      -0.427  10.523  18.663  0.00  0.00    +0.000 C 
ATOM     27  C   UNL     1      -0.563  10.743  20.131  0.00  0.00    +0.000 C 
ENDBRANCH  22  25
ENDBRANCH  18  19
ENDBRANCH  16  18
ENDBRANCH   5  16
TORSDOF 8
ENDMDL
MODEL 2
REMARK VINA RESULT:      -7.2      2.339      3.828
REMARK  Name = 
REMARK  11 active torsions:
REMARK  status: ('A' for Active; 'I' for Inactive)
REMARK    1  A    between atoms: C_1  and  C_2
REMARK    2  A    between atoms: C_2  and  C_3
REMARK    3  A    between atoms: C_2  and  C_4
REMARK    4  A    between atoms: C_4  and  O_5
REMARK    5  A    between atoms: O_5  and  C_6
REMARK    6  A    between atoms: N_8  and  C_9
REMARK    7  A    between atoms: C_13  and  N_14
REMARK    8  A    between atoms: N_14  and  C_15
REMARK    9  A    between atoms: C_15  and  C_16
REMARK   10  A    between atoms: C_19  and  C_20
REMARK   11  A    between atoms: N_23  and  C_24
REMARK                            x       y       z     vdW  Elec       q    Type
REMARK                         _______ _______ _______ _____ _____    ______ ____
ROOT
ATOM      1  C   UNL     1       3.796   3.778  19.274  0.00  0.00    +0.000 A 
ATOM      2  C   UNL     1       3.017   2.653  19.550  0.00  0.00    +0.000 A 
ATOM      3  C   UNL     1       1.825   2.780  20.258  0.00  0.00    +0.000 A 
ATOM      4  C   UNL     1       1.406   4.034  20.697  0.00  0.00    +0.000 A 
ATOM      5  C   UNL     1       2.192   5.177  20.490  0.00  0.00    +0.000 A 
ATOM      6  C   UNL     1       3.382   5.033  19.759  0.00  0.00    +0.000 A 
ENDROOT
BRANCH   1   9
ATOM      7  C   UNL     1       6.149   4.425  18.776  0.00  0.00    +0.000 C 
ATOM      8  O   UNL     1       6.420   5.125  19.739  0.00  0.00    +0.000 OA
ATOM      9  N   UNL     1       5.003   3.709  18.550  0.00  0.00    +0.000 N 
ATOM     10  H   UNL     1       5.030   3.136  17.718  0.00  0.00    +0.000 HD
BRANCH   7  11
ATOM     11  O   UNL     1       6.954   4.310  17.684  0.00  0.00    +0.000 OA
BRANCH  11  12
ATOM     12  C   UNL     1       7.032   5.507  16.898  0.00  0.00    +0.000 C 
BRANCH  12  14
ATOM     13  C   UNL     1       6.094   3.949  15.130  0.00  0.00    +0.000 C 
ATOM     14  C   UNL     1       6.365   5.401  15.523  0.00  0.00    +0.000 C 
ATOM     15  C   UNL     1       5.053   6.191  15.554  0.00  0.00    +0.000 C 
ENDBRANCH  12  14
ENDBRANCH  11  12
ENDBRANCH   7  11
ENDBRANCH   1   9
BRANCH   5  16
ATOM     16  N   UNL     1       1.671   6.416  20.901  0.00  0.00    +0.000 N 
ATOM     17  H   UNL     1       1.702   6.480  21.920  0.00  0.00    +0.000 HD
BRANCH  16  18
ATOM     18  C   UNL     1       2.223   7.639  20.315  0.00  0.00    +0.000 C 
BRANCH  18  19
ATOM     19  C   UNL     1       1.199   8.724  20.198  0.00  0.00    +0.000 A 
ATOM     20  N   UNL     1       0.336   9.065  21.136  0.00  0.00    +0.000 NA
ATOM     21  N   UNL     1      -0.475  10.045  20.632  0.00  0.00    +0.000 NA
ATOM     22  C   UNL     1      -0.112  10.286  19.388  0.00  0.00    +0.000 A 
ATOM     23  N   UNL     1       0.951   9.477  19.074  0.00  0.00    +0.000 N 
ATOM     24  C   UNL     1       1.682   9.422  17.838  0.00  0.00    +0.000 C 
BRANCH  22  25
ATOM     25  C   UNL     1      -0.806  11.314  18.505  0.00  0.00    +0.000 C 
ATOM     26  C   UNL     1      -1.865  10.825  17.533  0.00  0.00    +0.000 C 
ATOM     27  C   UNL     1      -2.281  11.562  18.760  0.00  0.00    +0.000 C 
ENDBRANCH  22  25
ENDBRANCH  18  19
ENDBRANCH  16  18
ENDBRANCH   5  16
TORSDOF 8
ENDMDL
MODEL 3
REMARK VINA RESULT:      -7.1      2.935      8.657
REMARK  Name = 
REMARK  11 active torsions:
REMARK  status: ('A' for Active; 'I' for Inactive)
REMARK    1  A    between atoms: C_1  and  C_2
REMARK    2  A    between atoms: C_2  and  C_3
REMARK    3  A    between atoms: C_2  and  C_4
REMARK    4  A    between atoms: C_4  and  O_5
REMARK    5  A    between atoms: O_5  and  C_6
REMARK    6  A    between atoms: N_8  and  C_9
REMARK    7  A    between atoms: C_13  and  N_14
REMARK    8  A    between atoms: N_14  and  C_15
REMARK    9  A    between atoms: C_15  and  C_16
REMARK   10  A    between atoms: C_19  and  C_20
REMARK   11  A    between atoms: N_23  and  C_24
REMARK                            x       y       z     vdW  Elec       q    Type
REMARK                         _______ _______ _______ _____ _____    ______ ____
ROOT
ATOM      1  C   UNL     1       2.186   5.261  20.495  0.00  0.00    +0.000 A 
ATOM      2  C   UNL     1       1.284   4.205  20.634  0.00  0.00    +0.000 A 
ATOM      3  C   UNL     1       1.665   2.908  20.302  0.00  0.00    +0.000 A 
ATOM      4  C   UNL     1       2.950   2.659  19.825  0.00  0.00    +0.000 A 
ATOM      5  C   UNL     1       3.862   3.704  19.616  0.00  0.00    +0.000 A 
ATOM      6  C   UNL     1       3.468   5.003  19.974  0.00  0.00    +0.000 A 
ENDROOT
BRANCH   1   9
ATOM      7  C   UNL     1       1.903   7.688  20.011  0.00  0.00    +0.000 C 
ATOM      8  O   UNL     1       2.060   7.717  18.801  0.00  0.00    +0.000 OA
ATOM      9  N   UNL     1       1.858   6.591  20.830  0.00  0.00    +0.000 N 
ATOM     10  H   UNL     1       1.639   6.801  21.793  0.00  0.00    +0.000 HD
BRANCH   7  11
ATOM     11  O   UNL     1       1.828   8.807  20.784  0.00  0.00    +0.000 OA
BRANCH  11  12
ATOM     12  C   UNL     1       0.939   8.676  21.901  0.00  0.00    +0.000 C 
BRANCH  12  14
ATOM     13  C   UNL     1      -0.736  10.081  23.187  0.00  0.00    +0.000 C 
ATOM     14  C   UNL     1      -0.311   9.557  21.816  0.00  0.00    +0.000 C 
ATOM     15  C   UNL     1      -0.020  10.728  20.872  0.00  0.00    +0.000 C 
ENDBRANCH  12  14
ENDBRANCH  11  12
ENDBRANCH   7  11
ENDBRANCH   1   9
BRANCH   5  16
ATOM     16  N   UNL     1       5.162   3.367  19.199  0.00  0.00    +0.000 N 
ATOM     17  H   UNL     1       5.112   2.742  18.393  0.00  0.00    +0.000 HD
BRANCH  16  18
ATOM     18  C   UNL     1       6.112   4.447  18.924  0.00  0.00    +0.000 C 
BRANCH  18  19
ATOM     19  C   UNL     1       6.537   4.477  17.490  0.00  0.00    +0.000 A 
ATOM     20  N   UNL     1       7.786   4.508  17.063  0.00  0.00    +0.000 NA
ATOM     21  N   UNL     1       7.767   4.598  15.697  0.00  0.00    +0.000 NA
ATOM     22  C   UNL     1       6.511   4.635  15.301  0.00  0.00    +0.000 A 
ATOM     23  N   UNL     1       5.697   4.552  16.403  0.00  0.00    +0.000 N 
ATOM     24  C   UNL     1       4.261   4.530  16.440  0.00  0.00    +0.000 C 
BRANCH  22  25
ATOM     25  C   UNL     1       6.104   4.749  13.838  0.00  0.00    +0.000 C 
ATOM     26  C   UNL     1       6.673   3.741  12.856  0.00  0.00    +0.000 C 
ATOM     27  C   UNL     1       5.246   3.633  13.271  0.00  0.00    +0.000 C 
ENDBRANCH  22  25
ENDBRANCH  18  19
ENDBRANCH  16  18
ENDBRANCH   5  16
TORSDOF 8
ENDMDL
MODEL 4
REMARK VINA RESULT:      -7.1      2.422      4.234
REMARK  Name = 
REMARK  11 active torsions:
REMARK  status: ('A' for Active; 'I' for Inactive)
REMARK    1  A    between atoms: C_1  and  C_2
REMARK    2  A    between atoms: C_2  and  C_3
REMARK    3  A    between atoms: C_2  and  C_4
REMARK    4  A    between atoms: C_4  and  O_5
REMARK    5  A    between atoms: O_5  and  C_6
REMARK    6  A    between atoms: N_8  and  C_9
REMARK    7  A    between atoms: C_13  and  N_14
REMARK    8  A    between atoms: N_14  and  C_15
REMARK    9  A    between atoms: C_15  and  C_16
REMARK   10  A    between atoms: C_19  and  C_20
REMARK   11  A    between atoms: N_23  and  C_24
REMARK                            x       y       z     vdW  Elec       q    Type
REMARK                         _______ _______ _______ _____ _____    ______ ____
ROOT
ATOM      1  C   UNL     1       3.541   4.169  19.059  0.00  0.00    +0.000 A 
ATOM      2  C   UNL     1       2.508   3.230  19.040  0.00  0.00    +0.000 A 
ATOM      3  C   UNL     1       1.309   3.491  19.698  0.00  0.00    +0.000 A 
ATOM      4  C   UNL     1       1.137   4.692  20.381  0.00  0.00    +0.000 A 
ATOM      5  C   UNL     1       2.173   5.632  20.472  0.00  0.00    +0.000 A 
ATOM      6  C   UNL     1       3.369   5.361  19.788  0.00  0.00    +0.000 A 
ENDROOT
BRANCH   1   9
ATOM      7  C   UNL     1       5.983   4.513  18.713  0.00  0.00    +0.000 C 
ATOM      8  O   UNL     1       6.286   5.142  19.715  0.00  0.00    +0.000 OA
ATOM      9  N   UNL     1       4.769   3.963  18.398  0.00  0.00    +0.000 N 
ATOM     10  H   UNL     1       4.769   3.418  17.548  0.00  0.00    +0.000 HD
BRANCH   7  11
ATOM     11  O   UNL     1       6.828   4.326  17.662  0.00  0.00    +0.000 OA
BRANCH  11  12
ATOM     12  C   UNL     1       7.055   5.513  16.889  0.00  0.00    +0.000 C 
BRANCH  12  14
ATOM     13  C   UNL     1       6.118   4.082  15.016  0.00  0.00    +0.000 C 
ATOM     14  C   UNL     1       6.384   5.503  15.512  0.00  0.00    +0.000 C 
ATOM     15  C   UNL     1       5.069   6.283  15.604  0.00  0.00    +0.000 C 
ENDBRANCH  12  14
ENDBRANCH  11  12
ENDBRANCH   7  11
ENDBRANCH   1   9
BRANCH   5  16
ATOM     16  N   UNL     1       1.901   6.850  21.120  0.00  0.00    +0.000 N 
ATOM     17  H   UNL     1       2.695   7.111  21.706  0.00  0.00    +0.000 HD
BRANCH  16  18
ATOM     18  C   UNL     1       1.490   8.000  20.311  0.00  0.00    +0.000 C 
BRANCH  18  19
ATOM     19  C   UNL     1       0.893   9.092  21.140  0.00  0.00    +0.000 A 
ATOM     20  N   UNL     1       1.132   9.296  22.422  0.00  0.00    +0.000 NA
ATOM     21  N   UNL     1       0.353  10.341  22.839  0.00  0.00    +0.000 NA
ATOM     22  C   UNL     1      -0.366  10.757  21.816  0.00  0.00    +0.000 A 
ATOM     23  N   UNL     1      -0.049  10.000  20.717  0.00  0.00    +0.000 N 
ATOM     24  C   UNL     1      -0.569  10.122  19.382  0.00  0.00    +0.000 C 
BRANCH  22  25
ATOM     25  C   UNL     1      -1.364  11.904  21.914  0.00  0.00    +0.000 C 
ATOM     26  C   UNL     1      -2.308  11.933  23.102  0.00  0.00    +0.000 C 
ATOM     27  C   UNL     1      -1.171  12.893  23.047  0.00  0.00    +0.000 C 
ENDBRANCH  22  25
ENDBRANCH  18  19
ENDBRANCH  16  18
ENDBRANCH   5  16
TORSDOF 8
ENDMDL
MODEL 5
REMARK VINA RESULT:      -7.1      3.213      5.543
REMARK  Name = 
REMARK  11 active torsions:
REMARK  status: ('A' for Active; 'I' for Inactive)
REMARK    1  A    between atoms: C_1  and  C_2
REMARK    2  A    between atoms: C_2  and  C_3
REMARK    3  A    between atoms: C_2  and  C_4
REMARK    4  A    between atoms: C_4  and  O_5
REMARK    5  A    between atoms: O_5  and  C_6
REMARK    6  A    between atoms: N_8  and  C_9
REMARK    7  A    between atoms: C_13  and  N_14
REMARK    8  A    between atoms: N_14  and  C_15
REMARK    9  A    between atoms: C_15  and  C_16
REMARK   10  A    between atoms: C_19  and  C_20
REMARK   11  A    between atoms: N_23  and  C_24
REMARK                            x       y       z     vdW  Elec       q    Type
REMARK                         _______ _______ _______ _____ _____    ______ ____
ROOT
ATOM      1  C   UNL     1       6.003   6.248  16.801  0.00  0.00    +0.000 A 
ATOM      2  C   UNL     1       6.216   5.005  16.203  0.00  0.00    +0.000 A 
ATOM      3  C   UNL     1       5.259   4.000  16.308  0.00  0.00    +0.000 A 
ATOM      4  C   UNL     1       4.082   4.231  17.016  0.00  0.00    +0.000 A 
ATOM      5  C   UNL     1       3.860   5.446  17.681  0.00  0.00    +0.000 A 
ATOM      6  C   UNL     1       4.828   6.455  17.549  0.00  0.00    +0.000 A 
ENDROOT
BRANCH   1   9
ATOM      7  C   UNL     1       7.848   7.684  17.658  0.00  0.00    +0.000 C 
ATOM      8  O   UNL     1       8.168   7.091  18.676  0.00  0.00    +0.000 OA
ATOM      9  N   UNL     1       6.932   7.304  16.713  0.00  0.00    +0.000 N 
ATOM     10  H   UNL     1       6.887   7.916  15.911  0.00  0.00    +0.000 HD
BRANCH   7  11
ATOM     11  O   UNL     1       8.318   8.920  17.332  0.00  0.00    +0.000 OA
BRANCH  11  12
ATOM     12  C   UNL     1       8.600   9.747  18.470  0.00  0.00    +0.000 C 
BRANCH  12  14
ATOM     13  C   UNL     1       8.777  12.182  17.785  0.00  0.00    +0.000 C 
ATOM     14  C   UNL     1       9.541  10.919  18.177  0.00  0.00    +0.000 C 
ATOM     15  C   UNL     1      10.393  11.184  19.423  0.00  0.00    +0.000 C 
ENDBRANCH  12  14
ENDBRANCH  11  12
ENDBRANCH   7  11
ENDBRANCH   1   9
BRANCH   5  16
ATOM     16  N   UNL     1       2.620   5.630  18.317  0.00  0.00    +0.000 N 
ATOM     17  H   UNL     1       2.226   4.723  18.571  0.00  0.00    +0.000 HD
BRANCH  16  18
ATOM     18  C   UNL     1       2.548   6.534  19.467  0.00  0.00    +0.000 C 
BRANCH  18  19
ATOM     19  C   UNL     1       1.937   7.853  19.114  0.00  0.00    +0.000 A 
ATOM     20  N   UNL     1       1.929   8.394  17.910  0.00  0.00    +0.000 NA
ATOM     21  N   UNL     1       1.342   9.627  18.002  0.00  0.00    +0.000 NA
ATOM     22  C   UNL     1       1.010   9.836  19.259  0.00  0.00    +0.000 A 
ATOM     23  N   UNL     1       1.360   8.734  19.998  0.00  0.00    +0.000 N 
ATOM     24  C   UNL     1       1.161   8.515  21.405  0.00  0.00    +0.000 C 
BRANCH  22  25
ATOM     25  C   UNL     1       0.342  11.118  19.740  0.00  0.00    +0.000 C 
ATOM     26  C   UNL     1       1.179  12.109  20.528  0.00  0.00    +0.000 C 
ATOM     27  C   UNL     1       0.815  12.418  19.117  0.00  0.00    +0.000 C 
ENDBRANCH  22  25
ENDBRANCH  18  19
ENDBRANCH  16  18
ENDBRANCH   5  16
TORSDOF 8
ENDMDL
MODEL 6
REMARK VINA RESULT:      -7.1      2.870      4.879
REMARK  Name = 
REMARK  11 active torsions:
REMARK  status: ('A' for Active; 'I' for Inactive)
REMARK    1  A    between atoms: C_1  and  C_2
REMARK    2  A    between atoms: C_2  and  C_3
REMARK    3  A    between atoms: C_2  and  C_4
REMARK    4  A    between atoms: C_4  and  O_5
REMARK    5  A    between atoms: O_5  and  C_6
REMARK    6  A    between atoms: N_8  and  C_9
REMARK    7  A    between atoms: C_13  and  N_14
REMARK    8  A    between atoms: N_14  and  C_15
REMARK    9  A    between atoms: C_15  and  C_16
REMARK   10  A    between atoms: C_19  and  C_20
REMARK   11  A    between atoms: N_23  and  C_24
REMARK                            x       y       z     vdW  Elec       q    Type
REMARK                         _______ _______ _______ _____ _____    ______ ____
ROOT
ATOM      1  C   UNL     1       2.979   5.351  18.245  0.00  0.00    +0.000 A 
ATOM      2  C   UNL     1       2.270   4.155  18.377  0.00  0.00    +0.000 A 
ATOM      3  C   UNL     1       1.360   3.990  19.417  0.00  0.00    +0.000 A 
ATOM      4  C   UNL     1       1.154   5.019  20.332  0.00  0.00    +0.000 A 
ATOM      5  C   UNL     1       1.891   6.210  20.265  0.00  0.00    +0.000 A 
ATOM      6  C   UNL     1       2.792   6.367  19.200  0.00  0.00    +0.000 A 
ENDROOT
BRANCH   1   9
ATOM      7  C   UNL     1       4.851   4.708  16.732  0.00  0.00    +0.000 C 
ATOM      8  O   UNL     1       4.975   3.521  16.987  0.00  0.00    +0.000 OA
ATOM      9  N   UNL     1       3.902   5.577  17.203  0.00  0.00    +0.000 N 
ATOM     10  H   UNL     1       3.946   6.499  16.794  0.00  0.00    +0.000 HD
BRANCH   7  11
ATOM     11  O   UNL     1       5.733   5.406  15.965  0.00  0.00    +0.000 OA
BRANCH  11  12
ATOM     12  C   UNL     1       7.023   5.563  16.571  0.00  0.00    +0.000 C 
BRANCH  12  14
ATOM     13  C   UNL     1       7.753   5.783  18.990  0.00  0.00    +0.000 C 
ATOM     14  C   UNL     1       7.026   6.447  17.822  0.00  0.00    +0.000 C 
ATOM     15  C   UNL     1       7.694   7.781  17.476  0.00  0.00    +0.000 C 
ENDBRANCH  12  14
ENDBRANCH  11  12
ENDBRANCH   7  11
ENDBRANCH   1   9
BRANCH   5  16
ATOM     16  N   UNL     1       1.579   7.228  21.183  0.00  0.00    +0.000 N 
ATOM     17  H   UNL     1       2.261   7.227  21.943  0.00  0.00    +0.000 HD
BRANCH  16  18
ATOM     18  C   UNL     1       1.404   8.594  20.683  0.00  0.00    +0.000 C 
BRANCH  18  19
ATOM     19  C   UNL     1       0.644   9.455  21.642  0.00  0.00    +0.000 A 
ATOM     20  N   UNL     1       0.764   9.427  22.956  0.00  0.00    +0.000 NA
ATOM     21  N   UNL     1      -0.140  10.307  23.485  0.00  0.00    +0.000 NA
ATOM     22  C   UNL     1      -0.815  10.854  22.495  0.00  0.00    +0.000 A 
ATOM     23  N   UNL     1      -0.345  10.350  21.308  0.00  0.00    +0.000 N 
ATOM     24  C   UNL     1      -0.772  10.685  19.977  0.00  0.00    +0.000 C 
BRANCH  22  25
ATOM     25  C   UNL     1      -1.923  11.877  22.710  0.00  0.00    +0.000 C 
ATOM     26  C   UNL     1      -1.575  13.170  23.424  0.00  0.00    +0.000 C 
ATOM     27  C   UNL     1      -1.809  13.188  21.953  0.00  0.00    +0.000 C 
ENDBRANCH  22  25
ENDBRANCH  18  19
ENDBRANCH  16  18
ENDBRANCH   5  16
TORSDOF 8
ENDMDL
MODEL 7
REMARK VINA RESULT:      -7.1      3.635      8.239
REMARK  Name = 
REMARK  11 active torsions:
REMARK  status: ('A' for Active; 'I' for Inactive)
REMARK    1  A    between atoms: C_1  and  C_2
REMARK    2  A    between atoms: C_2  and  C_3
REMARK    3  A    between atoms: C_2  and  C_4
REMARK    4  A    between atoms: C_4  and  O_5
REMARK    5  A    between atoms: O_5  and  C_6
REMARK    6  A    between atoms: N_8  and  C_9
REMARK    7  A    between atoms: C_13  and  N_14
REMARK    8  A    between atoms: N_14  and  C_15
REMARK    9  A    between atoms: C_15  and  C_16
REMARK   10  A    between atoms: C_19  and  C_20
REMARK   11  A    between atoms: N_23  and  C_24
REMARK                            x       y       z     vdW  Elec       q    Type
REMARK                         _______ _______ _______ _____ _____    ______ ____
ROOT
ATOM      1  C   UNL     1       1.933   4.979  20.681  0.00  0.00    +0.000 A 
ATOM      2  C   UNL     1       1.092   3.874  20.822  0.00  0.00    +0.000 A 
ATOM      3  C   UNL     1       1.522   2.609  20.429  0.00  0.00    +0.000 A 
ATOM      4  C   UNL     1       2.795   2.442  19.890  0.00  0.00    +0.000 A 
ATOM      5  C   UNL     1       3.644   3.538  19.679  0.00  0.00    +0.000 A 
ATOM      6  C   UNL     1       3.202   4.803  20.097  0.00  0.00    +0.000 A 
ENDROOT
BRANCH   1   9
ATOM      7  C   UNL     1       1.763   7.446  20.390  0.00  0.00    +0.000 C 
ATOM      8  O   UNL     1       2.150   7.585  19.241  0.00  0.00    +0.000 OA
ATOM      9  N   UNL     1       1.555   6.278  21.075  0.00  0.00    +0.000 N 
ATOM     10  H   UNL     1       1.157   6.402  21.994  0.00  0.00    +0.000 HD
BRANCH   7  11
ATOM     11  O   UNL     1       1.548   8.489  21.239  0.00  0.00    +0.000 OA
BRANCH  11  12
ATOM     12  C   UNL     1       0.830   9.578  20.642  0.00  0.00    +0.000 C 
BRANCH  12  14
ATOM     13  C   UNL     1      -0.992  11.282  21.099  0.00  0.00    +0.000 C 
ATOM     14  C   UNL     1       0.242  10.570  21.651  0.00  0.00    +0.000 C 
ATOM     15  C   UNL     1      -0.117   9.810  22.931  0.00  0.00    +0.000 C 
ENDBRANCH  12  14
ENDBRANCH  11  12
ENDBRANCH   7  11
ENDBRANCH   1   9
BRANCH   5  16
ATOM     16  N   UNL     1       4.939   3.282  19.195  0.00  0.00    +0.000 N 
ATOM     17  H   UNL     1       5.087   2.274  19.128  0.00  0.00    +0.000 HD
BRANCH  16  18
ATOM     18  C   UNL     1       5.362   3.923  17.948  0.00  0.00    +0.000 C 
BRANCH  18  19
ATOM     19  C   UNL     1       6.408   4.968  18.174  0.00  0.00    +0.000 A 
ATOM     20  N   UNL     1       7.198   5.044  19.229  0.00  0.00    +0.000 NA
ATOM     21  N   UNL     1       7.967   6.168  19.105  0.00  0.00    +0.000 NA
ATOM     22  C   UNL     1       7.633   6.779  17.987  0.00  0.00    +0.000 A 
ATOM     23  N   UNL     1       6.655   6.049  17.360  0.00  0.00    +0.000 N 
ATOM     24  C   UNL     1       6.015   6.327  16.103  0.00  0.00    +0.000 C 
BRANCH  22  25
ATOM     25  C   UNL     1       8.276   8.081  17.526  0.00  0.00    +0.000 C 
ATOM     26  C   UNL     1       7.522   9.376  17.768  0.00  0.00    +0.000 C 
ATOM     27  C   UNL     1       8.712   9.055  18.605  0.00  0.00    +0.000 C 
ENDBRANCH  22  25
ENDBRANCH  18  19
ENDBRANCH  16  18
ENDBRANCH   5  16
TORSDOF 8
ENDMDL
MODEL 8
REMARK VINA RESULT:      -7.0      3.342      5.285
REMARK  Name = 
REMARK  11 active torsions:
REMARK  status: ('A' for Active; 'I' for Inactive)
REMARK    1  A    between atoms: C_1  and  C_2
REMARK    2  A    between atoms: C_2  and  C_3
REMARK    3  A    between atoms: C_2  and  C_4
REMARK    4  A    between atoms: C_4  and  O_5
REMARK    5  A    between atoms: O_5  and  C_6
REMARK    6  A    between atoms: N_8  and  C_9
REMARK    7  A    between atoms: C_13  and  N_14
REMARK    8  A    between atoms: N_14  and  C_15
REMARK    9  A    between atoms: C_15  and  C_16
REMARK   10  A    between atoms: C_19  and  C_20
REMARK   11  A    between atoms: N_23  and  C_24
REMARK                            x       y       z     vdW  Elec       q    Type
REMARK                         _______ _______ _______ _____ _____    ______ ____
ROOT
ATOM      1  C   UNL     1       4.179   4.756  17.704  0.00  0.00    +0.000 A 
ATOM      2  C   UNL     1       5.192   4.825  16.746  0.00  0.00    +0.000 A 
ATOM      3  C   UNL     1       5.522   6.043  16.159  0.00  0.00    +0.000 A 
ATOM      4  C   UNL     1       4.840   7.200  16.525  0.00  0.00    +0.000 A 
ATOM      5  C   UNL     1       3.777   7.159  17.440  0.00  0.00    +0.000 A 
ATOM      6  C   UNL     1       3.469   5.925  18.035  0.00  0.00    +0.000 A 
ENDROOT
BRANCH   1   9
ATOM      7  C   UNL     1       2.842   2.669  17.951  0.00  0.00    +0.000 C 
ATOM      8  O   UNL     1       2.224   2.649  16.898  0.00  0.00    +0.000 OA
ATOM      9  N   UNL     1       3.814   3.552  18.341  0.00  0.00    +0.000 N 
ATOM     10  H   UNL     1       4.244   3.329  19.227  0.00  0.00    +0.000 HD
BRANCH   7  11
ATOM     11  O   UNL     1       2.586   1.823  18.986  0.00  0.00    +0.000 OA
BRANCH  11  12
ATOM     12  C   UNL     1       1.277   1.985  19.551  0.00  0.00    +0.000 C 
BRANCH  12  14
ATOM     13  C   UNL     1       2.556   2.676  21.629  0.00  0.00    +0.000 C 
ATOM     14  C   UNL     1       1.248   2.800  20.848  0.00  0.00    +0.000 C 
ATOM     15  C   UNL     1       0.982   4.267  20.497  0.00  0.00    +0.000 C 
ENDBRANCH  12  14
ENDBRANCH  11  12
ENDBRANCH   7  11
ENDBRANCH   1   9
BRANCH   5  16
ATOM     16  N   UNL     1       3.182   8.377  17.811  0.00  0.00    +0.000 N 
ATOM     17  H   UNL     1       3.577   9.136  17.253  0.00  0.00    +0.000 HD
BRANCH  16  18
ATOM     18  C   UNL     1       1.721   8.475  17.807  0.00  0.00    +0.000 C 
BRANCH  18  19
ATOM     19  C   UNL     1       1.212   9.418  18.851  0.00  0.00    +0.000 A 
ATOM     20  N   UNL     1       0.854  10.671  18.639  0.00  0.00    +0.000 NA
ATOM     21  N   UNL     1       0.513  11.225  19.843  0.00  0.00    +0.000 NA
ATOM     22  C   UNL     1       0.679  10.315  20.781  0.00  0.00    +0.000 A 
ATOM     23  N   UNL     1       1.112   9.152  20.196  0.00  0.00    +0.000 N 
ATOM     24  C   UNL     1       1.395   7.895  20.834  0.00  0.00    +0.000 C 
BRANCH  22  25
ATOM     25  C   UNL     1       0.408  10.582  22.255  0.00  0.00    +0.000 C 
ATOM     26  C   UNL     1      -1.017  10.892  22.678  0.00  0.00    +0.000 C 
ATOM     27  C   UNL     1      -0.431   9.561  23.000  0.00  0.00    +0.000 C 
ENDBRANCH  22  25
ENDBRANCH  18  19
ENDBRANCH  16  18
ENDBRANCH   5  16
TORSDOF 8
ENDMDL
MODEL 9
REMARK VINA RESULT:      -7.0      3.071      4.781
REMARK  Name = 
REMARK  11 active torsions:
REMARK  status: ('A' for Active; 'I' for Inactive)
REMARK    1  A    between atoms: C_1  and  C_2
REMARK    2  A    between atoms: C_2  and  C_3
REMARK    3  A    between atoms: C_2  and  C_4
REMARK    4  A    between atoms: C_4  and  O_5
REMARK    5  A    between atoms: O_5  and  C_6
REMARK    6  A    between atoms: N_8  and  C_9
REMARK    7  A    between atoms: C_13  and  N_14
REMARK    8  A    between atoms: N_14  and  C_15
REMARK    9  A    between atoms: C_15  and  C_16
REMARK   10  A    between atoms: C_19  and  C_20
REMARK   11  A    between atoms: N_23  and  C_24
REMARK                            x       y       z     vdW  Elec       q    Type
REMARK                         _______ _______ _______ _____ _____    ______ ____
ROOT
ATOM      1  C   UNL     1       3.430   4.571  18.950  0.00  0.00    +0.000 A 
ATOM      2  C   UNL     1       2.569   3.473  18.906  0.00  0.00    +0.000 A 
ATOM      3  C   UNL     1       1.377   3.486  19.624  0.00  0.00    +0.000 A 
ATOM      4  C   UNL     1       1.040   4.597  20.394  0.00  0.00    +0.000 A 
ATOM      5  C   UNL     1       1.908   5.692  20.509  0.00  0.00    +0.000 A 
ATOM      6  C   UNL     1       3.097   5.670  19.763  0.00  0.00    +0.000 A 
ENDROOT
BRANCH   1   9
ATOM      7  C   UNL     1       4.940   5.414  17.157  0.00  0.00    +0.000 C 
ATOM      8  O   UNL     1       4.299   6.357  16.720  0.00  0.00    +0.000 OA
ATOM      9  N   UNL     1       4.642   4.617  18.230  0.00  0.00    +0.000 N 
ATOM     10  H   UNL     1       5.359   3.944  18.458  0.00  0.00    +0.000 HD
BRANCH   7  11
ATOM     11  O   UNL     1       6.066   4.934  16.561  0.00  0.00    +0.000 OA
BRANCH  11  12
ATOM     12  C   UNL     1       7.192   5.817  16.662  0.00  0.00    +0.000 C 
BRANCH  12  14
ATOM     13  C   UNL     1       7.996   5.966  19.063  0.00  0.00    +0.000 C 
ATOM     14  C   UNL     1       7.218   6.657  17.943  0.00  0.00    +0.000 C 
ATOM     15  C   UNL     1       7.849   8.016  17.624  0.00  0.00    +0.000 C 
ENDBRANCH  12  14
ENDBRANCH  11  12
ENDBRANCH   7  11
ENDBRANCH   1   9
BRANCH   5  16
ATOM     16  N   UNL     1       1.468   6.804  21.248  0.00  0.00    +0.000 N 
ATOM     17  H   UNL     1       1.973   6.848  22.135  0.00  0.00    +0.000 HD
BRANCH  16  18
ATOM     18  C   UNL     1       1.483   8.122  20.610  0.00  0.00    +0.000 C 
BRANCH  18  19
ATOM     19  C   UNL     1       0.852   9.174  21.466  0.00  0.00    +0.000 A 
ATOM     20  N   UNL     1       0.617   9.067  22.760  0.00  0.00    +0.000 NA
ATOM     21  N   UNL     1      -0.029  10.201  23.171  0.00  0.00    +0.000 NA
ATOM     22  C   UNL     1      -0.198  10.984  22.126  0.00  0.00    +0.000 A 
ATOM     23  N   UNL     1       0.353  10.377  21.025  0.00  0.00    +0.000 N 
ATOM     24  C   UNL     1       0.422  10.882  19.681  0.00  0.00    +0.000 C 
BRANCH  22  25
ATOM     25  C   UNL     1      -0.898  12.335  22.203  0.00  0.00    +0.000 C 
ATOM     26  C   UNL     1      -2.306  12.445  21.647  0.00  0.00    +0.000 C 
ATOM     27  C   UNL     1      -2.101  12.437  23.123  0.00  0.00    +0.000 C 
ENDBRANCH  22  25
ENDBRANCH  18  19
ENDBRANCH  16  18
ENDBRANCH   5  16
TORSDOF 8
ENDMDL
