MODEL 1
REMARK VINA RESULT:      -8.4      0.000      0.000
REMARK  Name = 
REMARK  6 active torsions:
REMARK  status: ('A' for Active; 'I' for Inactive)
REMARK    1  A    between atoms: C_1  and  C_2
REMARK    2  A    between atoms: C_2  and  O_3
REMARK    3  A    between atoms: O_3  and  C_4
REMARK    4  A    between atoms: C_4  and  C_6
REMARK    5  A    between atoms: C_6  and  C_7
REMARK    6  A    between atoms: C_12  and  C_14
REMARK                            x       y       z     vdW  Elec       q    Type
REMARK                         _______ _______ _______ _____ _____    ______ ____
ROOT
ATOM      1  C   UNL     1       6.946   6.237  17.929  0.00  0.00    +0.000 C 
ATOM      2  C   UNL     1       8.196   6.964  18.443  0.00  0.00    +0.000 C 
ATOM      3  C   UNL     1       5.957   7.262  17.329  0.00  0.00    +0.000 C 
ATOM      4  C   UNL     1       4.677   6.570  16.876  0.00  0.00    +0.000 C 
ATOM      5  C   UNL     1       4.023   5.818  18.025  0.00  0.00    +0.000 C 
ATOM      6  N   UNL     1       4.934   4.935  18.756  0.00  0.00    +0.000 N 
ATOM      7  C   UNL     1       4.516   3.808  19.494  0.00  0.00    +0.000 C 
ATOM      8  O   UNL     1       5.271   3.201  20.257  0.00  0.00    +0.000 OA
ATOM      9  C   UNL     1       6.251   5.499  19.095  0.00  0.00    +0.000 C 
ENDROOT
BRANCH   7  10
ATOM     10  C   UNL     1       3.142   3.275  19.357  0.00  0.00    +0.000 A 
ATOM     11  C   UNL     1       2.878   2.283  18.413  0.00  0.00    +0.000 A 
ATOM     12  F   UNL     1       3.849   1.781  17.637  0.00  0.00    +0.000 F 
ATOM     13  C   UNL     1       1.580   1.786  18.234  0.00  0.00    +0.000 A 
ATOM     14  C   UNL     1       0.528   2.301  18.984  0.00  0.00    +0.000 A 
ATOM     15  C   UNL     1       0.786   3.254  19.963  0.00  0.00    +0.000 A 
ATOM     16  C   UNL     1       2.093   3.691  20.176  0.00  0.00    +0.000 A 
ATOM     17  F   UNL     1       2.302   4.539  21.193  0.00  0.00    +0.000 F 
ENDBRANCH   7  10
BRANCH   1  18
ATOM     18  C   UNL     1       7.397   5.300  16.810  0.00  0.00    +0.000 C 
ATOM     19  O   UNL     1       7.917   4.208  17.017  0.00  0.00    +0.000 OA
BRANCH  18  20
ATOM     20  O   UNL     1       7.196   5.828  15.575  0.00  0.00    +0.000 OA
BRANCH  20  22
ATOM     21  C   UNL     1       5.781   4.269  14.457  0.00  0.00    +0.000 C 
ATOM     22  C   UNL     1       7.167   4.886  14.497  0.00  0.00    +0.000 C 
ENDBRANCH  20  22
ENDBRANCH  18  20
ENDBRANCH   1  18
TORSDOF 4
ENDMDL
MODEL 2
REMARK VINA RESULT:      -8.3      0.134      1.765
REMARK  Name = 
REMARK  6 active torsions:
REMARK  status: ('A' for Active; 'I' for Inactive)
REMARK    1  A    between atoms: C_1  and  C_2
REMARK    2  A    between atoms: C_2  and  O_3
REMARK    3  A    between atoms: O_3  and  C_4
REMARK    4  A    between atoms: C_4  and  C_6
REMARK    5  A    between atoms: C_6  and  C_7
REMARK    6  A    between atoms: C_12  and  C_14
REMARK                            x       y       z     vdW  Elec       q    Type
REMARK                         _______ _______ _______ _____ _____    ______ ____
ROOT
ATOM      1  C   UNL     1       6.978   6.249  17.915  0.00  0.00    +0.000 C 
ATOM      2  C   UNL     1       8.239   6.957  18.427  0.00  0.00    +0.000 C 
ATOM      3  C   UNL     1       6.006   7.288  17.313  0.00  0.00    +0.000 C 
ATOM      4  C   UNL     1       4.715   6.615  16.860  0.00  0.00    +0.000 C 
ATOM      5  C   UNL     1       4.049   5.876  18.011  0.00  0.00    +0.000 C 
ATOM      6  N   UNL     1       4.946   4.980  18.744  0.00  0.00    +0.000 N 
ATOM      7  C   UNL     1       4.510   3.861  19.484  0.00  0.00    +0.000 C 
ATOM      8  O   UNL     1       5.256   3.244  20.249  0.00  0.00    +0.000 OA
ATOM      9  C   UNL     1       6.271   5.524  19.082  0.00  0.00    +0.000 C 
ENDROOT
BRANCH   7  10
ATOM     10  C   UNL     1       3.128   3.349  19.348  0.00  0.00    +0.000 A 
ATOM     11  C   UNL     1       2.122   3.855  20.171  0.00  0.00    +0.000 A 
ATOM     12  F   UNL     1       2.373   4.817  21.071  0.00  0.00    +0.000 F 
ATOM     13  C   UNL     1       0.812   3.364  20.093  0.00  0.00    +0.000 A 
ATOM     14  C   UNL     1       0.506   2.337  19.205  0.00  0.00    +0.000 A 
ATOM     15  C   UNL     1       1.488   1.859  18.345  0.00  0.00    +0.000 A 
ATOM     16  C   UNL     1       2.771   2.405  18.388  0.00  0.00    +0.000 A 
ATOM     17  F   UNL     1       3.655   1.975  17.476  0.00  0.00    +0.000 F 
ENDBRANCH   7  10
BRANCH   1  18
ATOM     18  C   UNL     1       7.414   5.302  16.798  0.00  0.00    +0.000 C 
ATOM     19  O   UNL     1       7.943   4.215  17.007  0.00  0.00    +0.000 OA
BRANCH  18  20
ATOM     20  O   UNL     1       7.190   5.817  15.562  0.00  0.00    +0.000 OA
BRANCH  20  22
ATOM     21  C   UNL     1       5.729   4.316  14.422  0.00  0.00    +0.000 C 
ATOM     22  C   UNL     1       7.143   4.864  14.494  0.00  0.00    +0.000 C 
ENDBRANCH  20  22
ENDBRANCH  18  20
ENDBRANCH   1  18
TORSDOF 4
ENDMDL
MODEL 3
REMARK VINA RESULT:      -7.7      1.879      3.032
REMARK  Name = 
REMARK  6 active torsions:
REMARK  status: ('A' for Active; 'I' for Inactive)
REMARK    1  A    between atoms: C_1  and  C_2
REMARK    2  A    between atoms: C_2  and  O_3
REMARK    3  A    between atoms: O_3  and  C_4
REMARK    4  A    between atoms: C_4  and  C_6
REMARK    5  A    between atoms: C_6  and  C_7
REMARK    6  A    between atoms: C_12  and  C_14
REMARK                            x       y       z     vdW  Elec       q    Type
REMARK                         _______ _______ _______ _____ _____    ______ ____
ROOT
ATOM      1  C   UNL     1       6.464   4.862  15.990  0.00  0.00    +0.000 C 
ATOM      2  C   UNL     1       7.146   4.591  14.643  0.00  0.00    +0.000 C 
ATOM      3  C   UNL     1       7.428   4.505  17.143  0.00  0.00    +0.000 C 
ATOM      4  C   UNL     1       6.746   4.700  18.492  0.00  0.00    +0.000 C 
ATOM      5  C   UNL     1       5.477   3.868  18.591  0.00  0.00    +0.000 C 
ATOM      6  N   UNL     1       4.570   4.026  17.453  0.00  0.00    +0.000 N 
ATOM      7  C   UNL     1       3.181   3.786  17.513  0.00  0.00    +0.000 C 
ATOM      8  O   UNL     1       2.475   3.733  16.502  0.00  0.00    +0.000 OA
ATOM      9  C   UNL     1       5.191   3.995  16.119  0.00  0.00    +0.000 C 
ENDROOT
BRANCH   7  10
ATOM     10  C   UNL     1       2.492   3.618  18.812  0.00  0.00    +0.000 A 
ATOM     11  C   UNL     1       2.408   2.351  19.389  0.00  0.00    +0.000 A 
ATOM     12  F   UNL     1       2.960   1.279  18.803  0.00  0.00    +0.000 F 
ATOM     13  C   UNL     1       1.729   2.153  20.599  0.00  0.00    +0.000 A 
ATOM     14  C   UNL     1       1.103   3.224  21.228  0.00  0.00    +0.000 A 
ATOM     15  C   UNL     1       1.222   4.501  20.689  0.00  0.00    +0.000 A 
ATOM     16  C   UNL     1       1.957   4.692  19.520  0.00  0.00    +0.000 A 
ATOM     17  F   UNL     1       2.119   5.953  19.094  0.00  0.00    +0.000 F 
ENDBRANCH   7  10
BRANCH   1  18
ATOM     18  C   UNL     1       6.176   6.361  16.058  0.00  0.00    +0.000 C 
ATOM     19  O   UNL     1       5.118   6.860  15.689  0.00  0.00    +0.000 OA
BRANCH  18  20
ATOM     20  O   UNL     1       7.233   7.073  16.529  0.00  0.00    +0.000 OA
BRANCH  20  22
ATOM     21  C   UNL     1       8.220   8.682  17.985  0.00  0.00    +0.000 C 
ATOM     22  C   UNL     1       6.914   8.099  17.475  0.00  0.00    +0.000 C 
ENDBRANCH  20  22
ENDBRANCH  18  20
ENDBRANCH   1  18
TORSDOF 4
ENDMDL
MODEL 4
REMARK VINA RESULT:      -7.7      1.894      3.342
REMARK  Name = 
REMARK  6 active torsions:
REMARK  status: ('A' for Active; 'I' for Inactive)
REMARK    1  A    between atoms: C_1  and  C_2
REMARK    2  A    between atoms: C_2  and  O_3
REMARK    3  A    between atoms: O_3  and  C_4
REMARK    4  A    between atoms: C_4  and  C_6
REMARK    5  A    between atoms: C_6  and  C_7
REMARK    6  A    between atoms: C_12  and  C_14
REMARK                            x       y       z     vdW  Elec       q    Type
REMARK                         _______ _______ _______ _____ _____    ______ ____
ROOT
ATOM      1  C   UNL     1       6.560   4.895  16.120  0.00  0.00    +0.000 C 
ATOM      2  C   UNL     1       7.287   4.626  14.796  0.00  0.00    +0.000 C 
ATOM      3  C   UNL     1       7.493   4.556  17.304  0.00  0.00    +0.000 C 
ATOM      4  C   UNL     1       6.768   4.750  18.631  0.00  0.00    +0.000 C 
ATOM      5  C   UNL     1       5.507   3.903  18.695  0.00  0.00    +0.000 C 
ATOM      6  N   UNL     1       4.633   4.043  17.529  0.00  0.00    +0.000 N 
ATOM      7  C   UNL     1       3.246   3.785  17.548  0.00  0.00    +0.000 C 
ATOM      8  O   UNL     1       2.573   3.717  16.516  0.00  0.00    +0.000 OA
ATOM      9  C   UNL     1       5.295   4.012  16.215  0.00  0.00    +0.000 C 
ENDROOT
BRANCH   7  10
ATOM     10  C   UNL     1       2.520   3.615  18.826  0.00  0.00    +0.000 A 
ATOM     11  C   UNL     1       1.945   4.724  19.445  0.00  0.00    +0.000 A 
ATOM     12  F   UNL     1       2.013   5.945  18.895  0.00  0.00    +0.000 F 
ATOM     13  C   UNL     1       1.284   4.602  20.675  0.00  0.00    +0.000 A 
ATOM     14  C   UNL     1       1.219   3.365  21.309  0.00  0.00    +0.000 A 
ATOM     15  C   UNL     1       1.745   2.243  20.680  0.00  0.00    +0.000 A 
ATOM     16  C   UNL     1       2.340   2.369  19.425  0.00  0.00    +0.000 A 
ATOM     17  F   UNL     1       2.747   1.244  18.819  0.00  0.00    +0.000 F 
ENDBRANCH   7  10
BRANCH   1  18
ATOM     18  C   UNL     1       6.252   6.391  16.170  0.00  0.00    +0.000 C 
ATOM     19  O   UNL     1       5.161   6.863  15.866  0.00  0.00    +0.000 OA
BRANCH  18  20
ATOM     20  O   UNL     1       7.327   7.132  16.546  0.00  0.00    +0.000 OA
BRANCH  20  22
ATOM     21  C   UNL     1       8.336   8.491  18.225  0.00  0.00    +0.000 C 
ATOM     22  C   UNL     1       7.054   8.194  17.467  0.00  0.00    +0.000 C 
ENDBRANCH  20  22
ENDBRANCH  18  20
ENDBRANCH   1  18
TORSDOF 4
ENDMDL
MODEL 5
REMARK VINA RESULT:      -7.3      2.437      6.042
REMARK  Name = 
REMARK  6 active torsions:
REMARK  status: ('A' for Active; 'I' for Inactive)
REMARK    1  A    between atoms: C_1  and  C_2
REMARK    2  A    between atoms: C_2  and  O_3
REMARK    3  A    between atoms: O_3  and  C_4
REMARK    4  A    between atoms: C_4  and  C_6
REMARK    5  A    between atoms: C_6  and  C_7
REMARK    6  A    between atoms: C_12  and  C_14
REMARK                            x       y       z     vdW  Elec       q    Type
REMARK                         _______ _______ _______ _____ _____    ______ ____
ROOT
ATOM      1  C   UNL     1       2.460   2.962  20.484  0.00  0.00    +0.000 C 
ATOM      2  C   UNL     1       2.297   2.316  21.866  0.00  0.00    +0.000 C 
ATOM      3  C   UNL     1       1.954   1.992  19.392  0.00  0.00    +0.000 C 
ATOM      4  C   UNL     1       2.171   2.586  18.005  0.00  0.00    +0.000 C 
ATOM      5  C   UNL     1       3.637   2.918  17.775  0.00  0.00    +0.000 C 
ATOM      6  N   UNL     1       4.246   3.708  18.847  0.00  0.00    +0.000 N 
ATOM      7  C   UNL     1       5.373   4.538  18.672  0.00  0.00    +0.000 C 
ATOM      8  O   UNL     1       5.984   5.032  19.623  0.00  0.00    +0.000 OA
ATOM      9  C   UNL     1       3.951   3.271  20.222  0.00  0.00    +0.000 C 
ENDROOT
BRANCH   7  10
ATOM     10  C   UNL     1       5.861   4.885  17.318  0.00  0.00    +0.000 A 
ATOM     11  C   UNL     1       5.043   5.617  16.458  0.00  0.00    +0.000 A 
ATOM     12  F   UNL     1       3.828   6.037  16.838  0.00  0.00    +0.000 F 
ATOM     13  C   UNL     1       5.462   5.928  15.156  0.00  0.00    +0.000 A 
ATOM     14  C   UNL     1       6.697   5.481  14.698  0.00  0.00    +0.000 A 
ATOM     15  C   UNL     1       7.542   4.793  15.562  0.00  0.00    +0.000 A 
ATOM     16  C   UNL     1       7.139   4.550  16.874  0.00  0.00    +0.000 A 
ATOM     17  F   UNL     1       8.026   3.966  17.693  0.00  0.00    +0.000 F 
ENDBRANCH   7  10
BRANCH   1  18
ATOM     18  C   UNL     1       1.577   4.208  20.461  0.00  0.00    +0.000 C 
ATOM     19  O   UNL     1       0.394   4.187  20.136  0.00  0.00    +0.000 OA
BRANCH  18  20
ATOM     20  O   UNL     1       2.257   5.335  20.796  0.00  0.00    +0.000 OA
BRANCH  20  22
ATOM     21  C   UNL     1       1.731   7.649  20.561  0.00  0.00    +0.000 C 
ATOM     22  C   UNL     1       2.200   6.399  19.839  0.00  0.00    +0.000 C 
ENDBRANCH  20  22
ENDBRANCH  18  20
ENDBRANCH   1  18
TORSDOF 4
ENDMDL
MODEL 6
REMARK VINA RESULT:      -7.1      0.865      1.142
REMARK  Name = 
REMARK  6 active torsions:
REMARK  status: ('A' for Active; 'I' for Inactive)
REMARK    1  A    between atoms: C_1  and  C_2
REMARK    2  A    between atoms: C_2  and  O_3
REMARK    3  A    between atoms: O_3  and  C_4
REMARK    4  A    between atoms: C_4  and  C_6
REMARK    5  A    between atoms: C_6  and  C_7
REMARK    6  A    between atoms: C_12  and  C_14
REMARK                            x       y       z     vdW  Elec       q    Type
REMARK                         _______ _______ _______ _____ _____    ______ ____
ROOT
ATOM      1  C   UNL     1       6.391   6.524  17.544  0.00  0.00    +0.000 C 
ATOM      2  C   UNL     1       7.793   7.106  17.759  0.00  0.00    +0.000 C 
ATOM      3  C   UNL     1       5.349   7.665  17.532  0.00  0.00    +0.000 C 
ATOM      4  C   UNL     1       3.939   7.103  17.389  0.00  0.00    +0.000 C 
ATOM      5  C   UNL     1       3.626   6.118  18.503  0.00  0.00    +0.000 C 
ATOM      6  N   UNL     1       4.647   5.085  18.691  0.00  0.00    +0.000 N 
ATOM      7  C   UNL     1       4.395   3.823  19.271  0.00  0.00    +0.000 C 
ATOM      8  O   UNL     1       5.302   3.054  19.598  0.00  0.00    +0.000 OA
ATOM      9  C   UNL     1       6.045   5.547  18.690  0.00  0.00    +0.000 C 
ENDROOT
BRANCH   7  10
ATOM     10  C   UNL     1       3.011   3.346  19.484  0.00  0.00    +0.000 A 
ATOM     11  C   UNL     1       2.416   2.512  18.538  0.00  0.00    +0.000 A 
ATOM     12  F   UNL     1       3.080   2.110  17.445  0.00  0.00    +0.000 F 
ATOM     13  C   UNL     1       1.093   2.074  18.693  0.00  0.00    +0.000 A 
ATOM     14  C   UNL     1       0.345   2.495  19.788  0.00  0.00    +0.000 A 
ATOM     15  C   UNL     1       0.942   3.286  20.763  0.00  0.00    +0.000 A 
ATOM     16  C   UNL     1       2.279   3.658  20.629  0.00  0.00    +0.000 A 
ATOM     17  F   UNL     1       2.834   4.341  21.641  0.00  0.00    +0.000 F 
ENDBRANCH   7  10
BRANCH   1  18
ATOM     18  C   UNL     1       6.384   5.859  16.168  0.00  0.00    +0.000 C 
ATOM     19  O   UNL     1       5.995   6.425  15.151  0.00  0.00    +0.000 OA
BRANCH  18  20
ATOM     20  O   UNL     1       6.812   4.571  16.210  0.00  0.00    +0.000 OA
BRANCH  20  22
ATOM     21  C   UNL     1       6.207   3.723  14.065  0.00  0.00    +0.000 C 
ATOM     22  C   UNL     1       5.965   3.617  15.560  0.00  0.00    +0.000 C 
ENDBRANCH  20  22
ENDBRANCH  18  20
ENDBRANCH   1  18
TORSDOF 4
ENDMDL
MODEL 7
REMARK VINA RESULT:      -7.0      1.897      3.319
REMARK  Name = 
REMARK  6 active torsions:
REMARK  status: ('A' for Active; 'I' for Inactive)
REMARK    1  A    between atoms: C_1  and  C_2
REMARK    2  A    between atoms: C_2  and  O_3
REMARK    3  A    between atoms: O_3  and  C_4
REMARK    4  A    between atoms: C_4  and  C_6
REMARK    5  A    between atoms: C_6  and  C_7
REMARK    6  A    between atoms: C_12  and  C_14
REMARK                            x       y       z     vdW  Elec       q    Type
REMARK                         _______ _______ _______ _____ _____    ______ ____
ROOT
ATOM      1  C   UNL     1       6.377   5.110  16.259  0.00  0.00    +0.000 C 
ATOM      2  C   UNL     1       7.066   5.002  14.893  0.00  0.00    +0.000 C 
ATOM      3  C   UNL     1       7.358   4.684  17.374  0.00  0.00    +0.000 C 
ATOM      4  C   UNL     1       6.672   4.717  18.734  0.00  0.00    +0.000 C 
ATOM      5  C   UNL     1       5.440   3.827  18.749  0.00  0.00    +0.000 C 
ATOM      6  N   UNL     1       4.523   4.057  17.631  0.00  0.00    +0.000 N 
ATOM      7  C   UNL     1       3.146   3.753  17.665  0.00  0.00    +0.000 C 
ATOM      8  O   UNL     1       2.441   3.768  16.653  0.00  0.00    +0.000 OA
ATOM      9  C   UNL     1       5.142   4.182  16.301  0.00  0.00    +0.000 C 
ENDROOT
BRANCH   7  10
ATOM     10  C   UNL     1       2.469   3.430  18.940  0.00  0.00    +0.000 A 
ATOM     11  C   UNL     1       1.814   4.437  19.648  0.00  0.00    +0.000 A 
ATOM     12  F   UNL     1       1.763   5.695  19.186  0.00  0.00    +0.000 F 
ATOM     13  C   UNL     1       1.196   4.170  20.878  0.00  0.00    +0.000 A 
ATOM     14  C   UNL     1       1.255   2.892  21.422  0.00  0.00    +0.000 A 
ATOM     15  C   UNL     1       1.861   1.867  20.704  0.00  0.00    +0.000 A 
ATOM     16  C   UNL     1       2.413   2.134  19.451  0.00  0.00    +0.000 A 
ATOM     17  F   UNL     1       2.902   1.094  18.759  0.00  0.00    +0.000 F 
ENDBRANCH   7  10
BRANCH   1  18
ATOM     18  C   UNL     1       6.026   6.582  16.472  0.00  0.00    +0.000 C 
ATOM     19  O   UNL     1       6.871   7.458  16.634  0.00  0.00    +0.000 OA
BRANCH  18  20
ATOM     20  O   UNL     1       4.686   6.799  16.504  0.00  0.00    +0.000 OA
BRANCH  20  22
ATOM     21  C   UNL     1       2.827   7.990  17.404  0.00  0.00    +0.000 C 
ATOM     22  C   UNL     1       4.181   7.378  17.713  0.00  0.00    +0.000 C 
ENDBRANCH  20  22
ENDBRANCH  18  20
ENDBRANCH   1  18
TORSDOF 4
ENDMDL
MODEL 8
REMARK VINA RESULT:      -7.0      1.035      2.114
REMARK  Name = 
REMARK  6 active torsions:
REMARK  status: ('A' for Active; 'I' for Inactive)
REMARK    1  A    between atoms: C_1  and  C_2
REMARK    2  A    between atoms: C_2  and  O_3
REMARK    3  A    between atoms: O_3  and  C_4
REMARK    4  A    between atoms: C_4  and  C_6
REMARK    5  A    between atoms: C_6  and  C_7
REMARK    6  A    between atoms: C_12  and  C_14
REMARK                            x       y       z     vdW  Elec       q    Type
REMARK                         _______ _______ _______ _____ _____    ______ ____
ROOT
ATOM      1  C   UNL     1       6.210   6.695  17.373  0.00  0.00    +0.000 C 
ATOM      2  C   UNL     1       7.626   7.261  17.534  0.00  0.00    +0.000 C 
ATOM      3  C   UNL     1       5.176   7.840  17.473  0.00  0.00    +0.000 C 
ATOM      4  C   UNL     1       3.757   7.290  17.385  0.00  0.00    +0.000 C 
ATOM      5  C   UNL     1       3.502   6.256  18.470  0.00  0.00    +0.000 C 
ATOM      6  N   UNL     1       4.525   5.211  18.551  0.00  0.00    +0.000 N 
ATOM      7  C   UNL     1       4.299   3.926  19.086  0.00  0.00    +0.000 C 
ATOM      8  O   UNL     1       5.218   3.139  19.326  0.00  0.00    +0.000 OA
ATOM      9  C   UNL     1       5.923   5.668  18.492  0.00  0.00    +0.000 C 
ENDROOT
BRANCH   7  10
ATOM     10  C   UNL     1       2.925   3.444  19.357  0.00  0.00    +0.000 A 
ATOM     11  C   UNL     1       2.339   3.695  20.597  0.00  0.00    +0.000 A 
ATOM     12  F   UNL     1       2.983   4.386  21.547  0.00  0.00    +0.000 F 
ATOM     13  C   UNL     1       1.055   3.219  20.896  0.00  0.00    +0.000 A 
ATOM     14  C   UNL     1       0.359   2.461  19.960  0.00  0.00    +0.000 A 
ATOM     15  C   UNL     1       0.912   2.246  18.703  0.00  0.00    +0.000 A 
ATOM     16  C   UNL     1       2.162   2.783  18.396  0.00  0.00    +0.000 A 
ATOM     17  F   UNL     1       2.609   2.628  17.142  0.00  0.00    +0.000 F 
ENDBRANCH   7  10
BRANCH   1  18
ATOM     18  C   UNL     1       6.120   6.094  15.971  0.00  0.00    +0.000 C 
ATOM     19  O   UNL     1       5.494   6.618  15.055  0.00  0.00    +0.000 OA
BRANCH  18  20
ATOM     20  O   UNL     1       6.770   4.906  15.871  0.00  0.00    +0.000 OA
BRANCH  20  22
ATOM     21  C   UNL     1       6.257   3.754  13.848  0.00  0.00    +0.000 C 
ATOM     22  C   UNL     1       5.999   3.822  15.342  0.00  0.00    +0.000 C 
ENDBRANCH  20  22
ENDBRANCH  18  20
ENDBRANCH   1  18
TORSDOF 4
ENDMDL
MODEL 9
REMARK VINA RESULT:      -6.9      1.860      2.960
REMARK  Name = 
REMARK  6 active torsions:
REMARK  status: ('A' for Active; 'I' for Inactive)
REMARK    1  A    between atoms: C_1  and  C_2
REMARK    2  A    between atoms: C_2  and  O_3
REMARK    3  A    between atoms: O_3  and  C_4
REMARK    4  A    between atoms: C_4  and  C_6
REMARK    5  A    between atoms: C_6  and  C_7
REMARK    6  A    between atoms: C_12  and  C_14
REMARK                            x       y       z     vdW  Elec       q    Type
REMARK                         _______ _______ _______ _____ _____    ______ ____
ROOT
ATOM      1  C   UNL     1       6.412   5.112  16.225  0.00  0.00    +0.000 C 
ATOM      2  C   UNL     1       6.978   4.959  14.808  0.00  0.00    +0.000 C 
ATOM      3  C   UNL     1       7.467   4.659  17.259  0.00  0.00    +0.000 C 
ATOM      4  C   UNL     1       6.902   4.736  18.672  0.00  0.00    +0.000 C 
ATOM      5  C   UNL     1       5.641   3.896  18.805  0.00  0.00    +0.000 C 
ATOM      6  N   UNL     1       4.642   4.150  17.765  0.00  0.00    +0.000 N 
ATOM      7  C   UNL     1       3.262   3.902  17.920  0.00  0.00    +0.000 C 
ATOM      8  O   UNL     1       2.475   3.934  16.971  0.00  0.00    +0.000 OA
ATOM      9  C   UNL     1       5.150   4.234  16.386  0.00  0.00    +0.000 C 
ENDROOT
BRANCH   7  10
ATOM     10  C   UNL     1       2.684   3.621  19.253  0.00  0.00    +0.000 A 
ATOM     11  C   UNL     1       2.261   2.329  19.563  0.00  0.00    +0.000 A 
ATOM     12  F   UNL     1       2.389   1.323  18.686  0.00  0.00    +0.000 F 
ATOM     13  C   UNL     1       1.674   2.040  20.803  0.00  0.00    +0.000 A 
ATOM     14  C   UNL     1       1.481   3.056  21.733  0.00  0.00    +0.000 A 
ATOM     15  C   UNL     1       1.942   4.338  21.457  0.00  0.00    +0.000 A 
ATOM     16  C   UNL     1       2.585   4.595  20.246  0.00  0.00    +0.000 A 
ATOM     17  F   UNL     1       3.094   5.822  20.066  0.00  0.00    +0.000 F 
ENDBRANCH   7  10
BRANCH   1  18
ATOM     18  C   UNL     1       6.139   6.599  16.445  0.00  0.00    +0.000 C 
ATOM     19  O   UNL     1       7.025   7.421  16.654  0.00  0.00    +0.000 OA
BRANCH  18  20
ATOM     20  O   UNL     1       4.813   6.894  16.425  0.00  0.00    +0.000 OA
BRANCH  20  22
ATOM     21  C   UNL     1       2.805   7.690  17.433  0.00  0.00    +0.000 C 
ATOM     22  C   UNL     1       4.309   7.555  17.590  0.00  0.00    +0.000 C 
ENDBRANCH  20  22
ENDBRANCH  18  20
ENDBRANCH   1  18
TORSDOF 4
ENDMDL
