MODEL 1
REMARK VINA RESULT:      -7.2      0.000      0.000
REMARK  Name = 
REMARK  1 active torsions:
REMARK  status: ('A' for Active; 'I' for Inactive)
REMARK    1  A    between atoms: C_1  and  N_2
REMARK                            x       y       z     vdW  Elec       q    Type
REMARK                         _______ _______ _______ _____ _____    ______ ____
ROOT
ATOM      1  C   UNL     1       1.812   5.042  21.036  0.00  0.00    +0.000 C 
ATOM      2  N   UNL     1       2.393   5.800  19.947  0.00  0.00    +0.000 N 
ATOM      3  C   UNL     1       2.226   7.142  19.655  0.00  0.00    +0.000 A 
ATOM      4  C   UNL     1       2.875   7.364  18.441  0.00  0.00    +0.000 A 
ATOM      5  C   UNL     1       3.491   6.154  18.024  0.00  0.00    +0.000 A 
ATOM      6  C   UNL     1       4.270   5.790  16.904  0.00  0.00    +0.000 A 
ATOM      7  C   UNL     1       4.732   4.479  16.786  0.00  0.00    +0.000 A 
ATOM      8 CL   UNL     1       5.668   4.033  15.414  0.00  0.00    +0.000 Cl
ATOM      9  C   UNL     1       4.433   3.529  17.759  0.00  0.00    +0.000 A 
ATOM     10  C   UNL     1       3.664   3.870  18.875  0.00  0.00    +0.000 A 
ATOM     11  C   UNL     1       3.195   5.191  18.986  0.00  0.00    +0.000 A 
ATOM     12  C   UNL     1       2.908   8.677  17.740  0.00  0.00    +0.000 C 
ATOM     13  S   UNL     1       1.303   9.528  17.862  0.00  0.00    +0.000 S 
ATOM     14  C   UNL     1       0.992   9.312  19.624  0.00  0.00    +0.000 A 
ATOM     15  C   UNL     1       0.256  10.328  20.251  0.00  0.00    +0.000 A 
ATOM     16  C   UNL     1      -0.019  10.258  21.613  0.00  0.00    +0.000 A 
ATOM     17  C   UNL     1       0.453   9.180  22.354  0.00  0.00    +0.000 A 
ATOM     18  C   UNL     1       1.198   8.166  21.738  0.00  0.00    +0.000 A 
ATOM     19  C   UNL     1       1.453   8.190  20.361  0.00  0.00    +0.000 A 
ENDROOT
TORSDOF 0
ENDMDL
MODEL 2
REMARK VINA RESULT:      -7.1      3.180      6.512
REMARK  Name = 
REMARK  1 active torsions:
REMARK  status: ('A' for Active; 'I' for Inactive)
REMARK    1  A    between atoms: C_1  and  N_2
REMARK                            x       y       z     vdW  Elec       q    Type
REMARK                         _______ _______ _______ _____ _____    ______ ____
ROOT
ATOM      1  C   UNL     1       2.499   8.899  17.429  0.00  0.00    +0.000 C 
ATOM      2  N   UNL     1       2.177   8.230  18.673  0.00  0.00    +0.000 N 
ATOM      3  C   UNL     1       2.440   6.920  19.032  0.00  0.00    +0.000 A 
ATOM      4  C   UNL     1       1.819   6.717  20.264  0.00  0.00    +0.000 A 
ATOM      5  C   UNL     1       1.223   7.937  20.681  0.00  0.00    +0.000 A 
ATOM      6  C   UNL     1       0.483   8.323  21.820  0.00  0.00    +0.000 A 
ATOM      7  C   UNL     1       0.022   9.635  21.927  0.00  0.00    +0.000 A 
ATOM      8 CL   UNL     1      -0.892  10.100  23.307  0.00  0.00    +0.000 Cl
ATOM      9  C   UNL     1       0.285  10.565  20.925  0.00  0.00    +0.000 A 
ATOM     10  C   UNL     1       1.015  10.203  19.790  0.00  0.00    +0.000 A 
ATOM     11  C   UNL     1       1.472   8.877  19.684  0.00  0.00    +0.000 A 
ATOM     12  C   UNL     1       1.821   5.421  20.996  0.00  0.00    +0.000 C 
ATOM     13  S   UNL     1       1.622   4.019  19.852  0.00  0.00    +0.000 S 
ATOM     14  C   UNL     1       2.827   4.492  18.600  0.00  0.00    +0.000 A 
ATOM     15  C   UNL     1       3.462   3.439  17.923  0.00  0.00    +0.000 A 
ATOM     16  C   UNL     1       4.420   3.706  16.951  0.00  0.00    +0.000 A 
ATOM     17  C   UNL     1       4.757   5.024  16.661  0.00  0.00    +0.000 A 
ATOM     18  C   UNL     1       4.135   6.081  17.338  0.00  0.00    +0.000 A 
ATOM     19  C   UNL     1       3.137   5.842  18.292  0.00  0.00    +0.000 A 
ENDROOT
TORSDOF 0
ENDMDL
MODEL 3
REMARK VINA RESULT:      -6.9      3.940      4.993
REMARK  Name = 
REMARK  1 active torsions:
REMARK  status: ('A' for Active; 'I' for Inactive)
REMARK    1  A    between atoms: C_1  and  N_2
REMARK                            x       y       z     vdW  Elec       q    Type
REMARK                         _______ _______ _______ _____ _____    ______ ____
ROOT
ATOM      1  C   UNL     1       6.142   5.503  19.325  0.00  0.00    +0.000 C 
ATOM      2  N   UNL     1       5.432   4.913  18.210  0.00  0.00    +0.000 N 
ATOM      3  C   UNL     1       4.217   4.250  18.224  0.00  0.00    +0.000 A 
ATOM      4  C   UNL     1       4.025   3.753  16.936  0.00  0.00    +0.000 A 
ATOM      5  C   UNL     1       5.109   4.171  16.118  0.00  0.00    +0.000 A 
ATOM      6  C   UNL     1       5.438   3.977  14.759  0.00  0.00    +0.000 A 
ATOM      7  C   UNL     1       6.613   4.533  14.251  0.00  0.00    +0.000 A 
ATOM      8 CL   UNL     1       7.021   4.284  12.600  0.00  0.00    +0.000 Cl
ATOM      9  C   UNL     1       7.460   5.275  15.069  0.00  0.00    +0.000 A 
ATOM     10  C   UNL     1       7.152   5.478  16.417  0.00  0.00    +0.000 A 
ATOM     11  C   UNL     1       5.970   4.910  16.926  0.00  0.00    +0.000 A 
ATOM     12  C   UNL     1       2.850   2.938  16.522  0.00  0.00    +0.000 C 
ATOM     13  S   UNL     1       2.379   1.756  17.824  0.00  0.00    +0.000 S 
ATOM     14  C   UNL     1       2.412   2.862  19.246  0.00  0.00    +0.000 A 
ATOM     15  C   UNL     1       1.513   2.565  20.282  0.00  0.00    +0.000 A 
ATOM     16  C   UNL     1       1.453   3.372  21.413  0.00  0.00    +0.000 A 
ATOM     17  C   UNL     1       2.281   4.486  21.507  0.00  0.00    +0.000 A 
ATOM     18  C   UNL     1       3.174   4.796  20.473  0.00  0.00    +0.000 A 
ATOM     19  C   UNL     1       3.285   3.976  19.342  0.00  0.00    +0.000 A 
ENDROOT
TORSDOF 0
ENDMDL
MODEL 4
REMARK VINA RESULT:      -6.2      7.569      9.495
REMARK  Name = 
REMARK  1 active torsions:
REMARK  status: ('A' for Active; 'I' for Inactive)
REMARK    1  A    between atoms: C_1  and  N_2
REMARK                            x       y       z     vdW  Elec       q    Type
REMARK                         _______ _______ _______ _____ _____    ______ ____
ROOT
ATOM      1  C   UNL     1      -2.576  13.141  21.614  0.00  0.00    +0.000 C 
ATOM      2  N   UNL     1      -3.550  12.711  20.633  0.00  0.00    +0.000 N 
ATOM      3  C   UNL     1      -4.925  12.633  20.770  0.00  0.00    +0.000 A 
ATOM      4  C   UNL     1      -5.404  12.037  19.604  0.00  0.00    +0.000 A 
ATOM      5  C   UNL     1      -4.310  11.805  18.726  0.00  0.00    +0.000 A 
ATOM      6  C   UNL     1      -4.196  11.248  17.435  0.00  0.00    +0.000 A 
ATOM      7  C   UNL     1      -2.939  11.157  16.835  0.00  0.00    +0.000 A 
ATOM      8 CL   UNL     1      -2.799  10.463  15.268  0.00  0.00    +0.000 Cl
ATOM      9  C   UNL     1      -1.801  11.610  17.496  0.00  0.00    +0.000 A 
ATOM     10  C   UNL     1      -1.894  12.166  18.775  0.00  0.00    +0.000 A 
ATOM     11  C   UNL     1      -3.162  12.249  19.378  0.00  0.00    +0.000 A 
ATOM     12  C   UNL     1      -6.838  11.729  19.352  0.00  0.00    +0.000 C 
ATOM     13  S   UNL     1      -7.653  11.113  20.859  0.00  0.00    +0.000 S 
ATOM     14  C   UNL     1      -7.057  12.342  22.035  0.00  0.00    +0.000 A 
ATOM     15  C   UNL     1      -7.916  12.643  23.103  0.00  0.00    +0.000 A 
ATOM     16  C   UNL     1      -7.550  13.592  24.052  0.00  0.00    +0.000 A 
ATOM     17  C   UNL     1      -6.333  14.253  23.928  0.00  0.00    +0.000 A 
ATOM     18  C   UNL     1      -5.473  13.965  22.860  0.00  0.00    +0.000 A 
ATOM     19  C   UNL     1      -5.798  12.984  21.914  0.00  0.00    +0.000 A 
ENDROOT
TORSDOF 0
ENDMDL
MODEL 5
REMARK VINA RESULT:      -6.0      7.948     10.732
REMARK  Name = 
REMARK  1 active torsions:
REMARK  status: ('A' for Active; 'I' for Inactive)
REMARK    1  A    between atoms: C_1  and  N_2
REMARK                            x       y       z     vdW  Elec       q    Type
REMARK                         _______ _______ _______ _____ _____    ______ ____
ROOT
ATOM      1  C   UNL     1      -2.017  12.603  20.900  0.00  0.00    +0.000 C 
ATOM      2  N   UNL     1      -3.452  12.475  20.744  0.00  0.00    +0.000 N 
ATOM      3  C   UNL     1      -4.155  12.018  19.643  0.00  0.00    +0.000 A 
ATOM      4  C   UNL     1      -5.505  12.211  19.931  0.00  0.00    +0.000 A 
ATOM      5  C   UNL     1      -5.622  12.737  21.246  0.00  0.00    +0.000 A 
ATOM      6  C   UNL     1      -6.717  13.114  22.053  0.00  0.00    +0.000 A 
ATOM      7  C   UNL     1      -6.484  13.613  23.336  0.00  0.00    +0.000 A 
ATOM      8 CL   UNL     1      -7.817  14.087  24.312  0.00  0.00    +0.000 Cl
ATOM      9  C   UNL     1      -5.187  13.743  23.824  0.00  0.00    +0.000 A 
ATOM     10  C   UNL     1      -4.090  13.375  23.040  0.00  0.00    +0.000 A 
ATOM     11  C   UNL     1      -4.329  12.878  21.746  0.00  0.00    +0.000 A 
ATOM     12  C   UNL     1      -6.613  11.888  18.992  0.00  0.00    +0.000 C 
ATOM     13  S   UNL     1      -6.175  12.328  17.280  0.00  0.00    +0.000 S 
ATOM     14  C   UNL     1      -4.525  11.608  17.209  0.00  0.00    +0.000 A 
ATOM     15  C   UNL     1      -4.109  11.138  15.954  0.00  0.00    +0.000 A 
ATOM     16  C   UNL     1      -2.857  10.551  15.803  0.00  0.00    +0.000 A 
ATOM     17  C   UNL     1      -2.024  10.417  16.909  0.00  0.00    +0.000 A 
ATOM     18  C   UNL     1      -2.435  10.874  18.168  0.00  0.00    +0.000 A 
ATOM     19  C   UNL     1      -3.672  11.508  18.339  0.00  0.00    +0.000 A 
ENDROOT
TORSDOF 0
ENDMDL
MODEL 6
REMARK VINA RESULT:      -6.0      3.527      5.092
REMARK  Name = 
REMARK  1 active torsions:
REMARK  status: ('A' for Active; 'I' for Inactive)
REMARK    1  A    between atoms: C_1  and  N_2
REMARK                            x       y       z     vdW  Elec       q    Type
REMARK                         _______ _______ _______ _____ _____    ______ ____
ROOT
ATOM      1  C   UNL     1       3.627   6.801  18.338  0.00  0.00    +0.000 C 
ATOM      2  N   UNL     1       3.893   5.514  17.729  0.00  0.00    +0.000 N 
ATOM      3  C   UNL     1       3.517   4.261  18.179  0.00  0.00    +0.000 A 
ATOM      4  C   UNL     1       4.122   3.339  17.326  0.00  0.00    +0.000 A 
ATOM      5  C   UNL     1       4.826   4.044  16.314  0.00  0.00    +0.000 A 
ATOM      6  C   UNL     1       5.600   3.645  15.203  0.00  0.00    +0.000 A 
ATOM      7  C   UNL     1       6.175   4.616  14.382  0.00  0.00    +0.000 A 
ATOM      8 CL   UNL     1       7.131   4.129  13.039  0.00  0.00    +0.000 Cl
ATOM      9  C   UNL     1       5.992   5.970  14.647  0.00  0.00    +0.000 A 
ATOM     10  C   UNL     1       5.229   6.386  15.742  0.00  0.00    +0.000 A 
ATOM     11  C   UNL     1       4.656   5.403  16.570  0.00  0.00    +0.000 A 
ATOM     12  C   UNL     1       4.009   1.862  17.478  0.00  0.00    +0.000 C 
ATOM     13  S   UNL     1       4.080   1.374  19.231  0.00  0.00    +0.000 S 
ATOM     14  C   UNL     1       2.917   2.568  19.913  0.00  0.00    +0.000 A 
ATOM     15  C   UNL     1       2.189   2.151  21.038  0.00  0.00    +0.000 A 
ATOM     16  C   UNL     1       1.255   2.998  21.624  0.00  0.00    +0.000 A 
ATOM     17  C   UNL     1       1.034   4.259  21.080  0.00  0.00    +0.000 A 
ATOM     18  C   UNL     1       1.749   4.681  19.952  0.00  0.00    +0.000 A 
ATOM     19  C   UNL     1       2.726   3.864  19.367  0.00  0.00    +0.000 A 
ENDROOT
TORSDOF 0
ENDMDL
MODEL 7
REMARK VINA RESULT:      -6.0      2.485      4.182
REMARK  Name = 
REMARK  1 active torsions:
REMARK  status: ('A' for Active; 'I' for Inactive)
REMARK    1  A    between atoms: C_1  and  N_2
REMARK                            x       y       z     vdW  Elec       q    Type
REMARK                         _______ _______ _______ _____ _____    ______ ____
ROOT
ATOM      1  C   UNL     1       1.756  10.718  18.011  0.00  0.00    +0.000 C 
ATOM      2  N   UNL     1       1.392   9.703  18.979  0.00  0.00    +0.000 N 
ATOM      3  C   UNL     1       0.516   9.813  20.045  0.00  0.00    +0.000 A 
ATOM      4  C   UNL     1       0.607   8.616  20.754  0.00  0.00    +0.000 A 
ATOM      5  C   UNL     1       1.506   7.750  20.076  0.00  0.00    +0.000 A 
ATOM      6  C   UNL     1       1.971   6.440  20.320  0.00  0.00    +0.000 A 
ATOM      7  C   UNL     1       2.883   5.859  19.437  0.00  0.00    +0.000 A 
ATOM      8 CL   UNL     1       3.461   4.269  19.743  0.00  0.00    +0.000 Cl
ATOM      9  C   UNL     1       3.336   6.558  18.321  0.00  0.00    +0.000 A 
ATOM     10  C   UNL     1       2.887   7.856  18.062  0.00  0.00    +0.000 A 
ATOM     11  C   UNL     1       1.973   8.439  18.959  0.00  0.00    +0.000 A 
ATOM     12  C   UNL     1      -0.147   8.327  22.004  0.00  0.00    +0.000 C 
ATOM     13  S   UNL     1      -0.225   9.794  23.079  0.00  0.00    +0.000 S 
ATOM     14  C   UNL     1      -0.700  11.027  21.855  0.00  0.00    +0.000 A 
ATOM     15  C   UNL     1      -1.488  12.091  22.321  0.00  0.00    +0.000 A 
ATOM     16  C   UNL     1      -1.919  13.083  21.447  0.00  0.00    +0.000 A 
ATOM     17  C   UNL     1      -1.577  13.007  20.100  0.00  0.00    +0.000 A 
ATOM     18  C   UNL     1      -0.799  11.944  19.624  0.00  0.00    +0.000 A 
ATOM     19  C   UNL     1      -0.316  10.954  20.490  0.00  0.00    +0.000 A 
ENDROOT
TORSDOF 0
ENDMDL
MODEL 8
REMARK VINA RESULT:      -6.0      3.215      6.464
REMARK  Name = 
REMARK  1 active torsions:
REMARK  status: ('A' for Active; 'I' for Inactive)
REMARK    1  A    between atoms: C_1  and  N_2
REMARK                            x       y       z     vdW  Elec       q    Type
REMARK                         _______ _______ _______ _____ _____    ______ ____
ROOT
ATOM      1  C   UNL     1       3.133   2.695  17.415  0.00  0.00    +0.000 C 
ATOM      2  N   UNL     1       3.324   4.108  17.672  0.00  0.00    +0.000 N 
ATOM      3  C   UNL     1       4.222   4.973  17.072  0.00  0.00    +0.000 A 
ATOM      4  C   UNL     1       4.115   6.185  17.752  0.00  0.00    +0.000 A 
ATOM      5  C   UNL     1       3.098   6.068  18.738  0.00  0.00    +0.000 A 
ATOM      6  C   UNL     1       2.561   6.955  19.696  0.00  0.00    +0.000 A 
ATOM      7  C   UNL     1       1.542   6.516  20.542  0.00  0.00    +0.000 A 
ATOM      8 CL   UNL     1       0.899   7.591  21.719  0.00  0.00    +0.000 Cl
ATOM      9  C   UNL     1       1.052   5.216  20.450  0.00  0.00    +0.000 A 
ATOM     10  C   UNL     1       1.570   4.324  19.508  0.00  0.00    +0.000 A 
ATOM     11  C   UNL     1       2.602   4.769  18.661  0.00  0.00    +0.000 A 
ATOM     12  C   UNL     1       4.939   7.387  17.450  0.00  0.00    +0.000 C 
ATOM     13  S   UNL     1       6.660   6.926  17.070  0.00  0.00    +0.000 S 
ATOM     14  C   UNL     1       6.351   5.576  15.918  0.00  0.00    +0.000 A 
ATOM     15  C   UNL     1       7.314   5.387  14.914  0.00  0.00    +0.000 A 
ATOM     16  C   UNL     1       7.154   4.381  13.968  0.00  0.00    +0.000 A 
ATOM     17  C   UNL     1       6.025   3.570  14.012  0.00  0.00    +0.000 A 
ATOM     18  C   UNL     1       5.054   3.757  15.004  0.00  0.00    +0.000 A 
ATOM     19  C   UNL     1       5.211   4.735  15.995  0.00  0.00    +0.000 A 
ENDROOT
TORSDOF 0
ENDMDL
MODEL 9
REMARK VINA RESULT:      -5.9      2.693      4.423
REMARK  Name = 
REMARK  1 active torsions:
REMARK  status: ('A' for Active; 'I' for Inactive)
REMARK    1  A    between atoms: C_1  and  N_2
REMARK                            x       y       z     vdW  Elec       q    Type
REMARK                         _______ _______ _______ _____ _____    ______ ____
ROOT
ATOM      1  C   UNL     1      -0.405   8.846  22.729  0.00  0.00    +0.000 C 
ATOM      2  N   UNL     1       0.043   9.380  21.460  0.00  0.00    +0.000 N 
ATOM      3  C   UNL     1      -0.332  10.564  20.850  0.00  0.00    +0.000 A 
ATOM      4  C   UNL     1       0.265  10.565  19.591  0.00  0.00    +0.000 A 
ATOM      5  C   UNL     1       1.059   9.394  19.460  0.00  0.00    +0.000 A 
ATOM      6  C   UNL     1       1.876   8.878  18.431  0.00  0.00    +0.000 A 
ATOM      7  C   UNL     1       2.535   7.662  18.623  0.00  0.00    +0.000 A 
ATOM      8 CL   UNL     1       3.518   7.027  17.364  0.00  0.00    +0.000 Cl
ATOM      9  C   UNL     1       2.394   6.957  19.814  0.00  0.00    +0.000 A 
ATOM     10  C   UNL     1       1.590   7.451  20.845  0.00  0.00    +0.000 A 
ATOM     11  C   UNL     1       0.922   8.674  20.644  0.00  0.00    +0.000 A 
ATOM     12  C   UNL     1       0.089  11.647  18.584  0.00  0.00    +0.000 C 
ATOM     13  S   UNL     1      -1.628  12.254  18.564  0.00  0.00    +0.000 S 
ATOM     14  C   UNL     1      -1.888  12.448  20.336  0.00  0.00    +0.000 A 
ATOM     15  C   UNL     1      -2.768  13.470  20.724  0.00  0.00    +0.000 A 
ATOM     16  C   UNL     1      -3.019  13.707  22.071  0.00  0.00    +0.000 A 
ATOM     17  C   UNL     1      -2.379  12.934  23.036  0.00  0.00    +0.000 A 
ATOM     18  C   UNL     1      -1.491  11.919  22.658  0.00  0.00    +0.000 A 
ATOM     19  C   UNL     1      -1.253  11.631  21.308  0.00  0.00    +0.000 A 
ENDROOT
TORSDOF 0
ENDMDL
