MODEL 1
REMARK VINA RESULT:      -8.6      0.000      0.000
REMARK  Name = 
REMARK  8 active torsions:
REMARK  status: ('A' for Active; 'I' for Inactive)
REMARK    1  A    between atoms: C_1  and  O_2
REMARK    2  A    between atoms: O_2  and  C_3
REMARK    3  A    between atoms: C_8  and  C_9
REMARK    4  A    between atoms: C_9  and  C_10
REMARK    5  A    between atoms: C_9  and  N_22
REMARK    6  A    between atoms: N_14  and  C_15
REMARK    7  A    between atoms: C_15  and  C_16
REMARK    8  A    between atoms: C_29  and  O_30
REMARK                            x       y       z     vdW  Elec       q    Type
REMARK                         _______ _______ _______ _____ _____    ______ ____
ROOT
ATOM      1  C   UNL     1       3.728   5.482  18.261  0.00  0.00    +0.000 C 
ENDROOT
BRANCH   1   7
ATOM      2  C   UNL     1       0.945  11.254  19.603  0.00  0.00    +0.000 A 
ATOM      3  C   UNL     1       1.706  11.443  18.457  0.00  0.00    +0.000 A 
ATOM      4  C   UNL     1       2.304  10.339  17.823  0.00  0.00    +0.000 A 
ATOM      5  C   UNL     1       2.198   9.053  18.383  0.00  0.00    +0.000 A 
ATOM      6  C   UNL     1       2.852   7.913  17.856  0.00  0.00    +0.000 A 
ATOM      7  C   UNL     1       2.888   6.718  18.583  0.00  0.00    +0.000 A 
ATOM      8  C   UNL     1       2.258   6.785  19.820  0.00  0.00    +0.000 A 
ATOM      9  N   UNL     1       1.506   7.782  20.294  0.00  0.00    +0.000 NA
ATOM     10  C   UNL     1       1.483   8.903  19.584  0.00  0.00    +0.000 A 
ATOM     11  C   UNL     1       0.826   9.978  20.140  0.00  0.00    +0.000 A 
BRANCH   2  13
ATOM     12  C   UNL     1      -0.860  11.863  21.008  0.00  0.00    +0.000 C 
ATOM     13  O   UNL     1       0.340  12.228  20.345  0.00  0.00    +0.000 OA
ENDBRANCH   2  13
BRANCH   8  14
ATOM     14  O   UNL     1       2.616   5.950  20.825  0.00  0.00    +0.000 OA
ATOM     15  H   UNL     1       2.636   6.600  21.555  0.00  0.00    +0.000 HD
ENDBRANCH   8  14
ENDBRANCH   1   7
BRANCH   1  16
ATOM     16  N   UNL     1       3.065   4.139  18.445  0.00  0.00    +0.000 NA
ATOM     17  C   UNL     1       3.906   2.959  18.296  0.00  0.00    +0.000 C 
ATOM     18  C   UNL     1       3.293   1.546  18.217  0.00  0.00    +0.000 C 
ATOM     19  C   UNL     1       2.132   1.245  19.155  0.00  0.00    +0.000 C 
ATOM     20  C   UNL     1       0.819   1.766  18.596  0.00  0.00    +0.000 C 
ATOM     21  C   UNL     1       0.694   3.275  18.697  0.00  0.00    +0.000 C 
ATOM     22  C   UNL     1       1.706   4.097  17.881  0.00  0.00    +0.000 C 
ENDBRANCH   1  16
BRANCH   1  23
ATOM     23  C   UNL     1       5.240   5.624  18.503  0.00  0.00    +0.000 A 
ATOM     24  N   UNL     1       5.768   5.663  19.719  0.00  0.00    +0.000 NA
ATOM     25  N   UNL     1       7.101   5.332  19.602  0.00  0.00    +0.000 NA
ATOM     26  N   UNL     1       7.412   5.139  18.332  0.00  0.00    +0.000 NA
ATOM     27  N   UNL     1       6.296   5.400  17.614  0.00  0.00    +0.000 N 
BRANCH  27  28
ATOM     28  C   UNL     1       6.527   6.027  16.317  0.00  0.00    +0.000 C 
BRANCH  28  29
ATOM     29  C   UNL     1       6.390   5.188  15.073  0.00  0.00    +0.000 A 
ATOM     30  C   UNL     1       7.461   5.269  14.162  0.00  0.00    +0.000 A 
ATOM     31  C   UNL     1       7.426   4.610  12.937  0.00  0.00    +0.000 A 
ATOM     32  C   UNL     1       6.333   3.814  12.618  0.00  0.00    +0.000 A 
ATOM     33  C   UNL     1       5.316   3.629  13.555  0.00  0.00    +0.000 A 
ATOM     34  C   UNL     1       5.347   4.298  14.788  0.00  0.00    +0.000 A 
ENDBRANCH  28  29
ENDBRANCH  27  28
ENDBRANCH   1  23
TORSDOF 7
ENDMDL
MODEL 2
REMARK VINA RESULT:      -8.5      1.253      1.637
REMARK  Name = 
REMARK  8 active torsions:
REMARK  status: ('A' for Active; 'I' for Inactive)
REMARK    1  A    between atoms: C_1  and  O_2
REMARK    2  A    between atoms: O_2  and  C_3
REMARK    3  A    between atoms: C_8  and  C_9
REMARK    4  A    between atoms: C_9  and  C_10
REMARK    5  A    between atoms: C_9  and  N_22
REMARK    6  A    between atoms: N_14  and  C_15
REMARK    7  A    between atoms: C_15  and  C_16
REMARK    8  A    between atoms: C_29  and  O_30
REMARK                            x       y       z     vdW  Elec       q    Type
REMARK                         _______ _______ _______ _____ _____    ______ ____
ROOT
ATOM      1  C   UNL     1       4.054   5.521  18.237  0.00  0.00    +0.000 C 
ENDROOT
BRANCH   1   7
ATOM      2  C   UNL     1       0.182  10.609  19.642  0.00  0.00    +0.000 A 
ATOM      3  C   UNL     1      -0.064   9.649  20.614  0.00  0.00    +0.000 A 
ATOM      4  C   UNL     1       0.735   8.494  20.677  0.00  0.00    +0.000 A 
ATOM      5  C   UNL     1       1.738   8.269  19.716  0.00  0.00    +0.000 A 
ATOM      6  C   UNL     1       2.516   7.087  19.659  0.00  0.00    +0.000 A 
ATOM      7  C   UNL     1       3.334   6.831  18.552  0.00  0.00    +0.000 A 
ATOM      8  C   UNL     1       3.279   7.809  17.566  0.00  0.00    +0.000 A 
ATOM      9  N   UNL     1       2.682   9.001  17.638  0.00  0.00    +0.000 NA
ATOM     10  C   UNL     1       1.916   9.223  18.699  0.00  0.00    +0.000 A 
ATOM     11  C   UNL     1       1.188  10.392  18.708  0.00  0.00    +0.000 A 
BRANCH   2  13
ATOM     12  C   UNL     1      -1.437  11.746  18.343  0.00  0.00    +0.000 C 
ATOM     13  O   UNL     1      -0.531  11.755  19.434  0.00  0.00    +0.000 OA
ENDBRANCH   2  13
BRANCH   8  14
ATOM     14  O   UNL     1       3.572   7.509  16.277  0.00  0.00    +0.000 OA
ATOM     15  H   UNL     1       4.465   7.902  16.235  0.00  0.00    +0.000 HD
ENDBRANCH   8  14
ENDBRANCH   1   7
BRANCH   1  16
ATOM     16  N   UNL     1       3.284   4.244  18.472  0.00  0.00    +0.000 NA
ATOM     17  C   UNL     1       4.031   2.996  18.397  0.00  0.00    +0.000 C 
ATOM     18  C   UNL     1       3.310   1.633  18.373  0.00  0.00    +0.000 C 
ATOM     19  C   UNL     1       2.114   1.471  19.301  0.00  0.00    +0.000 C 
ATOM     20  C   UNL     1       0.855   2.064  18.690  0.00  0.00    +0.000 C 
ATOM     21  C   UNL     1       0.849   3.582  18.717  0.00  0.00    +0.000 C 
ATOM     22  C   UNL     1       1.936   4.281  17.883  0.00  0.00    +0.000 C 
ENDBRANCH   1  16
BRANCH   1  23
ATOM     23  C   UNL     1       5.580   5.536  18.435  0.00  0.00    +0.000 A 
ATOM     24  N   UNL     1       6.145   5.521  19.634  0.00  0.00    +0.000 NA
ATOM     25  N   UNL     1       7.442   5.084  19.475  0.00  0.00    +0.000 NA
ATOM     26  N   UNL     1       7.699   4.878  18.194  0.00  0.00    +0.000 NA
ATOM     27  N   UNL     1       6.587   5.236  17.513  0.00  0.00    +0.000 N 
BRANCH  27  28
ATOM     28  C   UNL     1       6.830   5.854  16.214  0.00  0.00    +0.000 C 
BRANCH  28  29
ATOM     29  C   UNL     1       6.546   5.055  14.968  0.00  0.00    +0.000 A 
ATOM     30  C   UNL     1       7.519   5.141  13.953  0.00  0.00    +0.000 A 
ATOM     31  C   UNL     1       7.343   4.520  12.720  0.00  0.00    +0.000 A 
ATOM     32  C   UNL     1       6.203   3.758  12.495  0.00  0.00    +0.000 A 
ATOM     33  C   UNL     1       5.283   3.566  13.527  0.00  0.00    +0.000 A 
ATOM     34  C   UNL     1       5.457   4.197  14.767  0.00  0.00    +0.000 A 
ENDBRANCH  28  29
ENDBRANCH  27  28
ENDBRANCH   1  23
TORSDOF 7
ENDMDL
MODEL 3
REMARK VINA RESULT:      -8.1      1.141      1.819
REMARK  Name = 
REMARK  8 active torsions:
REMARK  status: ('A' for Active; 'I' for Inactive)
REMARK    1  A    between atoms: C_1  and  O_2
REMARK    2  A    between atoms: O_2  and  C_3
REMARK    3  A    between atoms: C_8  and  C_9
REMARK    4  A    between atoms: C_9  and  C_10
REMARK    5  A    between atoms: C_9  and  N_22
REMARK    6  A    between atoms: N_14  and  C_15
REMARK    7  A    between atoms: C_15  and  C_16
REMARK    8  A    between atoms: C_29  and  O_30
REMARK                            x       y       z     vdW  Elec       q    Type
REMARK                         _______ _______ _______ _____ _____    ______ ____
ROOT
ATOM      1  C   UNL     1       3.809   5.594  18.301  0.00  0.00    +0.000 C 
ENDROOT
BRANCH   1   7
ATOM      2  C   UNL     1      -0.035  10.472  20.372  0.00  0.00    +0.000 A 
ATOM      3  C   UNL     1      -0.191   9.436  21.284  0.00  0.00    +0.000 A 
ATOM      4  C   UNL     1       0.631   8.298  21.199  0.00  0.00    +0.000 A 
ATOM      5  C   UNL     1       1.562   8.169  20.152  0.00  0.00    +0.000 A 
ATOM      6  C   UNL     1       2.355   7.013  19.947  0.00  0.00    +0.000 A 
ATOM      7  C   UNL     1       3.091   6.860  18.767  0.00  0.00    +0.000 A 
ATOM      8  C   UNL     1       2.945   7.908  17.866  0.00  0.00    +0.000 A 
ATOM      9  N   UNL     1       2.334   9.077  18.073  0.00  0.00    +0.000 NA
ATOM     10  C   UNL     1       1.647   9.201  19.201  0.00  0.00    +0.000 A 
ATOM     11  C   UNL     1       0.901  10.349  19.353  0.00  0.00    +0.000 A 
BRANCH   2  13
ATOM     12  C   UNL     1      -0.165  12.799  20.782  0.00  0.00    +0.000 C 
ATOM     13  O   UNL     1      -0.782  11.613  20.307  0.00  0.00    +0.000 OA
ENDBRANCH   2  13
BRANCH   8  14
ATOM     14  O   UNL     1       3.145   7.712  16.539  0.00  0.00    +0.000 OA
ATOM     15  H   UNL     1       2.233   7.467  16.289  0.00  0.00    +0.000 HD
ENDBRANCH   8  14
ENDBRANCH   1   7
BRANCH   1  16
ATOM     16  N   UNL     1       3.086   4.285  18.504  0.00  0.00    +0.000 NA
ATOM     17  C   UNL     1       3.871   3.066  18.363  0.00  0.00    +0.000 C 
ATOM     18  C   UNL     1       3.193   1.682  18.304  0.00  0.00    +0.000 C 
ATOM     19  C   UNL     1       2.027   1.445  19.253  0.00  0.00    +0.000 C 
ATOM     20  C   UNL     1       0.735   2.019  18.697  0.00  0.00    +0.000 C 
ATOM     21  C   UNL     1       0.681   3.533  18.783  0.00  0.00    +0.000 C 
ATOM     22  C   UNL     1       1.723   4.299  17.950  0.00  0.00    +0.000 C 
ENDBRANCH   1  16
BRANCH   1  23
ATOM     23  C   UNL     1       5.345   5.635  18.373  0.00  0.00    +0.000 A 
ATOM     24  N   UNL     1       6.008   5.565  19.520  0.00  0.00    +0.000 NA
ATOM     25  N   UNL     1       7.295   5.168  19.230  0.00  0.00    +0.000 NA
ATOM     26  N   UNL     1       7.449   5.042  17.922  0.00  0.00    +0.000 NA
ATOM     27  N   UNL     1       6.278   5.412  17.356  0.00  0.00    +0.000 N 
BRANCH  27  28
ATOM     28  C   UNL     1       6.400   6.108  16.080  0.00  0.00    +0.000 C 
BRANCH  28  29
ATOM     29  C   UNL     1       6.444   5.294  14.812  0.00  0.00    +0.000 A 
ATOM     30  C   UNL     1       5.297   4.522  14.544  0.00  0.00    +0.000 A 
ATOM     31  C   UNL     1       5.238   3.662  13.451  0.00  0.00    +0.000 A 
ATOM     32  C   UNL     1       6.313   3.595  12.574  0.00  0.00    +0.000 A 
ATOM     33  C   UNL     1       7.411   4.437  12.759  0.00  0.00    +0.000 A 
ATOM     34  C   UNL     1       7.474   5.298  13.864  0.00  0.00    +0.000 A 
ENDBRANCH  28  29
ENDBRANCH  27  28
ENDBRANCH   1  23
TORSDOF 7
ENDMDL
MODEL 4
REMARK VINA RESULT:      -8.1      0.725      1.157
REMARK  Name = 
REMARK  8 active torsions:
REMARK  status: ('A' for Active; 'I' for Inactive)
REMARK    1  A    between atoms: C_1  and  O_2
REMARK    2  A    between atoms: O_2  and  C_3
REMARK    3  A    between atoms: C_8  and  C_9
REMARK    4  A    between atoms: C_9  and  C_10
REMARK    5  A    between atoms: C_9  and  N_22
REMARK    6  A    between atoms: N_14  and  C_15
REMARK    7  A    between atoms: C_15  and  C_16
REMARK    8  A    between atoms: C_29  and  O_30
REMARK                            x       y       z     vdW  Elec       q    Type
REMARK                         _______ _______ _______ _____ _____    ______ ____
ROOT
ATOM      1  C   UNL     1       3.504   5.617  17.902  0.00  0.00    +0.000 C 
ENDROOT
BRANCH   1   7
ATOM      2  C   UNL     1       0.963  11.309  19.905  0.00  0.00    +0.000 A 
ATOM      3  C   UNL     1       1.538  11.551  18.665  0.00  0.00    +0.000 A 
ATOM      4  C   UNL     1       2.031  10.479  17.899  0.00  0.00    +0.000 A 
ATOM      5  C   UNL     1       2.013   9.170  18.413  0.00  0.00    +0.000 A 
ATOM      6  C   UNL     1       2.577   8.057  17.742  0.00  0.00    +0.000 A 
ATOM      7  C   UNL     1       2.724   6.832  18.403  0.00  0.00    +0.000 A 
ATOM      8  C   UNL     1       2.293   6.843  19.724  0.00  0.00    +0.000 A 
ATOM      9  N   UNL     1       1.623   7.814  20.350  0.00  0.00    +0.000 NA
ATOM     10  C   UNL     1       1.491   8.965  19.702  0.00  0.00    +0.000 A 
ATOM     11  C   UNL     1       0.928  10.010  20.399  0.00  0.00    +0.000 A 
BRANCH   2  13
ATOM     12  C   UNL     1       1.252  13.427  20.920  0.00  0.00    +0.000 C 
ATOM     13  O   UNL     1       0.480  12.246  20.772  0.00  0.00    +0.000 OA
ENDBRANCH   2  13
BRANCH   8  14
ATOM     14  O   UNL     1       2.802   5.968  20.625  0.00  0.00    +0.000 OA
ATOM     15  H   UNL     1       2.542   6.433  21.443  0.00  0.00    +0.000 HD
ENDBRANCH   8  14
ENDBRANCH   1   7
BRANCH   1  16
ATOM     16  N   UNL     1       2.968   4.258  18.281  0.00  0.00    +0.000 NA
ATOM     17  C   UNL     1       3.878   3.128  18.153  0.00  0.00    +0.000 C 
ATOM     18  C   UNL     1       3.370   1.676  18.273  0.00  0.00    +0.000 C 
ATOM     19  C   UNL     1       2.338   1.395  19.356  0.00  0.00    +0.000 C 
ATOM     20  C   UNL     1       0.938   1.768  18.897  0.00  0.00    +0.000 C 
ATOM     21  C   UNL     1       0.709   3.268  18.870  0.00  0.00    +0.000 C 
ATOM     22  C   UNL     1       1.566   4.069  17.875  0.00  0.00    +0.000 C 
ENDBRANCH   1  16
BRANCH   1  23
ATOM     23  C   UNL     1       5.020   5.820  17.741  0.00  0.00    +0.000 A 
ATOM     24  N   UNL     1       5.832   5.990  18.775  0.00  0.00    +0.000 NA
ATOM     25  N   UNL     1       7.108   5.683  18.355  0.00  0.00    +0.000 NA
ATOM     26  N   UNL     1       7.102   5.376  17.069  0.00  0.00    +0.000 NA
ATOM     27  N   UNL     1       5.831   5.538  16.637  0.00  0.00    +0.000 N 
BRANCH  27  28
ATOM     28  C   UNL     1       5.700   6.041  15.274  0.00  0.00    +0.000 C 
BRANCH  28  29
ATOM     29  C   UNL     1       6.094   5.143  14.130  0.00  0.00    +0.000 A 
ATOM     30  C   UNL     1       5.117   4.214  13.719  0.00  0.00    +0.000 A 
ATOM     31  C   UNL     1       5.379   3.272  12.730  0.00  0.00    +0.000 A 
ATOM     32  C   UNL     1       6.615   3.272  12.095  0.00  0.00    +0.000 A 
ATOM     33  C   UNL     1       7.554   4.256  12.406  0.00  0.00    +0.000 A 
ATOM     34  C   UNL     1       7.293   5.202  13.409  0.00  0.00    +0.000 A 
ENDBRANCH  28  29
ENDBRANCH  27  28
ENDBRANCH   1  23
TORSDOF 7
ENDMDL
MODEL 5
REMARK VINA RESULT:      -8.0      1.123      1.463
REMARK  Name = 
REMARK  8 active torsions:
REMARK  status: ('A' for Active; 'I' for Inactive)
REMARK    1  A    between atoms: C_1  and  O_2
REMARK    2  A    between atoms: O_2  and  C_3
REMARK    3  A    between atoms: C_8  and  C_9
REMARK    4  A    between atoms: C_9  and  C_10
REMARK    5  A    between atoms: C_9  and  N_22
REMARK    6  A    between atoms: N_14  and  C_15
REMARK    7  A    between atoms: C_15  and  C_16
REMARK    8  A    between atoms: C_29  and  O_30
REMARK                            x       y       z     vdW  Elec       q    Type
REMARK                         _______ _______ _______ _____ _____    ______ ____
ROOT
ATOM      1  C   UNL     1       3.307   5.924  17.786  0.00  0.00    +0.000 C 
ENDROOT
BRANCH   1   7
ATOM      2  C   UNL     1       0.981  11.660  19.919  0.00  0.00    +0.000 A 
ATOM      3  C   UNL     1       1.510  11.896  18.658  0.00  0.00    +0.000 A 
ATOM      4  C   UNL     1       1.948  10.818  17.868  0.00  0.00    +0.000 A 
ATOM      5  C   UNL     1       1.920   9.506  18.375  0.00  0.00    +0.000 A 
ATOM      6  C   UNL     1       2.431   8.385  17.676  0.00  0.00    +0.000 A 
ATOM      7  C   UNL     1       2.576   7.153  18.324  0.00  0.00    +0.000 A 
ATOM      8  C   UNL     1       2.199   7.166  19.661  0.00  0.00    +0.000 A 
ATOM      9  N   UNL     1       1.577   8.148  20.319  0.00  0.00    +0.000 NA
ATOM     10  C   UNL     1       1.446   9.305  19.683  0.00  0.00    +0.000 A 
ATOM     11  C   UNL     1       0.935  10.359  20.407  0.00  0.00    +0.000 A 
BRANCH   2  13
ATOM     12  C   UNL     1      -0.587  12.270  21.584  0.00  0.00    +0.000 C 
ATOM     13  O   UNL     1       0.554  12.603  20.810  0.00  0.00    +0.000 OA
ENDBRANCH   2  13
BRANCH   8  14
ATOM     14  O   UNL     1       2.723   6.274  20.537  0.00  0.00    +0.000 OA
ATOM     15  H   UNL     1       2.083   6.391  21.266  0.00  0.00    +0.000 HD
ENDBRANCH   8  14
ENDBRANCH   1   7
BRANCH   1  16
ATOM     16  N   UNL     1       3.019   4.607  18.464  0.00  0.00    +0.000 NA
ATOM     17  C   UNL     1       4.130   3.953  19.142  0.00  0.00    +0.000 C 
ATOM     18  C   UNL     1       4.013   2.501  19.649  0.00  0.00    +0.000 C 
ATOM     19  C   UNL     1       2.697   2.104  20.303  0.00  0.00    +0.000 C 
ATOM     20  C   UNL     1       1.648   1.746  19.264  0.00  0.00    +0.000 C 
ATOM     21  C   UNL     1       1.089   2.964  18.551  0.00  0.00    +0.000 C 
ATOM     22  C   UNL     1       2.084   3.768  17.697  0.00  0.00    +0.000 C 
ENDBRANCH   1  16
BRANCH   1  23
ATOM     23  C   UNL     1       4.702   6.185  17.193  0.00  0.00    +0.000 A 
ATOM     24  N   UNL     1       5.288   7.374  17.242  0.00  0.00    +0.000 NA
ATOM     25  N   UNL     1       6.640   7.177  17.065  0.00  0.00    +0.000 NA
ATOM     26  N   UNL     1       6.889   5.895  16.858  0.00  0.00    +0.000 NA
ATOM     27  N   UNL     1       5.694   5.264  16.844  0.00  0.00    +0.000 N 
BRANCH  27  28
ATOM     28  C   UNL     1       5.594   4.148  15.909  0.00  0.00    +0.000 C 
BRANCH  28  29
ATOM     29  C   UNL     1       6.197   4.298  14.536  0.00  0.00    +0.000 A 
ATOM     30  C   UNL     1       5.565   3.568  13.510  0.00  0.00    +0.000 A 
ATOM     31  C   UNL     1       6.067   3.552  12.212  0.00  0.00    +0.000 A 
ATOM     32  C   UNL     1       7.192   4.307  11.905  0.00  0.00    +0.000 A 
ATOM     33  C   UNL     1       7.764   5.126  12.879  0.00  0.00    +0.000 A 
ATOM     34  C   UNL     1       7.262   5.138  14.189  0.00  0.00    +0.000 A 
ENDBRANCH  28  29
ENDBRANCH  27  28
ENDBRANCH   1  23
TORSDOF 7
ENDMDL
MODEL 6
REMARK VINA RESULT:      -7.9      3.529      9.369
REMARK  Name = 
REMARK  8 active torsions:
REMARK  status: ('A' for Active; 'I' for Inactive)
REMARK    1  A    between atoms: C_1  and  O_2
REMARK    2  A    between atoms: O_2  and  C_3
REMARK    3  A    between atoms: C_8  and  C_9
REMARK    4  A    between atoms: C_9  and  C_10
REMARK    5  A    between atoms: C_9  and  N_22
REMARK    6  A    between atoms: N_14  and  C_15
REMARK    7  A    between atoms: C_15  and  C_16
REMARK    8  A    between atoms: C_29  and  O_30
REMARK                            x       y       z     vdW  Elec       q    Type
REMARK                         _______ _______ _______ _____ _____    ______ ____
ROOT
ATOM      1  C   UNL     1       0.283  10.843  19.450  0.00  0.00    +0.000 C 
ENDROOT
BRANCH   1   7
ATOM      2  C   UNL     1       3.366   5.083  19.023  0.00  0.00    +0.000 A 
ATOM      3  C   UNL     1       3.544   5.715  17.800  0.00  0.00    +0.000 A 
ATOM      4  C   UNL     1       3.130   7.048  17.632  0.00  0.00    +0.000 A 
ATOM      5  C   UNL     1       2.469   7.725  18.673  0.00  0.00    +0.000 A 
ATOM      6  C   UNL     1       1.939   9.032  18.546  0.00  0.00    +0.000 A 
ATOM      7  C   UNL     1       1.103   9.556  19.538  0.00  0.00    +0.000 A 
ATOM      8  C   UNL     1       0.856   8.685  20.593  0.00  0.00    +0.000 A 
ATOM      9  N   UNL     1       1.445   7.511  20.830  0.00  0.00    +0.000 NA
ATOM     10  C   UNL     1       2.237   7.036  19.877  0.00  0.00    +0.000 A 
ATOM     11  C   UNL     1       2.733   5.763  20.056  0.00  0.00    +0.000 A 
BRANCH   2  13
ATOM     12  C   UNL     1       2.741   3.075  20.109  0.00  0.00    +0.000 C 
ATOM     13  O   UNL     1       3.681   3.788  19.321  0.00  0.00    +0.000 OA
ENDBRANCH   2  13
BRANCH   8  14
ATOM     14  O   UNL     1      -0.271   8.803  21.338  0.00  0.00    +0.000 OA
ATOM     15  H   UNL     1      -0.554   7.868  21.322  0.00  0.00    +0.000 HD
ENDBRANCH   8  14
ENDBRANCH   1   7
BRANCH   1  16
ATOM     16  N   UNL     1      -1.059  10.752  18.766  0.00  0.00    +0.000 NA
ATOM     17  C   UNL     1      -1.131   9.954  17.550  0.00  0.00    +0.000 C 
ATOM     18  C   UNL     1      -2.376   9.992  16.641  0.00  0.00    +0.000 C 
ATOM     19  C   UNL     1      -3.732  10.012  17.332  0.00  0.00    +0.000 C 
ATOM     20  C   UNL     1      -4.106  11.417  17.778  0.00  0.00    +0.000 C 
ATOM     21  C   UNL     1      -3.321  11.875  18.993  0.00  0.00    +0.000 C 
ATOM     22  C   UNL     1      -1.802  12.022  18.806  0.00  0.00    +0.000 C 
ENDBRANCH   1  16
BRANCH   1  23
ATOM     23  C   UNL     1       1.096  12.145  19.360  0.00  0.00    +0.000 A 
ATOM     24  N   UNL     1       1.999  12.360  18.413  0.00  0.00    +0.000 NA
ATOM     25  N   UNL     1       2.195  13.721  18.328  0.00  0.00    +0.000 NA
ATOM     26  N   UNL     1       1.467  14.343  19.240  0.00  0.00    +0.000 NA
ATOM     27  N   UNL     1       0.839  13.383  19.957  0.00  0.00    +0.000 N 
BRANCH  27  28
ATOM     28  C   UNL     1       0.673  13.680  21.375  0.00  0.00    +0.000 C 
BRANCH  28  29
ATOM     29  C   UNL     1      -0.647  13.365  22.031  0.00  0.00    +0.000 A 
ATOM     30  C   UNL     1      -0.767  12.068  22.568  0.00  0.00    +0.000 A 
ATOM     31  C   UNL     1      -1.960  11.620  23.128  0.00  0.00    +0.000 A 
ATOM     32  C   UNL     1      -3.047  12.482  23.204  0.00  0.00    +0.000 A 
ATOM     33  C   UNL     1      -2.912  13.805  22.783  0.00  0.00    +0.000 A 
ATOM     34  C   UNL     1      -1.712  14.256  22.212  0.00  0.00    +0.000 A 
ENDBRANCH  28  29
ENDBRANCH  27  28
ENDBRANCH   1  23
TORSDOF 7
ENDMDL
MODEL 7
REMARK VINA RESULT:      -7.8      1.333      1.898
REMARK  Name = 
REMARK  8 active torsions:
REMARK  status: ('A' for Active; 'I' for Inactive)
REMARK    1  A    between atoms: C_1  and  O_2
REMARK    2  A    between atoms: O_2  and  C_3
REMARK    3  A    between atoms: C_8  and  C_9
REMARK    4  A    between atoms: C_9  and  C_10
REMARK    5  A    between atoms: C_9  and  N_22
REMARK    6  A    between atoms: N_14  and  C_15
REMARK    7  A    between atoms: C_15  and  C_16
REMARK    8  A    between atoms: C_29  and  O_30
REMARK                            x       y       z     vdW  Elec       q    Type
REMARK                         _______ _______ _______ _____ _____    ______ ____
ROOT
ATOM      1  C   UNL     1       3.623   5.736  18.403  0.00  0.00    +0.000 C 
ENDROOT
BRANCH   1   7
ATOM      2  C   UNL     1       0.109  11.139  19.553  0.00  0.00    +0.000 A 
ATOM      3  C   UNL     1      -0.230  10.232  20.548  0.00  0.00    +0.000 A 
ATOM      4  C   UNL     1       0.480   9.023  20.666  0.00  0.00    +0.000 A 
ATOM      5  C   UNL     1       1.484   8.694  19.738  0.00  0.00    +0.000 A 
ATOM      6  C   UNL     1       2.173   7.456  19.737  0.00  0.00    +0.000 A 
ATOM      7  C   UNL     1       2.995   7.105  18.659  0.00  0.00    +0.000 A 
ATOM      8  C   UNL     1       3.036   8.052  17.643  0.00  0.00    +0.000 A 
ATOM      9  N   UNL     1       2.527   9.287  17.664  0.00  0.00    +0.000 NA
ATOM     10  C   UNL     1       1.756   9.599  18.698  0.00  0.00    +0.000 A 
ATOM     11  C   UNL     1       1.117  10.818  18.652  0.00  0.00    +0.000 A 
BRANCH   2  13
ATOM     12  C   UNL     1       0.326  13.467  19.187  0.00  0.00    +0.000 C 
ATOM     13  O   UNL     1      -0.512  12.327  19.293  0.00  0.00    +0.000 OA
ENDBRANCH   2  13
BRANCH   8  14
ATOM     14  O   UNL     1       3.335   7.690  16.372  0.00  0.00    +0.000 OA
ATOM     15  H   UNL     1       3.042   6.759  16.412  0.00  0.00    +0.000 HD
ENDBRANCH   8  14
ENDBRANCH   1   7
BRANCH   1  16
ATOM     16  N   UNL     1       2.766   4.527  18.688  0.00  0.00    +0.000 NA
ATOM     17  C   UNL     1       2.016   4.525  19.936  0.00  0.00    +0.000 C 
ATOM     18  C   UNL     1       1.310   3.250  20.443  0.00  0.00    +0.000 C 
ATOM     19  C   UNL     1       0.594   2.401  19.403  0.00  0.00    +0.000 C 
ATOM     20  C   UNL     1       1.563   1.485  18.673  0.00  0.00    +0.000 C 
ATOM     21  C   UNL     1       2.432   2.227  17.674  0.00  0.00    +0.000 C 
ATOM     22  C   UNL     1       3.400   3.270  18.258  0.00  0.00    +0.000 C 
ENDBRANCH   1  16
BRANCH   1  23
ATOM     23  C   UNL     1       5.146   5.654  18.606  0.00  0.00    +0.000 A 
ATOM     24  N   UNL     1       5.703   5.560  19.806  0.00  0.00    +0.000 NA
ATOM     25  N   UNL     1       6.972   5.053  19.635  0.00  0.00    +0.000 NA
ATOM     26  N   UNL     1       7.224   4.882  18.348  0.00  0.00    +0.000 NA
ATOM     27  N   UNL     1       6.139   5.330  17.677  0.00  0.00    +0.000 N 
BRANCH  27  28
ATOM     28  C   UNL     1       6.425   5.981  16.404  0.00  0.00    +0.000 C 
BRANCH  28  29
ATOM     29  C   UNL     1       6.338   5.168  15.138  0.00  0.00    +0.000 A 
ATOM     30  C   UNL     1       7.412   5.320  14.240  0.00  0.00    +0.000 A 
ATOM     31  C   UNL     1       7.418   4.690  12.999  0.00  0.00    +0.000 A 
ATOM     32  C   UNL     1       6.365   3.854  12.651  0.00  0.00    +0.000 A 
ATOM     33  C   UNL     1       5.349   3.599  13.573  0.00  0.00    +0.000 A 
ATOM     34  C   UNL     1       5.339   4.239  14.821  0.00  0.00    +0.000 A 
ENDBRANCH  28  29
ENDBRANCH  27  28
ENDBRANCH   1  23
TORSDOF 7
ENDMDL
MODEL 8
REMARK VINA RESULT:      -7.8      1.421      2.041
REMARK  Name = 
REMARK  8 active torsions:
REMARK  status: ('A' for Active; 'I' for Inactive)
REMARK    1  A    between atoms: C_1  and  O_2
REMARK    2  A    between atoms: O_2  and  C_3
REMARK    3  A    between atoms: C_8  and  C_9
REMARK    4  A    between atoms: C_9  and  C_10
REMARK    5  A    between atoms: C_9  and  N_22
REMARK    6  A    between atoms: N_14  and  C_15
REMARK    7  A    between atoms: C_15  and  C_16
REMARK    8  A    between atoms: C_29  and  O_30
REMARK                            x       y       z     vdW  Elec       q    Type
REMARK                         _______ _______ _______ _____ _____    ______ ____
ROOT
ATOM      1  C   UNL     1       3.930   5.593  18.454  0.00  0.00    +0.000 C 
ENDROOT
BRANCH   1   7
ATOM      2  C   UNL     1       0.177  10.869  19.428  0.00  0.00    +0.000 A 
ATOM      3  C   UNL     1      -0.119   9.982  20.454  0.00  0.00    +0.000 A 
ATOM      4  C   UNL     1       0.644   8.811  20.612  0.00  0.00    +0.000 A 
ATOM      5  C   UNL     1       1.661   8.496  19.693  0.00  0.00    +0.000 A 
ATOM      6  C   UNL     1       2.406   7.291  19.732  0.00  0.00    +0.000 A 
ATOM      7  C   UNL     1       3.241   6.941  18.665  0.00  0.00    +0.000 A 
ATOM      8  C   UNL     1       3.238   7.853  17.617  0.00  0.00    +0.000 A 
ATOM      9  N   UNL     1       2.674   9.064  17.597  0.00  0.00    +0.000 NA
ATOM     10  C   UNL     1       1.891   9.376  18.621  0.00  0.00    +0.000 A 
ATOM     11  C   UNL     1       1.197  10.563  18.536  0.00  0.00    +0.000 A 
BRANCH   2  13
ATOM     12  C   UNL     1      -1.438  11.941  18.071  0.00  0.00    +0.000 C 
ATOM     13  O   UNL     1      -0.497  12.018  19.129  0.00  0.00    +0.000 OA
ENDBRANCH   2  13
BRANCH   8  14
ATOM     14  O   UNL     1       3.551   7.461  16.358  0.00  0.00    +0.000 OA
ATOM     15  H   UNL     1       4.058   8.249  16.081  0.00  0.00    +0.000 HD
ENDBRANCH   8  14
ENDBRANCH   1   7
BRANCH   1  16
ATOM     16  N   UNL     1       3.145   4.359  18.828  0.00  0.00    +0.000 NA
ATOM     17  C   UNL     1       2.866   4.154  20.243  0.00  0.00    +0.000 C 
ATOM     18  C   UNL     1       2.295   2.818  20.759  0.00  0.00    +0.000 C 
ATOM     19  C   UNL     1       1.216   2.157  19.913  0.00  0.00    +0.000 C 
ATOM     20  C   UNL     1       1.819   1.370  18.761  0.00  0.00    +0.000 C 
ATOM     21  C   UNL     1       2.342   2.262  17.651  0.00  0.00    +0.000 C 
ATOM     22  C   UNL     1       3.514   3.187  18.017  0.00  0.00    +0.000 C 
ENDBRANCH   1  16
BRANCH   1  23
ATOM     23  C   UNL     1       5.460   5.597  18.607  0.00  0.00    +0.000 A 
ATOM     24  N   UNL     1       6.061   5.522  19.787  0.00  0.00    +0.000 NA
ATOM     25  N   UNL     1       7.351   5.091  19.568  0.00  0.00    +0.000 NA
ATOM     26  N   UNL     1       7.569   4.949  18.272  0.00  0.00    +0.000 NA
ATOM     27  N   UNL     1       6.439   5.341  17.642  0.00  0.00    +0.000 N 
BRANCH  27  28
ATOM     28  C   UNL     1       6.645   6.022  16.369  0.00  0.00    +0.000 C 
BRANCH  28  29
ATOM     29  C   UNL     1       6.509   5.229  15.094  0.00  0.00    +0.000 A 
ATOM     30  C   UNL     1       5.325   4.477  14.966  0.00  0.00    +0.000 A 
ATOM     31  C   UNL     1       5.110   3.638  13.877  0.00  0.00    +0.000 A 
ATOM     32  C   UNL     1       6.060   3.571  12.866  0.00  0.00    +0.000 A 
ATOM     33  C   UNL     1       7.186   4.394  12.918  0.00  0.00    +0.000 A 
ATOM     34  C   UNL     1       7.407   5.236  14.019  0.00  0.00    +0.000 A 
ENDBRANCH  28  29
ENDBRANCH  27  28
ENDBRANCH   1  23
TORSDOF 7
ENDMDL
MODEL 9
REMARK VINA RESULT:      -7.7      3.957      9.668
REMARK  Name = 
REMARK  8 active torsions:
REMARK  status: ('A' for Active; 'I' for Inactive)
REMARK    1  A    between atoms: C_1  and  O_2
REMARK    2  A    between atoms: O_2  and  C_3
REMARK    3  A    between atoms: C_8  and  C_9
REMARK    4  A    between atoms: C_9  and  C_10
REMARK    5  A    between atoms: C_9  and  N_22
REMARK    6  A    between atoms: N_14  and  C_15
REMARK    7  A    between atoms: C_15  and  C_16
REMARK    8  A    between atoms: C_29  and  O_30
REMARK                            x       y       z     vdW  Elec       q    Type
REMARK                         _______ _______ _______ _____ _____    ______ ____
ROOT
ATOM      1  C   UNL     1       0.794  12.577  19.264  0.00  0.00    +0.000 C 
ENDROOT
BRANCH   1   7
ATOM      2  C   UNL     1       2.545   6.269  19.216  0.00  0.00    +0.000 A 
ATOM      3  C   UNL     1       2.010   6.518  20.473  0.00  0.00    +0.000 A 
ATOM      4  C   UNL     1       1.395   7.754  20.741  0.00  0.00    +0.000 A 
ATOM      5  C   UNL     1       1.381   8.768  19.767  0.00  0.00    +0.000 A 
ATOM      6  C   UNL     1       0.867  10.068  19.996  0.00  0.00    +0.000 A 
ATOM      7  C   UNL     1       1.086  11.091  19.066  0.00  0.00    +0.000 A 
ATOM      8  C   UNL     1       1.840  10.705  17.964  0.00  0.00    +0.000 A 
ATOM      9  N   UNL     1       2.218   9.468  17.632  0.00  0.00    +0.000 NA
ATOM     10  C   UNL     1       1.995   8.514  18.527  0.00  0.00    +0.000 A 
ATOM     11  C   UNL     1       2.509   7.267  18.250  0.00  0.00    +0.000 A 
BRANCH   2  13
ATOM     12  C   UNL     1       3.642   5.100  17.475  0.00  0.00    +0.000 C 
ATOM     13  O   UNL     1       3.203   5.139  18.823  0.00  0.00    +0.000 OA
ENDBRANCH   2  13
BRANCH   8  14
ATOM     14  O   UNL     1       2.556  11.618  17.263  0.00  0.00    +0.000 OA
ATOM     15  H   UNL     1       3.433  11.451  17.659  0.00  0.00    +0.000 HD
ENDBRANCH   8  14
ENDBRANCH   1   7
BRANCH   1  16
ATOM     16  N   UNL     1       1.985  13.502  19.346  0.00  0.00    +0.000 NA
ATOM     17  C   UNL     1       2.714  13.534  20.606  0.00  0.00    +0.000 C 
ATOM     18  C   UNL     1       3.782  14.611  20.884  0.00  0.00    +0.000 C 
ATOM     19  C   UNL     1       4.712  14.971  19.734  0.00  0.00    +0.000 C 
ATOM     20  C   UNL     1       4.062  15.966  18.787  0.00  0.00    +0.000 C 
ATOM     21  C   UNL     1       2.995  15.333  17.912  0.00  0.00    +0.000 C 
ATOM     22  C   UNL     1       1.761  14.775  18.642  0.00  0.00    +0.000 C 
ENDBRANCH   1  16
BRANCH   1  23
ATOM     23  C   UNL     1      -0.480  12.906  20.061  0.00  0.00    +0.000 A 
ATOM     24  N   UNL     1      -0.503  13.806  21.034  0.00  0.00    +0.000 NA
ATOM     25  N   UNL     1      -1.814  14.189  21.213  0.00  0.00    +0.000 NA
ATOM     26  N   UNL     1      -2.603  13.504  20.403  0.00  0.00    +0.000 NA
ATOM     27  N   UNL     1      -1.813  12.633  19.736  0.00  0.00    +0.000 N 
BRANCH  27  28
ATOM     28  C   UNL     1      -2.421  11.339  19.450  0.00  0.00    +0.000 C 
BRANCH  28  29
ATOM     29  C   UNL     1      -2.758  10.997  18.021  0.00  0.00    +0.000 A 
ATOM     30  C   UNL     1      -3.935  11.583  17.515  0.00  0.00    +0.000 A 
ATOM     31  C   UNL     1      -4.406  11.287  16.239  0.00  0.00    +0.000 A 
ATOM     32  C   UNL     1      -3.678  10.429  15.424  0.00  0.00    +0.000 A 
ATOM     33  C   UNL     1      -2.451   9.930  15.864  0.00  0.00    +0.000 A 
ATOM     34  C   UNL     1      -1.980  10.223  17.152  0.00  0.00    +0.000 A 
ENDBRANCH  28  29
ENDBRANCH  27  28
ENDBRANCH   1  23
TORSDOF 7
ENDMDL
