MODEL 1
REMARK VINA RESULT:      -9.3      0.000      0.000
REMARK  Name = 
REMARK  6 active torsions:
REMARK  status: ('A' for Active; 'I' for Inactive)
REMARK    1  A    between atoms: C_2  and  C_3
REMARK    2  A    between atoms: C_3  and  C_4
REMARK    3  A    between atoms: C_4  and  C_5
REMARK    4  A    between atoms: N_16  and  C_17
REMARK    5  A    between atoms: C_20  and  C_21
REMARK    6  A    between atoms: C_24  and  C_25
REMARK                            x       y       z     vdW  Elec       q    Type
REMARK                         _______ _______ _______ _____ _____    ______ ____
ROOT
ATOM      1  O   UNL     1       1.293   4.472  19.462  0.00  0.00    +0.000 OA
ATOM      2  C   UNL     1       2.365   4.734  20.003  0.00  0.00    +0.000 C 
ATOM      3  N   UNL     1       2.899   6.000  20.179  0.00  0.00    +0.000 N 
ATOM      4  H   UNL     1       3.875   6.069  20.439  0.00  0.00    +0.000 HD
ENDROOT
BRANCH   3   5
ATOM      5  C   UNL     1       2.227   7.220  19.928  0.00  0.00    +0.000 A 
ATOM      6  C   UNL     1       2.261   7.851  18.685  0.00  0.00    +0.000 A 
ATOM      7  C   UNL     1       1.503   9.002  18.445  0.00  0.00    +0.000 A 
ATOM      8  C   UNL     1       0.683   9.550  19.439  0.00  0.00    +0.000 A 
ATOM      9  C   UNL     1       0.695   8.953  20.706  0.00  0.00    +0.000 A 
ATOM     10  C   UNL     1       1.452   7.791  20.946  0.00  0.00    +0.000 A 
BRANCH   8  11
ATOM     11  C   UNL     1      -0.190  10.663  19.095  0.00  0.00    +0.000 A 
ATOM     12  N   UNL     1       0.136  11.896  18.758  0.00  0.00    +0.000 NA
ATOM     13  N   UNL     1      -1.036  12.536  18.433  0.00  0.00    +0.000 NA
ATOM     14  C   UNL     1      -2.004  11.659  18.607  0.00  0.00    +0.000 A 
ATOM     15  O   UNL     1      -1.541  10.434  19.023  0.00  0.00    +0.000 OA
BRANCH  14  16
ATOM     16  C   UNL     1      -3.443  11.852  18.495  0.00  0.00    +0.000 A 
ATOM     17  C   UNL     1      -4.069  11.589  17.265  0.00  0.00    +0.000 A 
ATOM     18  C   UNL     1      -5.418  11.884  17.070  0.00  0.00    +0.000 A 
ATOM     19  C   UNL     1      -6.163  12.434  18.108  0.00  0.00    +0.000 A 
ATOM     20  C   UNL     1      -5.570  12.660  19.349  0.00  0.00    +0.000 A 
ATOM     21  C   UNL     1      -4.218  12.362  19.546  0.00  0.00    +0.000 A 
ENDBRANCH  14  16
ENDBRANCH   8  11
ENDBRANCH   3   5
BRANCH   2  22
ATOM     22  C   UNL     1       3.261   3.605  20.477  0.00  0.00    +0.000 C 
BRANCH  22  23
ATOM     23  C   UNL     1       3.593   2.655  19.331  0.00  0.00    +0.000 C 
BRANCH  23  24
ATOM     24  C   UNL     1       4.589   3.290  18.392  0.00  0.00    +0.000 A 
ATOM     25  N   UNL     1       4.412   3.224  17.113  0.00  0.00    +0.000 NA
ATOM     26  C   UNL     1       5.361   3.858  16.291  0.00  0.00    +0.000 A 
ATOM     27  C   UNL     1       5.175   3.838  14.903  0.00  0.00    +0.000 A 
ATOM     28  C   UNL     1       6.077   4.493  14.059  0.00  0.00    +0.000 A 
ATOM     29  C   UNL     1       7.173   5.173  14.590  0.00  0.00    +0.000 A 
ATOM     30  C   UNL     1       7.379   5.189  15.969  0.00  0.00    +0.000 A 
ATOM     31  C   UNL     1       6.474   4.529  16.805  0.00  0.00    +0.000 A 
ATOM     32  C   UNL     1       6.659   4.519  18.266  0.00  0.00    +0.000 A 
ATOM     33  O   UNL     1       7.623   5.041  18.802  0.00  0.00    +0.000 OA
ATOM     34  N   UNL     1       5.671   3.886  18.980  0.00  0.00    +0.000 N 
ATOM     35  H   UNL     1       5.807   3.849  19.984  0.00  0.00    +0.000 HD
ENDBRANCH  23  24
ENDBRANCH  22  23
ENDBRANCH   2  22
TORSDOF 6
ENDMDL
MODEL 2
REMARK VINA RESULT:      -9.3      1.169      1.896
REMARK  Name = 
REMARK  6 active torsions:
REMARK  status: ('A' for Active; 'I' for Inactive)
REMARK    1  A    between atoms: C_2  and  C_3
REMARK    2  A    between atoms: C_3  and  C_4
REMARK    3  A    between atoms: C_4  and  C_5
REMARK    4  A    between atoms: N_16  and  C_17
REMARK    5  A    between atoms: C_20  and  C_21
REMARK    6  A    between atoms: C_24  and  C_25
REMARK                            x       y       z     vdW  Elec       q    Type
REMARK                         _______ _______ _______ _____ _____    ______ ____
ROOT
ATOM      1  O   UNL     1       1.279   3.936  19.383  0.00  0.00    +0.000 OA
ATOM      2  C   UNL     1       2.276   4.116  20.079  0.00  0.00    +0.000 C 
ATOM      3  N   UNL     1       2.838   5.342  20.393  0.00  0.00    +0.000 N 
ATOM      4  H   UNL     1       3.771   5.347  20.788  0.00  0.00    +0.000 HD
ENDROOT
BRANCH   3   5
ATOM      5  C   UNL     1       2.266   6.606  20.117  0.00  0.00    +0.000 A 
ATOM      6  C   UNL     1       2.411   7.240  18.883  0.00  0.00    +0.000 A 
ATOM      7  C   UNL     1       1.747   8.441  18.612  0.00  0.00    +0.000 A 
ATOM      8  C   UNL     1       0.913   9.038  19.565  0.00  0.00    +0.000 A 
ATOM      9  C   UNL     1       0.814   8.435  20.825  0.00  0.00    +0.000 A 
ATOM     10  C   UNL     1       1.476   7.223  21.095  0.00  0.00    +0.000 A 
BRANCH   8  11
ATOM     11  C   UNL     1       0.138  10.210  19.183  0.00  0.00    +0.000 A 
ATOM     12  N   UNL     1       0.565  11.418  18.868  0.00  0.00    +0.000 NA
ATOM     13  N   UNL     1      -0.542  12.139  18.489  0.00  0.00    +0.000 NA
ATOM     14  C   UNL     1      -1.576  11.331  18.612  0.00  0.00    +0.000 A 
ATOM     15  O   UNL     1      -1.221  10.076  19.045  0.00  0.00    +0.000 OA
BRANCH  14  16
ATOM     16  C   UNL     1      -2.991  11.625  18.431  0.00  0.00    +0.000 A 
ATOM     17  C   UNL     1      -3.581  11.374  17.181  0.00  0.00    +0.000 A 
ATOM     18  C   UNL     1      -4.895  11.760  16.918  0.00  0.00    +0.000 A 
ATOM     19  C   UNL     1      -5.642  12.391  17.908  0.00  0.00    +0.000 A 
ATOM     20  C   UNL     1      -5.088  12.607  19.169  0.00  0.00    +0.000 A 
ATOM     21  C   UNL     1      -3.772  12.217  19.434  0.00  0.00    +0.000 A 
ENDBRANCH  14  16
ENDBRANCH   8  11
ENDBRANCH   3   5
BRANCH   2  22
ATOM     22  C   UNL     1       3.043   2.920  20.611  0.00  0.00    +0.000 C 
BRANCH  22  23
ATOM     23  C   UNL     1       3.856   2.256  19.504  0.00  0.00    +0.000 C 
BRANCH  23  24
ATOM     24  C   UNL     1       4.661   3.287  18.753  0.00  0.00    +0.000 A 
ATOM     25  N   UNL     1       5.469   4.073  19.389  0.00  0.00    +0.000 NA
ATOM     26  C   UNL     1       6.211   4.995  18.630  0.00  0.00    +0.000 A 
ATOM     27  C   UNL     1       7.124   5.832  19.285  0.00  0.00    +0.000 A 
ATOM     28  C   UNL     1       7.907   6.731  18.556  0.00  0.00    +0.000 A 
ATOM     29  C   UNL     1       7.788   6.807  17.169  0.00  0.00    +0.000 A 
ATOM     30  C   UNL     1       6.874   5.991  16.505  0.00  0.00    +0.000 A 
ATOM     31  C   UNL     1       6.093   5.097  17.241  0.00  0.00    +0.000 A 
ATOM     32  C   UNL     1       5.112   4.220  16.577  0.00  0.00    +0.000 A 
ATOM     33  O   UNL     1       4.908   4.269  15.375  0.00  0.00    +0.000 OA
ATOM     34  N   UNL     1       4.449   3.347  17.403  0.00  0.00    +0.000 N 
ATOM     35  H   UNL     1       3.751   2.762  16.957  0.00  0.00    +0.000 HD
ENDBRANCH  23  24
ENDBRANCH  22  23
ENDBRANCH   2  22
TORSDOF 6
ENDMDL
MODEL 3
REMARK VINA RESULT:      -9.2      2.728      3.841
REMARK  Name = 
REMARK  6 active torsions:
REMARK  status: ('A' for Active; 'I' for Inactive)
REMARK    1  A    between atoms: C_2  and  C_3
REMARK    2  A    between atoms: C_3  and  C_4
REMARK    3  A    between atoms: C_4  and  C_5
REMARK    4  A    between atoms: N_16  and  C_17
REMARK    5  A    between atoms: C_20  and  C_21
REMARK    6  A    between atoms: C_24  and  C_25
REMARK                            x       y       z     vdW  Elec       q    Type
REMARK                         _______ _______ _______ _____ _____    ______ ____
ROOT
ATOM      1  O   UNL     1       0.709   4.492  20.259  0.00  0.00    +0.000 OA
ATOM      2  C   UNL     1       1.915   4.645  20.442  0.00  0.00    +0.000 C 
ATOM      3  N   UNL     1       2.632   5.805  20.206  0.00  0.00    +0.000 N 
ATOM      4  H   UNL     1       3.643   5.741  20.189  0.00  0.00    +0.000 HD
ENDROOT
BRANCH   3   5
ATOM      5  C   UNL     1       2.077   7.066  19.881  0.00  0.00    +0.000 A 
ATOM      6  C   UNL     1       1.435   7.867  20.825  0.00  0.00    +0.000 A 
ATOM      7  C   UNL     1       0.989   9.150  20.492  0.00  0.00    +0.000 A 
ATOM      8  C   UNL     1       1.181   9.672  19.207  0.00  0.00    +0.000 A 
ATOM      9  C   UNL     1       1.771   8.847  18.241  0.00  0.00    +0.000 A 
ATOM     10  C   UNL     1       2.226   7.559  18.578  0.00  0.00    +0.000 A 
BRANCH   8  11
ATOM     11  C   UNL     1       0.824  11.061  18.953  0.00  0.00    +0.000 A 
ATOM     12  N   UNL     1      -0.375  11.604  18.863  0.00  0.00    +0.000 NA
ATOM     13  N   UNL     1      -0.182  12.957  18.713  0.00  0.00    +0.000 NA
ATOM     14  C   UNL     1       1.121  13.152  18.705  0.00  0.00    +0.000 A 
ATOM     15  O   UNL     1       1.833  11.987  18.861  0.00  0.00    +0.000 OA
BRANCH  14  16
ATOM     16  C   UNL     1       1.859  14.386  18.477  0.00  0.00    +0.000 A 
ATOM     17  C   UNL     1       3.222  14.310  18.148  0.00  0.00    +0.000 A 
ATOM     18  C   UNL     1       4.002  15.463  18.050  0.00  0.00    +0.000 A 
ATOM     19  C   UNL     1       3.424  16.710  18.269  0.00  0.00    +0.000 A 
ATOM     20  C   UNL     1       2.062  16.807  18.552  0.00  0.00    +0.000 A 
ATOM     21  C   UNL     1       1.280  15.652  18.647  0.00  0.00    +0.000 A 
ENDBRANCH  14  16
ENDBRANCH   8  11
ENDBRANCH   3   5
BRANCH   2  22
ATOM     22  C   UNL     1       2.757   3.470  20.901  0.00  0.00    +0.000 C 
BRANCH  22  23
ATOM     23  C   UNL     1       3.165   2.597  19.719  0.00  0.00    +0.000 C 
BRANCH  23  24
ATOM     24  C   UNL     1       4.203   3.301  18.879  0.00  0.00    +0.000 A 
ATOM     25  N   UNL     1       4.120   3.279  17.588  0.00  0.00    +0.000 NA
ATOM     26  C   UNL     1       5.101   3.976  16.862  0.00  0.00    +0.000 A 
ATOM     27  C   UNL     1       5.016   4.005  15.464  0.00  0.00    +0.000 A 
ATOM     28  C   UNL     1       5.952   4.722  14.713  0.00  0.00    +0.000 A 
ATOM     29  C   UNL     1       6.983   5.415  15.347  0.00  0.00    +0.000 A 
ATOM     30  C   UNL     1       7.090   5.383  16.736  0.00  0.00    +0.000 A 
ATOM     31  C   UNL     1       6.151   4.662  17.479  0.00  0.00    +0.000 A 
ATOM     32  C   UNL     1       6.232   4.600  18.949  0.00  0.00    +0.000 A 
ATOM     33  O   UNL     1       7.136   5.131  19.572  0.00  0.00    +0.000 OA
ATOM     34  N   UNL     1       5.219   3.908  19.565  0.00  0.00    +0.000 N 
ATOM     35  H   UNL     1       5.284   3.835  20.574  0.00  0.00    +0.000 HD
ENDBRANCH  23  24
ENDBRANCH  22  23
ENDBRANCH   2  22
TORSDOF 6
ENDMDL
MODEL 4
REMARK VINA RESULT:      -9.1      2.641      3.581
REMARK  Name = 
REMARK  6 active torsions:
REMARK  status: ('A' for Active; 'I' for Inactive)
REMARK    1  A    between atoms: C_2  and  C_3
REMARK    2  A    between atoms: C_3  and  C_4
REMARK    3  A    between atoms: C_4  and  C_5
REMARK    4  A    between atoms: N_16  and  C_17
REMARK    5  A    between atoms: C_20  and  C_21
REMARK    6  A    between atoms: C_24  and  C_25
REMARK                            x       y       z     vdW  Elec       q    Type
REMARK                         _______ _______ _______ _____ _____    ______ ____
ROOT
ATOM      1  O   UNL     1       0.735   4.294  20.119  0.00  0.00    +0.000 OA
ATOM      2  C   UNL     1       1.925   4.361  20.420  0.00  0.00    +0.000 C 
ATOM      3  N   UNL     1       2.729   5.483  20.314  0.00  0.00    +0.000 N 
ATOM      4  H   UNL     1       3.731   5.355  20.387  0.00  0.00    +0.000 HD
ENDROOT
BRANCH   3   5
ATOM      5  C   UNL     1       2.283   6.791  20.009  0.00  0.00    +0.000 A 
ATOM      6  C   UNL     1       2.495   7.383  18.764  0.00  0.00    +0.000 A 
ATOM      7  C   UNL     1       1.952   8.636  18.465  0.00  0.00    +0.000 A 
ATOM      8  C   UNL     1       1.174   9.330  19.400  0.00  0.00    +0.000 A 
ATOM      9  C   UNL     1       1.010   8.765  20.671  0.00  0.00    +0.000 A 
ATOM     10  C   UNL     1       1.550   7.501  20.969  0.00  0.00    +0.000 A 
BRANCH   8  11
ATOM     11  C   UNL     1       0.518  10.564  18.989  0.00  0.00    +0.000 A 
ATOM     12  N   UNL     1      -0.692  10.732  18.491  0.00  0.00    +0.000 NA
ATOM     13  N   UNL     1      -0.877  12.087  18.359  0.00  0.00    +0.000 NA
ATOM     14  C   UNL     1       0.236  12.660  18.770  0.00  0.00    +0.000 A 
ATOM     15  O   UNL     1       1.175  11.751  19.196  0.00  0.00    +0.000 OA
BRANCH  14  16
ATOM     16  C   UNL     1       0.600  14.070  18.748  0.00  0.00    +0.000 A 
ATOM     17  C   UNL     1      -0.422  15.034  18.776  0.00  0.00    +0.000 A 
ATOM     18  C   UNL     1      -0.133  16.390  18.623  0.00  0.00    +0.000 A 
ATOM     19  C   UNL     1       1.185  16.801  18.453  0.00  0.00    +0.000 A 
ATOM     20  C   UNL     1       2.217  15.862  18.469  0.00  0.00    +0.000 A 
ATOM     21  C   UNL     1       1.927  14.504  18.625  0.00  0.00    +0.000 A 
ENDBRANCH  14  16
ENDBRANCH   8  11
ENDBRANCH   3   5
BRANCH   2  22
ATOM     22  C   UNL     1       2.649   3.113  20.890  0.00  0.00    +0.000 C 
BRANCH  22  23
ATOM     23  C   UNL     1       3.299   2.386  19.717  0.00  0.00    +0.000 C 
BRANCH  23  24
ATOM     24  C   UNL     1       4.199   3.323  18.951  0.00  0.00    +0.000 A 
ATOM     25  N   UNL     1       5.110   4.001  19.569  0.00  0.00    +0.000 NA
ATOM     26  C   UNL     1       5.935   4.837  18.796  0.00  0.00    +0.000 A 
ATOM     27  C   UNL     1       6.958   5.554  19.431  0.00  0.00    +0.000 A 
ATOM     28  C   UNL     1       7.821   6.363  18.687  0.00  0.00    +0.000 A 
ATOM     29  C   UNL     1       7.674   6.467  17.304  0.00  0.00    +0.000 A 
ATOM     30  C   UNL     1       6.652   5.772  16.660  0.00  0.00    +0.000 A 
ATOM     31  C   UNL     1       5.792   4.967  17.412  0.00  0.00    +0.000 A 
ATOM     32  C   UNL     1       4.697   4.219  16.770  0.00  0.00    +0.000 A 
ATOM     33  O   UNL     1       4.468   4.304  15.574  0.00  0.00    +0.000 OA
ATOM     34  N   UNL     1       3.958   3.421  17.608  0.00  0.00    +0.000 N 
ATOM     35  H   UNL     1       3.184   2.927  17.178  0.00  0.00    +0.000 HD
ENDBRANCH  23  24
ENDBRANCH  22  23
ENDBRANCH   2  22
TORSDOF 6
ENDMDL
MODEL 5
REMARK VINA RESULT:      -9.1      1.756      3.834
REMARK  Name = 
REMARK  6 active torsions:
REMARK  status: ('A' for Active; 'I' for Inactive)
REMARK    1  A    between atoms: C_2  and  C_3
REMARK    2  A    between atoms: C_3  and  C_4
REMARK    3  A    between atoms: C_4  and  C_5
REMARK    4  A    between atoms: N_16  and  C_17
REMARK    5  A    between atoms: C_20  and  C_21
REMARK    6  A    between atoms: C_24  and  C_25
REMARK                            x       y       z     vdW  Elec       q    Type
REMARK                         _______ _______ _______ _____ _____    ______ ____
ROOT
ATOM      1  O   UNL     1       4.837   6.983  15.663  0.00  0.00    +0.000 OA
ATOM      2  C   UNL     1       4.972   6.185  16.588  0.00  0.00    +0.000 C 
ATOM      3  N   UNL     1       4.425   6.309  17.855  0.00  0.00    +0.000 N 
ATOM      4  H   UNL     1       4.783   5.706  18.585  0.00  0.00    +0.000 HD
ENDROOT
BRANCH   3   5
ATOM      5  C   UNL     1       3.475   7.281  18.251  0.00  0.00    +0.000 A 
ATOM      6  C   UNL     1       3.148   8.377  17.454  0.00  0.00    +0.000 A 
ATOM      7  C   UNL     1       2.132   9.260  17.832  0.00  0.00    +0.000 A 
ATOM      8  C   UNL     1       1.408   9.067  19.016  0.00  0.00    +0.000 A 
ATOM      9  C   UNL     1       1.776   8.002  19.847  0.00  0.00    +0.000 A 
ATOM     10  C   UNL     1       2.793   7.109  19.463  0.00  0.00    +0.000 A 
BRANCH   8  11
ATOM     11  C   UNL     1       0.270   9.933  19.291  0.00  0.00    +0.000 A 
ATOM     12  N   UNL     1       0.053  10.705  20.339  0.00  0.00    +0.000 NA
ATOM     13  N   UNL     1      -1.109  11.394  20.084  0.00  0.00    +0.000 NA
ATOM     14  C   UNL     1      -1.535  10.988  18.905  0.00  0.00    +0.000 A 
ATOM     15  O   UNL     1      -0.702  10.058  18.331  0.00  0.00    +0.000 OA
BRANCH  14  16
ATOM     16  C   UNL     1      -2.769  11.331  18.212  0.00  0.00    +0.000 A 
ATOM     17  C   UNL     1      -3.827  11.888  18.948  0.00  0.00    +0.000 A 
ATOM     18  C   UNL     1      -5.072  12.111  18.360  0.00  0.00    +0.000 A 
ATOM     19  C   UNL     1      -5.271  11.791  17.020  0.00  0.00    +0.000 A 
ATOM     20  C   UNL     1      -4.218  11.279  16.262  0.00  0.00    +0.000 A 
ATOM     21  C   UNL     1      -2.970  11.059  16.851  0.00  0.00    +0.000 A 
ENDBRANCH  14  16
ENDBRANCH   8  11
ENDBRANCH   3   5
BRANCH   2  22
ATOM     22  C   UNL     1       5.865   4.973  16.408  0.00  0.00    +0.000 C 
BRANCH  22  23
ATOM     23  C   UNL     1       5.037   3.697  16.295  0.00  0.00    +0.000 C 
BRANCH  23  24
ATOM     24  C   UNL     1       4.329   3.413  17.597  0.00  0.00    +0.000 A 
ATOM     25  N   UNL     1       3.089   3.748  17.750  0.00  0.00    +0.000 NA
ATOM     26  C   UNL     1       2.477   3.433  18.976  0.00  0.00    +0.000 A 
ATOM     27  C   UNL     1       1.124   3.746  19.158  0.00  0.00    +0.000 A 
ATOM     28  C   UNL     1       0.474   3.410  20.349  0.00  0.00    +0.000 A 
ATOM     29  C   UNL     1       1.166   2.760  21.371  0.00  0.00    +0.000 A 
ATOM     30  C   UNL     1       2.517   2.455  21.211  0.00  0.00    +0.000 A 
ATOM     31  C   UNL     1       3.159   2.797  20.018  0.00  0.00    +0.000 A 
ATOM     32  C   UNL     1       4.586   2.495  19.811  0.00  0.00    +0.000 A 
ATOM     33  O   UNL     1       5.274   1.982  20.678  0.00  0.00    +0.000 OA
ATOM     34  N   UNL     1       5.085   2.830  18.576  0.00  0.00    +0.000 N 
ATOM     35  H   UNL     1       6.074   2.653  18.437  0.00  0.00    +0.000 HD
ENDBRANCH  23  24
ENDBRANCH  22  23
ENDBRANCH   2  22
TORSDOF 6
ENDMDL
MODEL 6
REMARK VINA RESULT:      -9.0      2.950      4.246
REMARK  Name = 
REMARK  6 active torsions:
REMARK  status: ('A' for Active; 'I' for Inactive)
REMARK    1  A    between atoms: C_2  and  C_3
REMARK    2  A    between atoms: C_3  and  C_4
REMARK    3  A    between atoms: C_4  and  C_5
REMARK    4  A    between atoms: N_16  and  C_17
REMARK    5  A    between atoms: C_20  and  C_21
REMARK    6  A    between atoms: C_24  and  C_25
REMARK                            x       y       z     vdW  Elec       q    Type
REMARK                         _______ _______ _______ _____ _____    ______ ____
ROOT
ATOM      1  O   UNL     1       1.239   4.313  19.244  0.00  0.00    +0.000 OA
ATOM      2  C   UNL     1       2.053   4.524  20.140  0.00  0.00    +0.000 C 
ATOM      3  N   UNL     1       2.517   5.766  20.540  0.00  0.00    +0.000 N 
ATOM      4  H   UNL     1       3.338   5.796  21.133  0.00  0.00    +0.000 HD
ENDROOT
BRANCH   3   5
ATOM      5  C   UNL     1       2.008   7.015  20.110  0.00  0.00    +0.000 A 
ATOM      6  C   UNL     1       1.241   7.835  20.937  0.00  0.00    +0.000 A 
ATOM      7  C   UNL     1       0.840   9.105  20.513  0.00  0.00    +0.000 A 
ATOM      8  C   UNL     1       1.202   9.596  19.252  0.00  0.00    +0.000 A 
ATOM      9  C   UNL     1       1.921   8.751  18.397  0.00  0.00    +0.000 A 
ATOM     10  C   UNL     1       2.331   7.475  18.827  0.00  0.00    +0.000 A 
BRANCH   8  11
ATOM     11  C   UNL     1       0.879  10.975  18.916  0.00  0.00    +0.000 A 
ATOM     12  N   UNL     1      -0.283  11.491  18.564  0.00  0.00    +0.000 NA
ATOM     13  N   UNL     1      -0.092  12.847  18.448  0.00  0.00    +0.000 NA
ATOM     14  C   UNL     1       1.178  13.072  18.722  0.00  0.00    +0.000 A 
ATOM     15  O   UNL     1       1.864  11.924  19.037  0.00  0.00    +0.000 OA
BRANCH  14  16
ATOM     16  C   UNL     1       1.920  14.322  18.649  0.00  0.00    +0.000 A 
ATOM     17  C   UNL     1       3.037  14.399  17.801  0.00  0.00    +0.000 A 
ATOM     18  C   UNL     1       3.857  15.527  17.795  0.00  0.00    +0.000 A 
ATOM     19  C   UNL     1       3.562  16.601  18.630  0.00  0.00    +0.000 A 
ATOM     20  C   UNL     1       2.432  16.561  19.445  0.00  0.00    +0.000 A 
ATOM     21  C   UNL     1       1.608  15.431  19.449  0.00  0.00    +0.000 A 
ENDBRANCH  14  16
ENDBRANCH   8  11
ENDBRANCH   3   5
BRANCH   2  22
ATOM     22  C   UNL     1       2.695   3.354  20.861  0.00  0.00    +0.000 C 
BRANCH  22  23
ATOM     23  C   UNL     1       3.583   2.552  19.916  0.00  0.00    +0.000 C 
BRANCH  23  24
ATOM     24  C   UNL     1       4.425   3.478  19.073  0.00  0.00    +0.000 A 
ATOM     25  N   UNL     1       5.328   4.221  19.626  0.00  0.00    +0.000 NA
ATOM     26  C   UNL     1       6.098   5.043  18.785  0.00  0.00    +0.000 A 
ATOM     27  C   UNL     1       7.110   5.830  19.349  0.00  0.00    +0.000 A 
ATOM     28  C   UNL     1       7.921   6.628  18.537  0.00  0.00    +0.000 A 
ATOM     29  C   UNL     1       7.731   6.651  17.156  0.00  0.00    +0.000 A 
ATOM     30  C   UNL     1       6.718   5.885  16.581  0.00  0.00    +0.000 A 
ATOM     31  C   UNL     1       5.911   5.092  17.401  0.00  0.00    +0.000 A 
ATOM     32  C   UNL     1       4.827   4.271  16.833  0.00  0.00    +0.000 A 
ATOM     33  O   UNL     1       4.560   4.282  15.642  0.00  0.00    +0.000 OA
ATOM     34  N   UNL     1       4.143   3.494  17.735  0.00  0.00    +0.000 N 
ATOM     35  H   UNL     1       3.376   2.950  17.356  0.00  0.00    +0.000 HD
ENDBRANCH  23  24
ENDBRANCH  22  23
ENDBRANCH   2  22
TORSDOF 6
ENDMDL
MODEL 7
REMARK VINA RESULT:      -8.9      2.257      2.917
REMARK  Name = 
REMARK  6 active torsions:
REMARK  status: ('A' for Active; 'I' for Inactive)
REMARK    1  A    between atoms: C_2  and  C_3
REMARK    2  A    between atoms: C_3  and  C_4
REMARK    3  A    between atoms: C_4  and  C_5
REMARK    4  A    between atoms: N_16  and  C_17
REMARK    5  A    between atoms: C_20  and  C_21
REMARK    6  A    between atoms: C_24  and  C_25
REMARK                            x       y       z     vdW  Elec       q    Type
REMARK                         _______ _______ _______ _____ _____    ______ ____
ROOT
ATOM      1  O   UNL     1       0.699   4.517  20.197  0.00  0.00    +0.000 OA
ATOM      2  C   UNL     1       1.891   4.626  20.477  0.00  0.00    +0.000 C 
ATOM      3  N   UNL     1       2.657   5.772  20.342  0.00  0.00    +0.000 N 
ATOM      4  H   UNL     1       3.664   5.677  20.399  0.00  0.00    +0.000 HD
ENDROOT
BRANCH   3   5
ATOM      5  C   UNL     1       2.164   7.061  20.027  0.00  0.00    +0.000 A 
ATOM      6  C   UNL     1       2.312   7.630  18.763  0.00  0.00    +0.000 A 
ATOM      7  C   UNL     1       1.724   8.862  18.459  0.00  0.00    +0.000 A 
ATOM      8  C   UNL     1       0.964   9.556  19.409  0.00  0.00    +0.000 A 
ATOM      9  C   UNL     1       0.864   9.014  20.697  0.00  0.00    +0.000 A 
ATOM     10  C   UNL     1       1.449   7.771  21.000  0.00  0.00    +0.000 A 
BRANCH   8  11
ATOM     11  C   UNL     1       0.259  10.762  18.998  0.00  0.00    +0.000 A 
ATOM     12  N   UNL     1      -0.863  10.872  18.313  0.00  0.00    +0.000 NA
ATOM     13  N   UNL     1      -1.165  12.212  18.268  0.00  0.00    +0.000 NA
ATOM     14  C   UNL     1      -0.202  12.836  18.916  0.00  0.00    +0.000 A 
ATOM     15  O   UNL     1       0.744  11.975  19.418  0.00  0.00    +0.000 OA
BRANCH  14  16
ATOM     16  C   UNL     1       0.011  14.267  19.079  0.00  0.00    +0.000 A 
ATOM     17  C   UNL     1       1.247  14.816  18.700  0.00  0.00    +0.000 A 
ATOM     18  C   UNL     1       1.547  16.154  18.958  0.00  0.00    +0.000 A 
ATOM     19  C   UNL     1       0.608  16.964  19.589  0.00  0.00    +0.000 A 
ATOM     20  C   UNL     1      -0.641  16.448  19.932  0.00  0.00    +0.000 A 
ATOM     21  C   UNL     1      -0.943  15.108  19.670  0.00  0.00    +0.000 A 
ENDBRANCH  14  16
ENDBRANCH   8  11
ENDBRANCH   3   5
BRANCH   2  22
ATOM     22  C   UNL     1       2.663   3.409  20.951  0.00  0.00    +0.000 C 
BRANCH  22  23
ATOM     23  C   UNL     1       3.095   2.544  19.772  0.00  0.00    +0.000 C 
BRANCH  23  24
ATOM     24  C   UNL     1       4.143   3.256  18.953  0.00  0.00    +0.000 A 
ATOM     25  N   UNL     1       4.105   3.205  17.661  0.00  0.00    +0.000 NA
ATOM     26  C   UNL     1       5.093   3.911  16.953  0.00  0.00    +0.000 A 
ATOM     27  C   UNL     1       5.056   3.909  15.553  0.00  0.00    +0.000 A 
ATOM     28  C   UNL     1       5.999   4.634  14.818  0.00  0.00    +0.000 A 
ATOM     29  C   UNL     1       6.990   5.366  15.472  0.00  0.00    +0.000 A 
ATOM     30  C   UNL     1       7.050   5.366  16.864  0.00  0.00    +0.000 A 
ATOM     31  C   UNL     1       6.104   4.637  17.590  0.00  0.00    +0.000 A 
ATOM     32  C   UNL     1       6.135   4.608  19.063  0.00  0.00    +0.000 A 
ATOM     33  O   UNL     1       7.005   5.174  19.705  0.00  0.00    +0.000 OA
ATOM     34  N   UNL     1       5.119   3.902  19.659  0.00  0.00    +0.000 N 
ATOM     35  H   UNL     1       5.152   3.853  20.672  0.00  0.00    +0.000 HD
ENDBRANCH  23  24
ENDBRANCH  22  23
ENDBRANCH   2  22
TORSDOF 6
ENDMDL
MODEL 8
REMARK VINA RESULT:      -8.9      2.438      4.209
REMARK  Name = 
REMARK  6 active torsions:
REMARK  status: ('A' for Active; 'I' for Inactive)
REMARK    1  A    between atoms: C_2  and  C_3
REMARK    2  A    between atoms: C_3  and  C_4
REMARK    3  A    between atoms: C_4  and  C_5
REMARK    4  A    between atoms: N_16  and  C_17
REMARK    5  A    between atoms: C_20  and  C_21
REMARK    6  A    between atoms: C_24  and  C_25
REMARK                            x       y       z     vdW  Elec       q    Type
REMARK                         _______ _______ _______ _____ _____    ______ ____
ROOT
ATOM      1  O   UNL     1       5.621   7.201  17.904  0.00  0.00    +0.000 OA
ATOM      2  C   UNL     1       4.872   6.687  17.076  0.00  0.00    +0.000 C 
ATOM      3  N   UNL     1       3.489   6.653  17.142  0.00  0.00    +0.000 N 
ATOM      4  H   UNL     1       3.002   6.020  16.520  0.00  0.00    +0.000 HD
ENDROOT
BRANCH   3   5
ATOM      5  C   UNL     1       2.691   7.353  18.078  0.00  0.00    +0.000 A 
ATOM      6  C   UNL     1       2.477   6.888  19.375  0.00  0.00    +0.000 A 
ATOM      7  C   UNL     1       1.767   7.656  20.303  0.00  0.00    +0.000 A 
ATOM      8  C   UNL     1       1.257   8.915  19.963  0.00  0.00    +0.000 A 
ATOM      9  C   UNL     1       1.418   9.357  18.644  0.00  0.00    +0.000 A 
ATOM     10  C   UNL     1       2.139   8.588  17.712  0.00  0.00    +0.000 A 
BRANCH   8  11
ATOM     11  C   UNL     1       0.648   9.731  21.004  0.00  0.00    +0.000 A 
ATOM     12  N   UNL     1       1.059   9.936  22.241  0.00  0.00    +0.000 NA
ATOM     13  N   UNL     1       0.200  10.856  22.793  0.00  0.00    +0.000 NA
ATOM     14  C   UNL     1      -0.690  11.142  21.863  0.00  0.00    +0.000 A 
ATOM     15  O   UNL     1      -0.466  10.467  20.688  0.00  0.00    +0.000 OA
BRANCH  14  16
ATOM     16  C   UNL     1      -1.872  11.986  21.961  0.00  0.00    +0.000 A 
ATOM     17  C   UNL     1      -2.460  12.185  23.222  0.00  0.00    +0.000 A 
ATOM     18  C   UNL     1      -3.667  12.873  23.349  0.00  0.00    +0.000 A 
ATOM     19  C   UNL     1      -4.295  13.384  22.218  0.00  0.00    +0.000 A 
ATOM     20  C   UNL     1      -3.703  13.235  20.964  0.00  0.00    +0.000 A 
ATOM     21  C   UNL     1      -2.493  12.548  20.836  0.00  0.00    +0.000 A 
ENDBRANCH  14  16
ENDBRANCH   8  11
ENDBRANCH   3   5
BRANCH   2  22
ATOM     22  C   UNL     1       5.461   5.948  15.890  0.00  0.00    +0.000 C 
BRANCH  22  23
ATOM     23  C   UNL     1       5.838   4.520  16.270  0.00  0.00    +0.000 C 
BRANCH  23  24
ATOM     24  C   UNL     1       4.868   3.973  17.287  0.00  0.00    +0.000 A 
ATOM     25  N   UNL     1       3.596   3.987  17.048  0.00  0.00    +0.000 NA
ATOM     26  C   UNL     1       2.745   3.439  18.024  0.00  0.00    +0.000 A 
ATOM     27  C   UNL     1       1.367   3.402  17.777  0.00  0.00    +0.000 A 
ATOM     28  C   UNL     1       0.496   2.828  18.707  0.00  0.00    +0.000 A 
ATOM     29  C   UNL     1       0.990   2.286  19.894  0.00  0.00    +0.000 A 
ATOM     30  C   UNL     1       2.357   2.328  20.160  0.00  0.00    +0.000 A 
ATOM     31  C   UNL     1       3.220   2.906  19.225  0.00  0.00    +0.000 A 
ATOM     32  C   UNL     1       4.671   2.974  19.472  0.00  0.00    +0.000 A 
ATOM     33  O   UNL     1       5.172   2.575  20.510  0.00  0.00    +0.000 OA
ATOM     34  N   UNL     1       5.416   3.514  18.453  0.00  0.00    +0.000 N 
ATOM     35  H   UNL     1       6.412   3.592  18.628  0.00  0.00    +0.000 HD
ENDBRANCH  23  24
ENDBRANCH  22  23
ENDBRANCH   2  22
TORSDOF 6
ENDMDL
MODEL 9
REMARK VINA RESULT:      -8.7      2.694      4.438
REMARK  Name = 
REMARK  6 active torsions:
REMARK  status: ('A' for Active; 'I' for Inactive)
REMARK    1  A    between atoms: C_2  and  C_3
REMARK    2  A    between atoms: C_3  and  C_4
REMARK    3  A    between atoms: C_4  and  C_5
REMARK    4  A    between atoms: N_16  and  C_17
REMARK    5  A    between atoms: C_20  and  C_21
REMARK    6  A    between atoms: C_24  and  C_25
REMARK                            x       y       z     vdW  Elec       q    Type
REMARK                         _______ _______ _______ _____ _____    ______ ____
ROOT
ATOM      1  O   UNL     1       5.497   6.601  18.158  0.00  0.00    +0.000 OA
ATOM      2  C   UNL     1       4.734   6.503  17.199  0.00  0.00    +0.000 C 
ATOM      3  N   UNL     1       3.399   6.870  17.181  0.00  0.00    +0.000 N 
ATOM      4  H   UNL     1       2.829   6.543  16.411  0.00  0.00    +0.000 HD
ENDROOT
BRANCH   3   5
ATOM      5  C   UNL     1       2.726   7.583  18.202  0.00  0.00    +0.000 A 
ATOM      6  C   UNL     1       2.163   8.841  17.991  0.00  0.00    +0.000 A 
ATOM      7  C   UNL     1       1.419   9.470  18.993  0.00  0.00    +0.000 A 
ATOM      8  C   UNL     1       1.208   8.855  20.233  0.00  0.00    +0.000 A 
ATOM      9  C   UNL     1       1.823   7.619  20.469  0.00  0.00    +0.000 A 
ATOM     10  C   UNL     1       2.566   6.982  19.458  0.00  0.00    +0.000 A 
BRANCH   8  11
ATOM     11  C   UNL     1       0.311   9.490  21.188  0.00  0.00    +0.000 A 
ATOM     12  N   UNL     1      -0.149   9.018  22.331  0.00  0.00    +0.000 NA
ATOM     13  N   UNL     1      -0.878  10.030  22.908  0.00  0.00    +0.000 NA
ATOM     14  C   UNL     1      -0.830  11.050  22.075  0.00  0.00    +0.000 A 
ATOM     15  O   UNL     1      -0.082  10.784  20.954  0.00  0.00    +0.000 OA
BRANCH  14  16
ATOM     16  C   UNL     1      -1.513  12.333  22.161  0.00  0.00    +0.000 A 
ATOM     17  C   UNL     1      -1.128  13.240  23.162  0.00  0.00    +0.000 A 
ATOM     18  C   UNL     1      -1.837  14.423  23.370  0.00  0.00    +0.000 A 
ATOM     19  C   UNL     1      -2.935  14.721  22.569  0.00  0.00    +0.000 A 
ATOM     20  C   UNL     1      -3.303  13.854  21.540  0.00  0.00    +0.000 A 
ATOM     21  C   UNL     1      -2.591  12.670  21.330  0.00  0.00    +0.000 A 
ENDBRANCH  14  16
ENDBRANCH   8  11
ENDBRANCH   3   5
BRANCH   2  22
ATOM     22  C   UNL     1       5.226   5.864  15.914  0.00  0.00    +0.000 C 
BRANCH  22  23
ATOM     23  C   UNL     1       4.966   4.361  15.919  0.00  0.00    +0.000 C 
BRANCH  23  24
ATOM     24  C   UNL     1       4.299   3.946  17.207  0.00  0.00    +0.000 A 
ATOM     25  N   UNL     1       3.012   4.006  17.323  0.00  0.00    +0.000 NA
ATOM     26  C   UNL     1       2.448   3.581  18.538  0.00  0.00    +0.000 A 
ATOM     27  C   UNL     1       1.055   3.595  18.680  0.00  0.00    +0.000 A 
ATOM     28  C   UNL     1       0.459   3.142  19.860  0.00  0.00    +0.000 A 
ATOM     29  C   UNL     1       1.245   2.670  20.911  0.00  0.00    +0.000 A 
ATOM     30  C   UNL     1       2.634   2.664  20.791  0.00  0.00    +0.000 A 
ATOM     31  C   UNL     1       3.221   3.121  19.608  0.00  0.00    +0.000 A 
ATOM     32  C   UNL     1       4.685   3.134  19.443  0.00  0.00    +0.000 A 
ATOM     33  O   UNL     1       5.442   2.793  20.338  0.00  0.00    +0.000 OA
ATOM     34  N   UNL     1       5.135   3.553  18.216  0.00  0.00    +0.000 N 
ATOM     35  H   UNL     1       6.142   3.594  18.106  0.00  0.00    +0.000 HD
ENDBRANCH  23  24
ENDBRANCH  22  23
ENDBRANCH   2  22
TORSDOF 6
ENDMDL
