MODEL 1
REMARK VINA RESULT:      -8.7      0.000      0.000
REMARK  Name = 
REMARK  5 active torsions:
REMARK  status: ('A' for Active; 'I' for Inactive)
REMARK    1  A    between atoms: C_2  and  C_3
REMARK    2  A    between atoms: C_3  and  O_4
REMARK    3  A    between atoms: O_4  and  C_5
REMARK    4  A    between atoms: C_8  and  C_9
REMARK    5  A    between atoms: N_17  and  C_18
REMARK                            x       y       z     vdW  Elec       q    Type
REMARK                         _______ _______ _______ _____ _____    ______ ____
ROOT
ATOM      1  O   UNL     1       7.839   6.367  18.341  0.00  0.00    +0.000 OA
ATOM      2  C   UNL     1       7.453   7.298  17.636  0.00  0.00    +0.000 C 
ATOM      3  N   UNL     1       6.357   7.292  16.789  0.00  0.00    +0.000 N 
ATOM      4  H   UNL     1       6.134   8.178  16.342  0.00  0.00    +0.000 HD
ENDROOT
BRANCH   3   5
ATOM      5  C   UNL     1       5.375   6.277  16.746  0.00  0.00    +0.000 A 
ATOM      6  C   UNL     1       5.554   5.091  16.029  0.00  0.00    +0.000 A 
ATOM      7  C   UNL     1       4.746   3.985  16.273  0.00  0.00    +0.000 A 
ATOM      8  C   UNL     1       3.727   4.077  17.209  0.00  0.00    +0.000 A 
ATOM      9  C   UNL     1       3.383   5.324  17.737  0.00  0.00    +0.000 A 
ATOM     10  C   UNL     1       4.220   6.422  17.520  0.00  0.00    +0.000 A 
ATOM     11  O   UNL     1       2.177   5.557  18.338  0.00  0.00    +0.000 OA
ATOM     12  C   UNL     1       2.016   4.933  19.608  0.00  0.00    +0.000 C 
ATOM     13  C   UNL     1       1.850   3.421  19.541  0.00  0.00    +0.000 C 
ATOM     14  C   UNL     1       3.109   2.772  18.999  0.00  0.00    +0.000 C 
ATOM     15  O   UNL     1       3.131   2.901  17.572  0.00  0.00    +0.000 OA
ENDBRANCH   3   5
BRANCH   2  16
ATOM     16  C   UNL     1       8.159   8.643  17.750  0.00  0.00    +0.000 C 
BRANCH  16  17
ATOM     17  O   UNL     1       8.760   8.901  19.010  0.00  0.00    +0.000 OA
BRANCH  17  18
ATOM     18  C   UNL     1       9.210  10.193  19.141  0.00  0.00    +0.000 A 
ATOM     19  C   UNL     1       9.187  10.957  17.978  0.00  0.00    +0.000 A 
ATOM     20  C   UNL     1       9.638  12.288  18.000  0.00  0.00    +0.000 A 
ATOM     21  C   UNL     1      10.098  12.887  19.184  0.00  0.00    +0.000 A 
ATOM     22  C   UNL     1      10.093  12.102  20.346  0.00  0.00    +0.000 A 
ATOM     23  C   UNL     1       9.662  10.770  20.331  0.00  0.00    +0.000 A 
BRANCH  21  24
ATOM     24  C   UNL     1      10.551  14.300  19.219  0.00  0.00    +0.000 A 
ATOM     25  C   UNL     1      11.308  14.797  20.294  0.00  0.00    +0.000 A 
ATOM     26  C   UNL     1      11.750  16.124  20.328  0.00  0.00    +0.000 A 
ATOM     27  C   UNL     1      11.446  16.984  19.274  0.00  0.00    +0.000 A 
ATOM     28  C   UNL     1      10.696  16.522  18.194  0.00  0.00    +0.000 A 
ATOM     29  C   UNL     1      10.254  15.194  18.172  0.00  0.00    +0.000 A 
ENDBRANCH  21  24
ENDBRANCH  17  18
ENDBRANCH  16  17
ENDBRANCH   2  16
TORSDOF 5
ENDMDL
MODEL 2
REMARK VINA RESULT:      -8.7      0.554      1.320
REMARK  Name = 
REMARK  5 active torsions:
REMARK  status: ('A' for Active; 'I' for Inactive)
REMARK    1  A    between atoms: C_2  and  C_3
REMARK    2  A    between atoms: C_3  and  O_4
REMARK    3  A    between atoms: O_4  and  C_5
REMARK    4  A    between atoms: C_8  and  C_9
REMARK    5  A    between atoms: N_17  and  C_18
REMARK                            x       y       z     vdW  Elec       q    Type
REMARK                         _______ _______ _______ _____ _____    ______ ____
ROOT
ATOM      1  O   UNL     1       7.923   6.662  18.567  0.00  0.00    +0.000 OA
ATOM      2  C   UNL     1       7.542   7.505  17.757  0.00  0.00    +0.000 C 
ATOM      3  N   UNL     1       6.531   7.355  16.823  0.00  0.00    +0.000 N 
ATOM      4  H   UNL     1       6.292   8.186  16.287  0.00  0.00    +0.000 HD
ENDROOT
BRANCH   3   5
ATOM      5  C   UNL     1       5.626   6.270  16.780  0.00  0.00    +0.000 A 
ATOM      6  C   UNL     1       5.899   5.095  16.075  0.00  0.00    +0.000 A 
ATOM      7  C   UNL     1       5.171   3.935  16.320  0.00  0.00    +0.000 A 
ATOM      8  C   UNL     1       4.139   3.960  17.246  0.00  0.00    +0.000 A 
ATOM      9  C   UNL     1       3.699   5.182  17.759  0.00  0.00    +0.000 A 
ATOM     10  C   UNL     1       4.456   6.337  17.541  0.00  0.00    +0.000 A 
ATOM     11  O   UNL     1       2.473   5.331  18.347  0.00  0.00    +0.000 OA
ATOM     12  C   UNL     1       2.345   4.708  19.621  0.00  0.00    +0.000 C 
ATOM     13  C   UNL     1       2.291   3.186  19.565  0.00  0.00    +0.000 C 
ATOM     14  C   UNL     1       3.599   2.627  19.041  0.00  0.00    +0.000 C 
ATOM     15  O   UNL     1       3.627   2.746  17.613  0.00  0.00    +0.000 OA
ENDBRANCH   3   5
BRANCH   2  16
ATOM     16  C   UNL     1       8.144   8.903  17.821  0.00  0.00    +0.000 C 
BRANCH  16  17
ATOM     17  O   UNL     1       8.958   9.156  18.956  0.00  0.00    +0.000 OA
BRANCH  17  18
ATOM     18  C   UNL     1       9.468  10.432  18.985  0.00  0.00    +0.000 A 
ATOM     19  C   UNL     1       9.500  11.037  20.238  0.00  0.00    +0.000 A 
ATOM     20  C   UNL     1       9.990  12.347  20.376  0.00  0.00    +0.000 A 
ATOM     21  C   UNL     1      10.477  13.068  19.273  0.00  0.00    +0.000 A 
ATOM     22  C   UNL     1      10.451  12.429  18.025  0.00  0.00    +0.000 A 
ATOM     23  C   UNL     1       9.949  11.130  17.874  0.00  0.00    +0.000 A 
BRANCH  21  24
ATOM     24  C   UNL     1      11.021  14.441  19.416  0.00  0.00    +0.000 A 
ATOM     25  C   UNL     1      11.466  15.170  18.301  0.00  0.00    +0.000 A 
ATOM     26  C   UNL     1      11.967  16.470  18.426  0.00  0.00    +0.000 A 
ATOM     27  C   UNL     1      12.025  17.074  19.681  0.00  0.00    +0.000 A 
ATOM     28  C   UNL     1      11.592  16.377  20.807  0.00  0.00    +0.000 A 
ATOM     29  C   UNL     1      11.098  15.075  20.672  0.00  0.00    +0.000 A 
ENDBRANCH  21  24
ENDBRANCH  17  18
ENDBRANCH  16  17
ENDBRANCH   2  16
TORSDOF 5
ENDMDL
MODEL 3
REMARK VINA RESULT:      -8.4      2.235     11.109
REMARK  Name = 
REMARK  5 active torsions:
REMARK  status: ('A' for Active; 'I' for Inactive)
REMARK    1  A    between atoms: C_2  and  C_3
REMARK    2  A    between atoms: C_3  and  O_4
REMARK    3  A    between atoms: O_4  and  C_5
REMARK    4  A    between atoms: C_8  and  C_9
REMARK    5  A    between atoms: N_17  and  C_18
REMARK                            x       y       z     vdW  Elec       q    Type
REMARK                         _______ _______ _______ _____ _____    ______ ____
ROOT
ATOM      1  O   UNL     1       9.176   8.832  19.198  0.00  0.00    +0.000 OA
ATOM      2  C   UNL     1       8.550   9.441  18.332  0.00  0.00    +0.000 C 
ATOM      3  N   UNL     1       8.728  10.763  17.960  0.00  0.00    +0.000 N 
ATOM      4  H   UNL     1       8.177  11.081  17.166  0.00  0.00    +0.000 HD
ENDROOT
BRANCH   3   5
ATOM      5  C   UNL     1       9.804  11.580  18.374  0.00  0.00    +0.000 A 
ATOM      6  C   UNL     1      10.955  11.751  17.601  0.00  0.00    +0.000 A 
ATOM      7  C   UNL     1      11.832  12.802  17.856  0.00  0.00    +0.000 A 
ATOM      8  C   UNL     1      11.577  13.662  18.914  0.00  0.00    +0.000 A 
ATOM      9  C   UNL     1      10.578  13.346  19.837  0.00  0.00    +0.000 A 
ATOM     10  C   UNL     1       9.678  12.314  19.557  0.00  0.00    +0.000 A 
ATOM     11  O   UNL     1      10.528  13.906  21.083  0.00  0.00    +0.000 OA
ATOM     12  C   UNL     1      10.162  15.282  21.102  0.00  0.00    +0.000 C 
ATOM     13  C   UNL     1      11.238  16.219  20.568  0.00  0.00    +0.000 C 
ATOM     14  C   UNL     1      11.493  15.953  19.097  0.00  0.00    +0.000 C 
ATOM     15  O   UNL     1      12.333  14.800  18.963  0.00  0.00    +0.000 OA
ENDBRANCH   3   5
BRANCH   2  16
ATOM     16  C   UNL     1       7.537   8.676  17.489  0.00  0.00    +0.000 C 
BRANCH  16  17
ATOM     17  O   UNL     1       7.705   7.266  17.481  0.00  0.00    +0.000 OA
BRANCH  17  18
ATOM     18  C   UNL     1       6.540   6.580  17.731  0.00  0.00    +0.000 A 
ATOM     19  C   UNL     1       6.605   5.647  18.762  0.00  0.00    +0.000 A 
ATOM     20  C   UNL     1       5.473   4.882  19.091  0.00  0.00    +0.000 A 
ATOM     21  C   UNL     1       4.252   5.049  18.416  0.00  0.00    +0.000 A 
ATOM     22  C   UNL     1       4.209   6.009  17.395  0.00  0.00    +0.000 A 
ATOM     23  C   UNL     1       5.336   6.764  17.047  0.00  0.00    +0.000 A 
BRANCH  21  24
ATOM     24  C   UNL     1       3.046   4.263  18.777  0.00  0.00    +0.000 A 
ATOM     25  C   UNL     1       2.162   4.702  19.777  0.00  0.00    +0.000 A 
ATOM     26  C   UNL     1       1.016   3.973  20.113  0.00  0.00    +0.000 A 
ATOM     27  C   UNL     1       0.727   2.785  19.444  0.00  0.00    +0.000 A 
ATOM     28  C   UNL     1       1.585   2.323  18.448  0.00  0.00    +0.000 A 
ATOM     29  C   UNL     1       2.732   3.056  18.123  0.00  0.00    +0.000 A 
ENDBRANCH  21  24
ENDBRANCH  17  18
ENDBRANCH  16  17
ENDBRANCH   2  16
TORSDOF 5
ENDMDL
MODEL 4
REMARK VINA RESULT:      -8.3      6.550      9.699
REMARK  Name = 
REMARK  5 active torsions:
REMARK  status: ('A' for Active; 'I' for Inactive)
REMARK    1  A    between atoms: C_2  and  C_3
REMARK    2  A    between atoms: C_3  and  O_4
REMARK    3  A    between atoms: O_4  and  C_5
REMARK    4  A    between atoms: C_8  and  C_9
REMARK    5  A    between atoms: N_17  and  C_18
REMARK                            x       y       z     vdW  Elec       q    Type
REMARK                         _______ _______ _______ _____ _____    ______ ____
ROOT
ATOM      1  O   UNL     1       2.110   8.075  18.912  0.00  0.00    +0.000 OA
ATOM      2  C   UNL     1       1.858   7.521  19.981  0.00  0.00    +0.000 C 
ATOM      3  N   UNL     1       2.077   6.190  20.293  0.00  0.00    +0.000 N 
ATOM      4  H   UNL     1       1.885   5.919  21.254  0.00  0.00    +0.000 HD
ENDROOT
BRANCH   3   5
ATOM      5  C   UNL     1       2.820   5.287  19.499  0.00  0.00    +0.000 A 
ATOM      6  C   UNL     1       2.225   4.486  18.520  0.00  0.00    +0.000 A 
ATOM      7  C   UNL     1       2.998   3.873  17.538  0.00  0.00    +0.000 A 
ATOM      8  C   UNL     1       4.376   4.028  17.559  0.00  0.00    +0.000 A 
ATOM      9  C   UNL     1       4.991   4.608  18.671  0.00  0.00    +0.000 A 
ATOM     10  C   UNL     1       4.211   5.256  19.633  0.00  0.00    +0.000 A 
ATOM     11  O   UNL     1       6.321   4.443  18.941  0.00  0.00    +0.000 OA
ATOM     12  C   UNL     1       7.197   5.129  18.052  0.00  0.00    +0.000 C 
ATOM     13  C   UNL     1       7.261   4.526  16.655  0.00  0.00    +0.000 C 
ATOM     14  C   UNL     1       5.916   4.640  15.965  0.00  0.00    +0.000 C 
ATOM     15  O   UNL     1       5.048   3.607  16.444  0.00  0.00    +0.000 OA
ENDBRANCH   3   5
BRANCH   2  16
ATOM     16  C   UNL     1       1.347   8.367  21.140  0.00  0.00    +0.000 C 
BRANCH  16  17
ATOM     17  O   UNL     1       1.384   9.770  20.922  0.00  0.00    +0.000 OA
BRANCH  17  18
ATOM     18  C   UNL     1       0.299  10.430  21.448  0.00  0.00    +0.000 A 
ATOM     19  C   UNL     1      -0.298  11.366  20.609  0.00  0.00    +0.000 A 
ATOM     20  C   UNL     1      -1.406  12.106  21.054  0.00  0.00    +0.000 A 
ATOM     21  C   UNL     1      -1.954  11.909  22.333  0.00  0.00    +0.000 A 
ATOM     22  C   UNL     1      -1.345  10.947  23.152  0.00  0.00    +0.000 A 
ATOM     23  C   UNL     1      -0.229  10.217  22.724  0.00  0.00    +0.000 A 
BRANCH  21  24
ATOM     24  C   UNL     1      -3.141  12.668  22.800  0.00  0.00    +0.000 A 
ATOM     25  C   UNL     1      -3.829  12.300  23.968  0.00  0.00    +0.000 A 
ATOM     26  C   UNL     1      -4.941  13.018  24.421  0.00  0.00    +0.000 A 
ATOM     27  C   UNL     1      -5.384  14.133  23.711  0.00  0.00    +0.000 A 
ATOM     28  C   UNL     1      -4.723  14.523  22.548  0.00  0.00    +0.000 A 
ATOM     29  C   UNL     1      -3.615  13.795  22.100  0.00  0.00    +0.000 A 
ENDBRANCH  21  24
ENDBRANCH  17  18
ENDBRANCH  16  17
ENDBRANCH   2  16
TORSDOF 5
ENDMDL
MODEL 5
REMARK VINA RESULT:      -8.2      2.465     11.057
REMARK  Name = 
REMARK  5 active torsions:
REMARK  status: ('A' for Active; 'I' for Inactive)
REMARK    1  A    between atoms: C_2  and  C_3
REMARK    2  A    between atoms: C_3  and  O_4
REMARK    3  A    between atoms: O_4  and  C_5
REMARK    4  A    between atoms: C_8  and  C_9
REMARK    5  A    between atoms: N_17  and  C_18
REMARK                            x       y       z     vdW  Elec       q    Type
REMARK                         _______ _______ _______ _____ _____    ______ ____
ROOT
ATOM      1  O   UNL     1       8.933   9.915  20.026  0.00  0.00    +0.000 OA
ATOM      2  C   UNL     1       8.926   9.687  18.818  0.00  0.00    +0.000 C 
ATOM      3  N   UNL     1       9.343  10.544  17.813  0.00  0.00    +0.000 N 
ATOM      4  H   UNL     1       9.344  10.160  16.871  0.00  0.00    +0.000 HD
ENDROOT
BRANCH   3   5
ATOM      5  C   UNL     1      10.040  11.755  18.023  0.00  0.00    +0.000 A 
ATOM      6  C   UNL     1      11.411  11.881  17.785  0.00  0.00    +0.000 A 
ATOM      7  C   UNL     1      11.999  13.137  17.669  0.00  0.00    +0.000 A 
ATOM      8  C   UNL     1      11.220  14.273  17.833  0.00  0.00    +0.000 A 
ATOM      9  C   UNL     1       9.917  14.154  18.321  0.00  0.00    +0.000 A 
ATOM     10  C   UNL     1       9.319  12.893  18.398  0.00  0.00    +0.000 A 
ATOM     11  O   UNL     1       9.242  15.208  18.871  0.00  0.00    +0.000 OA
ATOM     12  C   UNL     1       8.842  16.209  17.941  0.00  0.00    +0.000 C 
ATOM     13  C   UNL     1       9.992  17.046  17.396  0.00  0.00    +0.000 C 
ATOM     14  C   UNL     1      10.940  16.184  16.585  0.00  0.00    +0.000 C 
ATOM     15  O   UNL     1      11.799  15.459  17.473  0.00  0.00    +0.000 OA
ENDBRANCH   3   5
BRANCH   2  16
ATOM     16  C   UNL     1       8.523   8.298  18.339  0.00  0.00    +0.000 C 
BRANCH  16  17
ATOM     17  O   UNL     1       7.638   8.278  17.228  0.00  0.00    +0.000 OA
BRANCH  17  18
ATOM     18  C   UNL     1       6.632   7.350  17.353  0.00  0.00    +0.000 A 
ATOM     19  C   UNL     1       6.871   6.325  18.264  0.00  0.00    +0.000 A 
ATOM     20  C   UNL     1       5.912   5.316  18.458  0.00  0.00    +0.000 A 
ATOM     21  C   UNL     1       4.690   5.324  17.766  0.00  0.00    +0.000 A 
ATOM     22  C   UNL     1       4.465   6.377  16.869  0.00  0.00    +0.000 A 
ATOM     23  C   UNL     1       5.422   7.378  16.655  0.00  0.00    +0.000 A 
BRANCH  21  24
ATOM     24  C   UNL     1       3.662   4.276  17.986  0.00  0.00    +0.000 A 
ATOM     25  C   UNL     1       3.953   2.915  17.790  0.00  0.00    +0.000 A 
ATOM     26  C   UNL     1       2.993   1.921  18.008  0.00  0.00    +0.000 A 
ATOM     27  C   UNL     1       1.715   2.272  18.438  0.00  0.00    +0.000 A 
ATOM     28  C   UNL     1       1.395   3.614  18.641  0.00  0.00    +0.000 A 
ATOM     29  C   UNL     1       2.360   4.601  18.414  0.00  0.00    +0.000 A 
ENDBRANCH  21  24
ENDBRANCH  17  18
ENDBRANCH  16  17
ENDBRANCH   2  16
TORSDOF 5
ENDMDL
MODEL 6
REMARK VINA RESULT:      -8.2      0.974      1.105
REMARK  Name = 
REMARK  5 active torsions:
REMARK  status: ('A' for Active; 'I' for Inactive)
REMARK    1  A    between atoms: C_2  and  C_3
REMARK    2  A    between atoms: C_3  and  O_4
REMARK    3  A    between atoms: O_4  and  C_5
REMARK    4  A    between atoms: C_8  and  C_9
REMARK    5  A    between atoms: N_17  and  C_18
REMARK                            x       y       z     vdW  Elec       q    Type
REMARK                         _______ _______ _______ _____ _____    ______ ____
ROOT
ATOM      1  O   UNL     1       7.865   5.391  18.136  0.00  0.00    +0.000 OA
ATOM      2  C   UNL     1       7.401   6.516  17.957  0.00  0.00    +0.000 C 
ATOM      3  N   UNL     1       6.154   6.823  17.438  0.00  0.00    +0.000 N 
ATOM      4  H   UNL     1       5.902   7.808  17.436  0.00  0.00    +0.000 HD
ENDROOT
BRANCH   3   5
ATOM      5  C   UNL     1       5.120   5.886  17.215  0.00  0.00    +0.000 A 
ATOM      6  C   UNL     1       5.251   4.827  16.312  0.00  0.00    +0.000 A 
ATOM      7  C   UNL     1       4.380   3.743  16.358  0.00  0.00    +0.000 A 
ATOM      8  C   UNL     1       3.347   3.736  17.284  0.00  0.00    +0.000 A 
ATOM      9  C   UNL     1       3.059   4.895  18.008  0.00  0.00    +0.000 A 
ATOM     10  C   UNL     1       3.958   5.965  17.988  0.00  0.00    +0.000 A 
ATOM     11  O   UNL     1       1.855   5.093  18.625  0.00  0.00    +0.000 OA
ATOM     12  C   UNL     1       1.634   4.278  19.771  0.00  0.00    +0.000 C 
ATOM     13  C   UNL     1       1.389   2.809  19.451  0.00  0.00    +0.000 C 
ATOM     14  C   UNL     1       2.622   2.189  18.823  0.00  0.00    +0.000 C 
ATOM     15  O   UNL     1       2.682   2.551  17.439  0.00  0.00    +0.000 OA
ENDBRANCH   3   5
BRANCH   2  16
ATOM     16  C   UNL     1       8.203   7.721  18.434  0.00  0.00    +0.000 C 
BRANCH  16  17
ATOM     17  O   UNL     1       7.935   8.932  17.744  0.00  0.00    +0.000 OA
BRANCH  17  18
ATOM     18  C   UNL     1       8.553  10.024  18.306  0.00  0.00    +0.000 A 
ATOM     19  C   UNL     1       8.382  11.226  17.625  0.00  0.00    +0.000 A 
ATOM     20  C   UNL     1       8.983  12.401  18.108  0.00  0.00    +0.000 A 
ATOM     21  C   UNL     1       9.744  12.404  19.288  0.00  0.00    +0.000 A 
ATOM     22  C   UNL     1       9.885  11.184  19.965  0.00  0.00    +0.000 A 
ATOM     23  C   UNL     1       9.305  10.004  19.483  0.00  0.00    +0.000 A 
BRANCH  21  24
ATOM     24  C   UNL     1      10.359  13.646  19.818  0.00  0.00    +0.000 A 
ATOM     25  C   UNL     1       9.954  14.195  21.046  0.00  0.00    +0.000 A 
ATOM     26  C   UNL     1      10.538  15.359  21.558  0.00  0.00    +0.000 A 
ATOM     27  C   UNL     1      11.554  15.996  20.848  0.00  0.00    +0.000 A 
ATOM     28  C   UNL     1      11.977  15.477  19.626  0.00  0.00    +0.000 A 
ATOM     29  C   UNL     1      11.383  14.316  19.119  0.00  0.00    +0.000 A 
ENDBRANCH  21  24
ENDBRANCH  17  18
ENDBRANCH  16  17
ENDBRANCH   2  16
TORSDOF 5
ENDMDL
MODEL 7
REMARK VINA RESULT:      -8.2      6.524      9.607
REMARK  Name = 
REMARK  5 active torsions:
REMARK  status: ('A' for Active; 'I' for Inactive)
REMARK    1  A    between atoms: C_2  and  C_3
REMARK    2  A    between atoms: C_3  and  O_4
REMARK    3  A    between atoms: O_4  and  C_5
REMARK    4  A    between atoms: C_8  and  C_9
REMARK    5  A    between atoms: N_17  and  C_18
REMARK                            x       y       z     vdW  Elec       q    Type
REMARK                         _______ _______ _______ _____ _____    ______ ____
ROOT
ATOM      1  O   UNL     1       2.086   8.020  19.036  0.00  0.00    +0.000 OA
ATOM      2  C   UNL     1       1.805   7.416  20.071  0.00  0.00    +0.000 C 
ATOM      3  N   UNL     1       2.017   6.072  20.326  0.00  0.00    +0.000 N 
ATOM      4  H   UNL     1       1.798   5.756  21.268  0.00  0.00    +0.000 HD
ENDROOT
BRANCH   3   5
ATOM      5  C   UNL     1       2.781   5.207  19.511  0.00  0.00    +0.000 A 
ATOM      6  C   UNL     1       2.214   4.458  18.476  0.00  0.00    +0.000 A 
ATOM      7  C   UNL     1       3.015   3.891  17.489  0.00  0.00    +0.000 A 
ATOM      8  C   UNL     1       4.392   4.039  17.558  0.00  0.00    +0.000 A 
ATOM      9  C   UNL     1       4.974   4.561  18.716  0.00  0.00    +0.000 A 
ATOM     10  C   UNL     1       4.167   5.163  19.686  0.00  0.00    +0.000 A 
ATOM     11  O   UNL     1       6.295   4.378  19.018  0.00  0.00    +0.000 OA
ATOM     12  C   UNL     1       7.200   5.104  18.191  0.00  0.00    +0.000 C 
ATOM     13  C   UNL     1       7.305   4.570  16.768  0.00  0.00    +0.000 C 
ATOM     14  C   UNL     1       5.982   4.724  16.044  0.00  0.00    +0.000 C 
ATOM     15  O   UNL     1       5.097   3.671  16.446  0.00  0.00    +0.000 OA
ENDBRANCH   3   5
BRANCH   2  16
ATOM     16  C   UNL     1       1.262   8.208  21.254  0.00  0.00    +0.000 C 
BRANCH  16  17
ATOM     17  O   UNL     1       1.599   9.587  21.259  0.00  0.00    +0.000 OA
BRANCH  17  18
ATOM     18  C   UNL     1       0.537  10.403  21.571  0.00  0.00    +0.000 A 
ATOM     19  C   UNL     1      -0.143  10.080  22.742  0.00  0.00    +0.000 A 
ATOM     20  C   UNL     1      -1.252  10.843  23.145  0.00  0.00    +0.000 A 
ATOM     21  C   UNL     1      -1.688  11.953  22.403  0.00  0.00    +0.000 A 
ATOM     22  C   UNL     1      -0.974  12.268  21.238  0.00  0.00    +0.000 A 
ATOM     23  C   UNL     1       0.122  11.504  20.818  0.00  0.00    +0.000 A 
BRANCH  21  24
ATOM     24  C   UNL     1      -2.842  12.779  22.837  0.00  0.00    +0.000 A 
ATOM     25  C   UNL     1      -4.110  12.628  22.249  0.00  0.00    +0.000 A 
ATOM     26  C   UNL     1      -5.205  13.394  22.663  0.00  0.00    +0.000 A 
ATOM     27  C   UNL     1      -5.054  14.326  23.687  0.00  0.00    +0.000 A 
ATOM     28  C   UNL     1      -3.809  14.500  24.290  0.00  0.00    +0.000 A 
ATOM     29  C   UNL     1      -2.718  13.734  23.865  0.00  0.00    +0.000 A 
ENDBRANCH  21  24
ENDBRANCH  17  18
ENDBRANCH  16  17
ENDBRANCH   2  16
TORSDOF 5
ENDMDL
MODEL 8
REMARK VINA RESULT:      -8.2      7.132     10.685
REMARK  Name = 
REMARK  5 active torsions:
REMARK  status: ('A' for Active; 'I' for Inactive)
REMARK    1  A    between atoms: C_2  and  C_3
REMARK    2  A    between atoms: C_3  and  O_4
REMARK    3  A    between atoms: O_4  and  C_5
REMARK    4  A    between atoms: C_8  and  C_9
REMARK    5  A    between atoms: N_17  and  C_18
REMARK                            x       y       z     vdW  Elec       q    Type
REMARK                         _______ _______ _______ _____ _____    ______ ____
ROOT
ATOM      1  O   UNL     1       1.229   8.886  21.059  0.00  0.00    +0.000 OA
ATOM      2  C   UNL     1       1.463   8.922  19.851  0.00  0.00    +0.000 C 
ATOM      3  N   UNL     1       2.097   7.944  19.104  0.00  0.00    +0.000 N 
ATOM      4  H   UNL     1       2.134   8.103  18.100  0.00  0.00    +0.000 HD
ENDROOT
BRANCH   3   5
ATOM      5  C   UNL     1       2.401   6.644  19.568  0.00  0.00    +0.000 A 
ATOM      6  C   UNL     1       1.730   6.057  20.643  0.00  0.00    +0.000 A 
ATOM      7  C   UNL     1       1.801   4.684  20.861  0.00  0.00    +0.000 A 
ATOM      8  C   UNL     1       2.580   3.900  20.023  0.00  0.00    +0.000 A 
ATOM      9  C   UNL     1       3.448   4.509  19.114  0.00  0.00    +0.000 A 
ATOM     10  C   UNL     1       3.345   5.882  18.872  0.00  0.00    +0.000 A 
ATOM     11  O   UNL     1       4.504   3.847  18.552  0.00  0.00    +0.000 OA
ATOM     12  C   UNL     1       4.141   2.854  17.597  0.00  0.00    +0.000 C 
ATOM     13  C   UNL     1       3.502   1.612  18.205  0.00  0.00    +0.000 C 
ATOM     14  C   UNL     1       2.177   1.960  18.855  0.00  0.00    +0.000 C 
ATOM     15  O   UNL     1       2.420   2.547  20.139  0.00  0.00    +0.000 OA
ENDBRANCH   3   5
BRANCH   2  16
ATOM     16  C   UNL     1       0.931  10.095  19.039  0.00  0.00    +0.000 C 
BRANCH  16  17
ATOM     17  O   UNL     1       0.194   9.738  17.879  0.00  0.00    +0.000 OA
BRANCH  17  18
ATOM     18  C   UNL     1      -1.099  10.203  17.893  0.00  0.00    +0.000 A 
ATOM     19  C   UNL     1      -1.379  11.168  18.856  0.00  0.00    +0.000 A 
ATOM     20  C   UNL     1      -2.674  11.701  18.964  0.00  0.00    +0.000 A 
ATOM     21  C   UNL     1      -3.707  11.299  18.102  0.00  0.00    +0.000 A 
ATOM     22  C   UNL     1      -3.395  10.340  17.128  0.00  0.00    +0.000 A 
ATOM     23  C   UNL     1      -2.111   9.790  17.023  0.00  0.00    +0.000 A 
BRANCH  21  24
ATOM     24  C   UNL     1      -5.071  11.878  18.194  0.00  0.00    +0.000 A 
ATOM     25  C   UNL     1      -5.778  11.889  19.408  0.00  0.00    +0.000 A 
ATOM     26  C   UNL     1      -7.059  12.445  19.506  0.00  0.00    +0.000 A 
ATOM     27  C   UNL     1      -7.658  13.010  18.382  0.00  0.00    +0.000 A 
ATOM     28  C   UNL     1      -6.982  13.013  17.163  0.00  0.00    +0.000 A 
ATOM     29  C   UNL     1      -5.705  12.450  17.074  0.00  0.00    +0.000 A 
ENDBRANCH  21  24
ENDBRANCH  17  18
ENDBRANCH  16  17
ENDBRANCH   2  16
TORSDOF 5
ENDMDL
MODEL 9
REMARK VINA RESULT:      -8.2      6.205      9.534
REMARK  Name = 
REMARK  5 active torsions:
REMARK  status: ('A' for Active; 'I' for Inactive)
REMARK    1  A    between atoms: C_2  and  C_3
REMARK    2  A    between atoms: C_3  and  O_4
REMARK    3  A    between atoms: O_4  and  C_5
REMARK    4  A    between atoms: C_8  and  C_9
REMARK    5  A    between atoms: N_17  and  C_18
REMARK                            x       y       z     vdW  Elec       q    Type
REMARK                         _______ _______ _______ _____ _____    ______ ____
ROOT
ATOM      1  O   UNL     1       2.264   7.448  18.503  0.00  0.00    +0.000 OA
ATOM      2  C   UNL     1       2.348   6.949  19.624  0.00  0.00    +0.000 C 
ATOM      3  N   UNL     1       1.891   7.499  20.810  0.00  0.00    +0.000 N 
ATOM      4  H   UNL     1       1.971   6.910  21.635  0.00  0.00    +0.000 HD
ENDROOT
BRANCH   3   5
ATOM      5  C   UNL     1       1.064   8.641  20.903  0.00  0.00    +0.000 A 
ATOM      6  C   UNL     1       0.364   8.965  22.068  0.00  0.00    +0.000 A 
ATOM      7  C   UNL     1      -0.157  10.243  22.252  0.00  0.00    +0.000 A 
ATOM      8  C   UNL     1      -0.011  11.190  21.249  0.00  0.00    +0.000 A 
ATOM      9  C   UNL     1       0.457  10.800  19.992  0.00  0.00    +0.000 A 
ATOM     10  C   UNL     1       1.013   9.528  19.824  0.00  0.00    +0.000 A 
ATOM     11  O   UNL     1       0.260  11.556  18.870  0.00  0.00    +0.000 OA
ATOM     12  C   UNL     1       1.023  12.758  18.823  0.00  0.00    +0.000 C 
ATOM     13  C   UNL     1       0.556  13.829  19.799  0.00  0.00    +0.000 C 
ATOM     14  C   UNL     1       0.743  13.362  21.230  0.00  0.00    +0.000 C 
ATOM     15  O   UNL     1      -0.327  12.478  21.583  0.00  0.00    +0.000 OA
ENDBRANCH   3   5
BRANCH   2  16
ATOM     16  C   UNL     1       2.913   5.540  19.755  0.00  0.00    +0.000 C 
BRANCH  16  17
ATOM     17  O   UNL     1       4.331   5.457  19.735  0.00  0.00    +0.000 OA
BRANCH  17  18
ATOM     18  C   UNL     1       4.846   5.296  18.471  0.00  0.00    +0.000 A 
ATOM     19  C   UNL     1       4.247   4.305  17.701  0.00  0.00    +0.000 A 
ATOM     20  C   UNL     1       4.707   4.050  16.398  0.00  0.00    +0.000 A 
ATOM     21  C   UNL     1       5.757   4.793  15.832  0.00  0.00    +0.000 A 
ATOM     22  C   UNL     1       6.331   5.798  16.623  0.00  0.00    +0.000 A 
ATOM     23  C   UNL     1       5.891   6.049  17.929  0.00  0.00    +0.000 A 
BRANCH  21  24
ATOM     24  C   UNL     1       6.230   4.547  14.447  0.00  0.00    +0.000 A 
ATOM     25  C   UNL     1       5.576   3.631  13.605  0.00  0.00    +0.000 A 
ATOM     26  C   UNL     1       6.009   3.403  12.294  0.00  0.00    +0.000 A 
ATOM     27  C   UNL     1       7.108   4.099  11.794  0.00  0.00    +0.000 A 
ATOM     28  C   UNL     1       7.778   5.013  12.605  0.00  0.00    +0.000 A 
ATOM     29  C   UNL     1       7.342   5.230  13.917  0.00  0.00    +0.000 A 
ENDBRANCH  21  24
ENDBRANCH  17  18
ENDBRANCH  16  17
ENDBRANCH   2  16
TORSDOF 5
ENDMDL
