MODEL 1
REMARK VINA RESULT:      -6.9      0.000      0.000
REMARK  Name = 
REMARK  5 active torsions:
REMARK  status: ('A' for Active; 'I' for Inactive)
REMARK    1  A    between atoms: C_1  and  C_2
REMARK    2  A    between atoms: C_2  and  C_3
REMARK    3  A    between atoms: C_2  and  O_4
REMARK    4  A    between atoms: O_4  and  C_5
REMARK    5  A    between atoms: C_8  and  C_9
REMARK                            x       y       z     vdW  Elec       q    Type
REMARK                         _______ _______ _______ _____ _____    ______ ____
ROOT
ATOM      1  C   UNL     1       4.020   3.990  19.223  0.00  0.00    +0.000 A 
ATOM      2  C   UNL     1       3.596   3.498  17.989  0.00  0.00    +0.000 A 
ATOM      3  C   UNL     1       4.357   3.711  16.840  0.00  0.00    +0.000 A 
ATOM      4  C   UNL     1       5.546   4.441  16.908  0.00  0.00    +0.000 A 
ATOM      5  C   UNL     1       5.977   4.950  18.136  0.00  0.00    +0.000 A 
ATOM      6  C   UNL     1       5.210   4.724  19.286  0.00  0.00    +0.000 A 
ENDROOT
BRANCH   4   7
ATOM      7  C   UNL     1       6.290   4.665  15.664  0.00  0.00    +0.000 A 
ATOM      8  N   UNL     1       7.293   5.468  15.482  0.00  0.00    +0.000 NA
ATOM      9  N   UNL     1       7.593   5.267  14.175  0.00  0.00    +0.000 N 
ATOM     10  C   UNL     1       6.765   4.343  13.605  0.00  0.00    +0.000 A 
ATOM     11  O   UNL     1       6.777   3.937  12.457  0.00  0.00    +0.000 OA
ATOM     12  O   UNL     1       5.902   3.947  14.581  0.00  0.00    +0.000 OA
ATOM     13  H   UNL     1       8.355   5.742  13.709  0.00  0.00    +0.000 HD
ENDBRANCH   4   7
BRANCH   1  14
ATOM     14  O   UNL     1       3.365   3.834  20.413  0.00  0.00    +0.000 OA
BRANCH  14  16
ATOM     15  C   UNL     1       1.739   2.559  21.607  0.00  0.00    +0.000 C 
ATOM     16  C   UNL     1       1.987   3.443  20.388  0.00  0.00    +0.000 C 
ATOM     17  C   UNL     1       1.094   4.680  20.437  0.00  0.00    +0.000 C 
ENDBRANCH  14  16
ENDBRANCH   1  14
TORSDOF 3
ENDMDL
MODEL 2
REMARK VINA RESULT:      -6.9      0.593      1.338
REMARK  Name = 
REMARK  5 active torsions:
REMARK  status: ('A' for Active; 'I' for Inactive)
REMARK    1  A    between atoms: C_1  and  C_2
REMARK    2  A    between atoms: C_2  and  C_3
REMARK    3  A    between atoms: C_2  and  O_4
REMARK    4  A    between atoms: O_4  and  C_5
REMARK    5  A    between atoms: C_8  and  C_9
REMARK                            x       y       z     vdW  Elec       q    Type
REMARK                         _______ _______ _______ _____ _____    ______ ____
ROOT
ATOM      1  C   UNL     1       4.219   3.943  18.850  0.00  0.00    +0.000 A 
ATOM      2  C   UNL     1       5.485   4.525  18.888  0.00  0.00    +0.000 A 
ATOM      3  C   UNL     1       6.189   4.774  17.709  0.00  0.00    +0.000 A 
ATOM      4  C   UNL     1       5.641   4.420  16.474  0.00  0.00    +0.000 A 
ATOM      5  C   UNL     1       4.378   3.825  16.422  0.00  0.00    +0.000 A 
ATOM      6  C   UNL     1       3.675   3.587  17.610  0.00  0.00    +0.000 A 
ENDROOT
BRANCH   4   7
ATOM      7  C   UNL     1       6.438   4.672  15.270  0.00  0.00    +0.000 A 
ATOM      8  N   UNL     1       7.466   5.457  15.158  0.00  0.00    +0.000 NA
ATOM      9  N   UNL     1       7.814   5.297  13.856  0.00  0.00    +0.000 N 
ATOM     10  C   UNL     1       6.987   4.416  13.219  0.00  0.00    +0.000 A 
ATOM     11  O   UNL     1       7.036   4.052  12.059  0.00  0.00    +0.000 OA
ATOM     12  O   UNL     1       6.078   4.006  14.145  0.00  0.00    +0.000 OA
ATOM     13  H   UNL     1       8.604   5.770  13.439  0.00  0.00    +0.000 HD
ENDBRANCH   4   7
BRANCH   1  14
ATOM     14  O   UNL     1       3.434   3.665  19.934  0.00  0.00    +0.000 OA
BRANCH  14  16
ATOM     15  C   UNL     1       1.267   2.921  20.601  0.00  0.00    +0.000 C 
ATOM     16  C   UNL     1       2.046   4.018  19.880  0.00  0.00    +0.000 C 
ATOM     17  C   UNL     1       1.825   5.365  20.563  0.00  0.00    +0.000 C 
ENDBRANCH  14  16
ENDBRANCH   1  14
TORSDOF 3
ENDMDL
MODEL 3
REMARK VINA RESULT:      -6.6      1.013      1.097
REMARK  Name = 
REMARK  5 active torsions:
REMARK  status: ('A' for Active; 'I' for Inactive)
REMARK    1  A    between atoms: C_1  and  C_2
REMARK    2  A    between atoms: C_2  and  C_3
REMARK    3  A    between atoms: C_2  and  O_4
REMARK    4  A    between atoms: O_4  and  C_5
REMARK    5  A    between atoms: C_8  and  C_9
REMARK                            x       y       z     vdW  Elec       q    Type
REMARK                         _______ _______ _______ _____ _____    ______ ____
ROOT
ATOM      1  C   UNL     1       3.506   4.598  18.680  0.00  0.00    +0.000 A 
ATOM      2  C   UNL     1       4.256   3.511  18.232  0.00  0.00    +0.000 A 
ATOM      3  C   UNL     1       5.137   3.651  17.159  0.00  0.00    +0.000 A 
ATOM      4  C   UNL     1       5.263   4.879  16.506  0.00  0.00    +0.000 A 
ATOM      5  C   UNL     1       4.508   5.973  16.936  0.00  0.00    +0.000 A 
ATOM      6  C   UNL     1       3.632   5.826  18.020  0.00  0.00    +0.000 A 
ENDROOT
BRANCH   4   7
ATOM      7  C   UNL     1       6.178   4.961  15.363  0.00  0.00    +0.000 A 
ATOM      8  N   UNL     1       7.302   5.607  15.301  0.00  0.00    +0.000 NA
ATOM      9  N   UNL     1       7.728   5.330  14.043  0.00  0.00    +0.000 N 
ATOM     10  C   UNL     1       6.849   4.521  13.381  0.00  0.00    +0.000 A 
ATOM     11  O   UNL     1       6.942   4.087  12.248  0.00  0.00    +0.000 OA
ATOM     12  O   UNL     1       5.825   4.279  14.245  0.00  0.00    +0.000 OA
ATOM     13  H   UNL     1       8.602   5.678  13.673  0.00  0.00    +0.000 HD
ENDBRANCH   4   7
BRANCH   1  14
ATOM     14  O   UNL     1       2.624   4.583  19.724  0.00  0.00    +0.000 OA
BRANCH  14  16
ATOM     15  C   UNL     1       2.059   3.403  21.720  0.00  0.00    +0.000 C 
ATOM     16  C   UNL     1       2.149   3.317  20.199  0.00  0.00    +0.000 C 
ATOM     17  C   UNL     1       0.777   3.018  19.601  0.00  0.00    +0.000 C 
ENDBRANCH  14  16
ENDBRANCH   1  14
TORSDOF 3
ENDMDL
MODEL 4
REMARK VINA RESULT:      -6.5      1.346      1.921
REMARK  Name = 
REMARK  5 active torsions:
REMARK  status: ('A' for Active; 'I' for Inactive)
REMARK    1  A    between atoms: C_1  and  C_2
REMARK    2  A    between atoms: C_2  and  C_3
REMARK    3  A    between atoms: C_2  and  O_4
REMARK    4  A    between atoms: O_4  and  C_5
REMARK    5  A    between atoms: C_8  and  C_9
REMARK                            x       y       z     vdW  Elec       q    Type
REMARK                         _______ _______ _______ _____ _____    ______ ____
ROOT
ATOM      1  C   UNL     1       2.998   5.064  18.097  0.00  0.00    +0.000 A 
ATOM      2  C   UNL     1       3.625   6.261  17.752  0.00  0.00    +0.000 A 
ATOM      3  C   UNL     1       4.649   6.279  16.805  0.00  0.00    +0.000 A 
ATOM      4  C   UNL     1       5.075   5.092  16.206  0.00  0.00    +0.000 A 
ATOM      5  C   UNL     1       4.465   3.884  16.551  0.00  0.00    +0.000 A 
ATOM      6  C   UNL     1       3.431   3.876  17.497  0.00  0.00    +0.000 A 
ENDROOT
BRANCH   4   7
ATOM      7  C   UNL     1       6.179   5.163  15.243  0.00  0.00    +0.000 A 
ATOM      8  N   UNL     1       7.339   5.719  15.418  0.00  0.00    +0.000 NA
ATOM      9  N   UNL     1       7.958   5.480  14.234  0.00  0.00    +0.000 N 
ATOM     10  C   UNL     1       7.154   4.783  13.378  0.00  0.00    +0.000 A 
ATOM     11  O   UNL     1       7.413   4.407  12.250  0.00  0.00    +0.000 OA
ATOM     12  O   UNL     1       5.981   4.576  14.037  0.00  0.00    +0.000 OA
ATOM     13  H   UNL     1       8.905   5.777  14.042  0.00  0.00    +0.000 HD
ENDBRANCH   4   7
BRANCH   1  14
ATOM     14  O   UNL     1       1.980   4.927  18.998  0.00  0.00    +0.000 OA
BRANCH  14  16
ATOM     15  C   UNL     1       1.519   6.341  20.865  0.00  0.00    +0.000 C 
ATOM     16  C   UNL     1       2.272   5.101  20.390  0.00  0.00    +0.000 C 
ATOM     17  C   UNL     1       1.822   3.872  21.175  0.00  0.00    +0.000 C 
ENDBRANCH  14  16
ENDBRANCH   1  14
TORSDOF 3
ENDMDL
MODEL 5
REMARK VINA RESULT:      -6.5      0.783      1.206
REMARK  Name = 
REMARK  5 active torsions:
REMARK  status: ('A' for Active; 'I' for Inactive)
REMARK    1  A    between atoms: C_1  and  C_2
REMARK    2  A    between atoms: C_2  and  C_3
REMARK    3  A    between atoms: C_2  and  O_4
REMARK    4  A    between atoms: O_4  and  C_5
REMARK    5  A    between atoms: C_8  and  C_9
REMARK                            x       y       z     vdW  Elec       q    Type
REMARK                         _______ _______ _______ _____ _____    ______ ____
ROOT
ATOM      1  C   UNL     1       3.303   3.194  18.741  0.00  0.00    +0.000 A 
ATOM      2  C   UNL     1       3.017   3.250  17.378  0.00  0.00    +0.000 A 
ATOM      3  C   UNL     1       3.971   3.712  16.470  0.00  0.00    +0.000 A 
ATOM      4  C   UNL     1       5.220   4.145  16.921  0.00  0.00    +0.000 A 
ATOM      5  C   UNL     1       5.516   4.106  18.286  0.00  0.00    +0.000 A 
ATOM      6  C   UNL     1       4.555   3.633  19.189  0.00  0.00    +0.000 A 
ENDROOT
BRANCH   4   7
ATOM      7  C   UNL     1       6.172   4.653  15.928  0.00  0.00    +0.000 A 
ATOM      8  N   UNL     1       7.136   5.501  16.126  0.00  0.00    +0.000 NA
ATOM      9  N   UNL     1       7.695   5.598  14.894  0.00  0.00    +0.000 N 
ATOM     10  C   UNL     1       7.055   4.803  13.987  0.00  0.00    +0.000 A 
ATOM     11  O   UNL     1       7.314   4.658  12.806  0.00  0.00    +0.000 OA
ATOM     12  O   UNL     1       6.049   4.182  14.663  0.00  0.00    +0.000 OA
ATOM     13  H   UNL     1       8.498   6.181  14.702  0.00  0.00    +0.000 HD
ENDBRANCH   4   7
BRANCH   1  14
ATOM     14  O   UNL     1       2.456   2.751  19.718  0.00  0.00    +0.000 OA
BRANCH  14  16
ATOM     15  C   UNL     1       1.391   4.726  20.531  0.00  0.00    +0.000 C 
ATOM     16  C   UNL     1       2.293   3.550  20.896  0.00  0.00    +0.000 C 
ATOM     17  C   UNL     1       1.659   2.718  22.007  0.00  0.00    +0.000 C 
ENDBRANCH  14  16
ENDBRANCH   1  14
TORSDOF 3
ENDMDL
MODEL 6
REMARK VINA RESULT:      -6.5      1.247      1.722
REMARK  Name = 
REMARK  5 active torsions:
REMARK  status: ('A' for Active; 'I' for Inactive)
REMARK    1  A    between atoms: C_1  and  C_2
REMARK    2  A    between atoms: C_2  and  C_3
REMARK    3  A    between atoms: C_2  and  O_4
REMARK    4  A    between atoms: O_4  and  C_5
REMARK    5  A    between atoms: C_8  and  C_9
REMARK                            x       y       z     vdW  Elec       q    Type
REMARK                         _______ _______ _______ _____ _____    ______ ____
ROOT
ATOM      1  C   UNL     1       4.278   4.500  19.059  0.00  0.00    +0.000 A 
ATOM      2  C   UNL     1       5.589   4.950  18.909  0.00  0.00    +0.000 A 
ATOM      3  C   UNL     1       6.194   4.970  17.652  0.00  0.00    +0.000 A 
ATOM      4  C   UNL     1       5.498   4.516  16.529  0.00  0.00    +0.000 A 
ATOM      5  C   UNL     1       4.188   4.051  16.667  0.00  0.00    +0.000 A 
ATOM      6  C   UNL     1       3.586   4.042  17.932  0.00  0.00    +0.000 A 
ENDROOT
BRANCH   4   7
ATOM      7  C   UNL     1       6.193   4.526  15.238  0.00  0.00    +0.000 A 
ATOM      8  N   UNL     1       5.945   3.778  14.206  0.00  0.00    +0.000 NA
ATOM      9  N   UNL     1       6.861   4.213  13.305  0.00  0.00    +0.000 N 
ATOM     10  C   UNL     1       7.634   5.216  13.817  0.00  0.00    +0.000 A 
ATOM     11  O   UNL     1       8.534   5.821  13.264  0.00  0.00    +0.000 OA
ATOM     12  O   UNL     1       7.200   5.422  15.091  0.00  0.00    +0.000 OA
ATOM     13  H   UNL     1       6.928   3.837  12.368  0.00  0.00    +0.000 HD
ENDBRANCH   4   7
BRANCH   1  14
ATOM     14  O   UNL     1       3.582   4.446  20.234  0.00  0.00    +0.000 OA
BRANCH  14  16
ATOM     15  C   UNL     1       2.547   2.666  21.442  0.00  0.00    +0.000 C 
ATOM     16  C   UNL     1       2.391   3.651  20.286  0.00  0.00    +0.000 C 
ATOM     17  C   UNL     1       1.176   4.547  20.511  0.00  0.00    +0.000 C 
ENDBRANCH  14  16
ENDBRANCH   1  14
TORSDOF 3
ENDMDL
MODEL 7
REMARK VINA RESULT:      -6.5      1.164      1.560
REMARK  Name = 
REMARK  5 active torsions:
REMARK  status: ('A' for Active; 'I' for Inactive)
REMARK    1  A    between atoms: C_1  and  C_2
REMARK    2  A    between atoms: C_2  and  C_3
REMARK    3  A    between atoms: C_2  and  O_4
REMARK    4  A    between atoms: O_4  and  C_5
REMARK    5  A    between atoms: C_8  and  C_9
REMARK                            x       y       z     vdW  Elec       q    Type
REMARK                         _______ _______ _______ _____ _____    ______ ____
ROOT
ATOM      1  C   UNL     1       3.399   5.102  19.504  0.00  0.00    +0.000 A 
ATOM      2  C   UNL     1       4.493   4.242  19.430  0.00  0.00    +0.000 A 
ATOM      3  C   UNL     1       5.342   4.266  18.322  0.00  0.00    +0.000 A 
ATOM      4  C   UNL     1       5.090   5.139  17.261  0.00  0.00    +0.000 A 
ATOM      5  C   UNL     1       3.990   5.998  17.317  0.00  0.00    +0.000 A 
ATOM      6  C   UNL     1       3.148   5.973  18.437  0.00  0.00    +0.000 A 
ENDROOT
BRANCH   4   7
ATOM      7  C   UNL     1       5.993   5.098  16.107  0.00  0.00    +0.000 A 
ATOM      8  N   UNL     1       7.163   5.651  16.005  0.00  0.00    +0.000 NA
ATOM      9  N   UNL     1       7.550   5.287  14.756  0.00  0.00    +0.000 N 
ATOM     10  C   UNL     1       6.602   4.520  14.140  0.00  0.00    +0.000 A 
ATOM     11  O   UNL     1       6.646   4.031  13.027  0.00  0.00    +0.000 OA
ATOM     12  O   UNL     1       5.574   4.398  15.025  0.00  0.00    +0.000 OA
ATOM     13  H   UNL     1       8.443   5.548  14.362  0.00  0.00    +0.000 HD
ENDBRANCH   4   7
BRANCH   1  14
ATOM     14  O   UNL     1       2.510   5.176  20.540  0.00  0.00    +0.000 OA
BRANCH  14  16
ATOM     15  C   UNL     1       1.263   3.535  19.335  0.00  0.00    +0.000 C 
ATOM     16  C   UNL     1       1.576   4.103  20.717  0.00  0.00    +0.000 C 
ATOM     17  C   UNL     1       2.184   3.025  21.610  0.00  0.00    +0.000 C 
ENDBRANCH  14  16
ENDBRANCH   1  14
TORSDOF 3
ENDMDL
MODEL 8
REMARK VINA RESULT:      -6.4      1.312      1.312
REMARK  Name = 
REMARK  5 active torsions:
REMARK  status: ('A' for Active; 'I' for Inactive)
REMARK    1  A    between atoms: C_1  and  C_2
REMARK    2  A    between atoms: C_2  and  C_3
REMARK    3  A    between atoms: C_2  and  O_4
REMARK    4  A    between atoms: O_4  and  C_5
REMARK    5  A    between atoms: C_8  and  C_9
REMARK                            x       y       z     vdW  Elec       q    Type
REMARK                         _______ _______ _______ _____ _____    ______ ____
ROOT
ATOM      1  C   UNL     1       4.014   4.408  18.821  0.00  0.00    +0.000 A 
ATOM      2  C   UNL     1       3.903   3.406  17.858  0.00  0.00    +0.000 A 
ATOM      3  C   UNL     1       4.627   3.482  16.667  0.00  0.00    +0.000 A 
ATOM      4  C   UNL     1       5.457   4.577  16.417  0.00  0.00    +0.000 A 
ATOM      5  C   UNL     1       5.568   5.594  17.368  0.00  0.00    +0.000 A 
ATOM      6  C   UNL     1       4.844   5.506  18.564  0.00  0.00    +0.000 A 
ENDROOT
BRANCH   4   7
ATOM      7  C   UNL     1       6.167   4.623  15.135  0.00  0.00    +0.000 A 
ATOM      8  N   UNL     1       5.886   3.957  14.057  0.00  0.00    +0.000 NA
ATOM      9  N   UNL     1       6.838   4.389  13.192  0.00  0.00    +0.000 N 
ATOM     10  C   UNL     1       7.666   5.307  13.772  0.00  0.00    +0.000 A 
ATOM     11  O   UNL     1       8.608   5.888  13.266  0.00  0.00    +0.000 OA
ATOM     12  O   UNL     1       7.230   5.461  15.052  0.00  0.00    +0.000 OA
ATOM     13  H   UNL     1       6.894   4.068  12.235  0.00  0.00    +0.000 HD
ENDBRANCH   4   7
BRANCH   1  14
ATOM     14  O   UNL     1       3.366   4.435  20.024  0.00  0.00    +0.000 OA
BRANCH  14  16
ATOM     15  C   UNL     1       2.540   2.746  21.496  0.00  0.00    +0.000 C 
ATOM     16  C   UNL     1       2.261   3.544  20.225  0.00  0.00    +0.000 C 
ATOM     17  C   UNL     1       0.968   4.342  20.370  0.00  0.00    +0.000 C 
ENDBRANCH  14  16
ENDBRANCH   1  14
TORSDOF 3
ENDMDL
MODEL 9
REMARK VINA RESULT:      -6.4      1.142      1.486
REMARK  Name = 
REMARK  5 active torsions:
REMARK  status: ('A' for Active; 'I' for Inactive)
REMARK    1  A    between atoms: C_1  and  C_2
REMARK    2  A    between atoms: C_2  and  C_3
REMARK    3  A    between atoms: C_2  and  O_4
REMARK    4  A    between atoms: O_4  and  C_5
REMARK    5  A    between atoms: C_8  and  C_9
REMARK                            x       y       z     vdW  Elec       q    Type
REMARK                         _______ _______ _______ _____ _____    ______ ____
ROOT
ATOM      1  C   UNL     1       3.346   4.989  19.531  0.00  0.00    +0.000 A 
ATOM      2  C   UNL     1       3.318   6.027  18.602  0.00  0.00    +0.000 A 
ATOM      3  C   UNL     1       4.164   6.010  17.492  0.00  0.00    +0.000 A 
ATOM      4  C   UNL     1       5.067   4.959  17.311  0.00  0.00    +0.000 A 
ATOM      5  C   UNL     1       5.113   3.918  18.241  0.00  0.00    +0.000 A 
ATOM      6  C   UNL     1       4.254   3.939  19.348  0.00  0.00    +0.000 A 
ENDROOT
BRANCH   4   7
ATOM      7  C   UNL     1       5.956   5.008  16.147  0.00  0.00    +0.000 A 
ATOM      8  N   UNL     1       7.071   5.665  16.037  0.00  0.00    +0.000 NA
ATOM      9  N   UNL     1       7.474   5.346  14.781  0.00  0.00    +0.000 N 
ATOM     10  C   UNL     1       6.592   4.501  14.169  0.00  0.00    +0.000 A 
ATOM     11  O   UNL     1       6.668   4.026  13.052  0.00  0.00    +0.000 OA
ATOM     12  O   UNL     1       5.590   4.280  15.064  0.00  0.00    +0.000 OA
ATOM     13  H   UNL     1       8.335   5.690  14.379  0.00  0.00    +0.000 HD
ENDBRANCH   4   7
BRANCH   1  14
ATOM     14  O   UNL     1       2.559   4.893  20.645  0.00  0.00    +0.000 OA
BRANCH  14  16
ATOM     15  C   UNL     1       1.215   3.626  19.133  0.00  0.00    +0.000 C 
ATOM     16  C   UNL     1       1.380   4.081  20.580  0.00  0.00    +0.000 C 
ATOM     17  C   UNL     1       1.527   2.875  21.504  0.00  0.00    +0.000 C 
ENDBRANCH  14  16
ENDBRANCH   1  14
TORSDOF 3
ENDMDL
