MODEL 1
REMARK VINA RESULT:      -7.7      0.000      0.000
REMARK  Name = 
REMARK  4 active torsions:
REMARK  status: ('A' for Active; 'I' for Inactive)
REMARK    1  A    between atoms: C_2  and  C_18
REMARK    2  A    between atoms: N_3  and  C_4
REMARK    3  A    between atoms: N_7  and  C_8
REMARK    4  A    between atoms: C_8  and  C_9
REMARK                            x       y       z     vdW  Elec       q    Type
REMARK                         _______ _______ _______ _____ _____    ______ ____
ROOT
ATOM      1  C   UNL     1       7.807   6.907  18.348  0.00  0.00    +0.000 A 
ATOM      2  C   UNL     1       7.437   6.421  17.075  0.00  0.00    +0.000 A 
ATOM      3  N   UNL     1       6.626   5.361  17.146  0.00  0.00    +0.000 NA
ATOM      4  N   UNL     1       6.462   5.169  18.471  0.00  0.00    +0.000 N 
ATOM      5  C   UNL     1       7.175   6.060  19.232  0.00  0.00    +0.000 A 
ENDROOT
BRANCH   1   8
ATOM      6  O   UNL     1       7.492   9.643  17.513  0.00  0.00    +0.000 OA
ATOM      7  C   UNL     1       8.384   9.275  18.271  0.00  0.00    +0.000 C 
ATOM      8  N   UNL     1       8.596   7.981  18.709  0.00  0.00    +0.000 N 
ATOM      9  H   UNL     1       9.368   7.833  19.354  0.00  0.00    +0.000 HD
BRANCH   7  10
ATOM     10  C   UNL     1       9.362  10.274  18.813  0.00  0.00    +0.000 A 
ATOM     11  C   UNL     1       9.345  10.582  20.170  0.00  0.00    +0.000 A 
ATOM     12  C   UNL     1      10.251  11.526  20.643  0.00  0.00    +0.000 A 
ATOM     13  C   UNL     1      11.132  12.126  19.751  0.00  0.00    +0.000 A 
ATOM     14  C   UNL     1      11.082  11.755  18.415  0.00  0.00    +0.000 A 
ATOM     15  N   UNL     1      10.222  10.836  17.917  0.00  0.00    +0.000 NA
ENDBRANCH   7  10
ENDBRANCH   1   8
BRANCH   4  16
ATOM     16  C   UNL     1       5.469   4.219  18.932  0.00  0.00    +0.000 C 
BRANCH  16  17
ATOM     17  C   UNL     1       4.060   4.752  18.826  0.00  0.00    +0.000 C 
ATOM     18  O   UNL     1       3.849   5.902  18.434  0.00  0.00    +0.000 OA
ATOM     19  N   UNL     1       3.051   3.889  19.150  0.00  0.00    +0.000 N 
ATOM     20  C   UNL     1       1.618   4.113  19.036  0.00  0.00    +0.000 C 
ATOM     21  C   UNL     1       0.983   4.065  20.423  0.00  0.00    +0.000 C 
ATOM     22  C   UNL     1       1.466   2.842  21.212  0.00  0.00    +0.000 C 
ATOM     23  C   UNL     1       2.976   2.654  21.083  0.00  0.00    +0.000 C 
ATOM     24  O   UNL     1       3.346   2.626  19.697  0.00  0.00    +0.000 OA
ENDBRANCH  16  17
ENDBRANCH   4  16
TORSDOF 4
ENDMDL
MODEL 2
REMARK VINA RESULT:      -7.4      1.201      1.394
REMARK  Name = 
REMARK  4 active torsions:
REMARK  status: ('A' for Active; 'I' for Inactive)
REMARK    1  A    between atoms: C_2  and  C_18
REMARK    2  A    between atoms: N_3  and  C_4
REMARK    3  A    between atoms: N_7  and  C_8
REMARK    4  A    between atoms: C_8  and  C_9
REMARK                            x       y       z     vdW  Elec       q    Type
REMARK                         _______ _______ _______ _____ _____    ______ ____
ROOT
ATOM      1  C   UNL     1       7.924   6.899  18.635  0.00  0.00    +0.000 A 
ATOM      2  C   UNL     1       8.045   5.577  19.114  0.00  0.00    +0.000 A 
ATOM      3  N   UNL     1       7.121   4.759  18.601  0.00  0.00    +0.000 NA
ATOM      4  N   UNL     1       6.407   5.555  17.778  0.00  0.00    +0.000 N 
ATOM      5  C   UNL     1       6.840   6.857  17.787  0.00  0.00    +0.000 A 
ENDROOT
BRANCH   1   8
ATOM      6  O   UNL     1       7.535   9.534  17.543  0.00  0.00    +0.000 OA
ATOM      7  C   UNL     1       8.436   9.265  18.332  0.00  0.00    +0.000 C 
ATOM      8  N   UNL     1       8.683   8.024  18.891  0.00  0.00    +0.000 N 
ATOM      9  H   UNL     1       9.458   7.960  19.546  0.00  0.00    +0.000 HD
BRANCH   7  10
ATOM     10  C   UNL     1       9.385  10.337  18.775  0.00  0.00    +0.000 A 
ATOM     11  C   UNL     1       9.497  10.635  20.130  0.00  0.00    +0.000 A 
ATOM     12  C   UNL     1      10.371  11.648  20.513  0.00  0.00    +0.000 A 
ATOM     13  C   UNL     1      11.095  12.323  19.537  0.00  0.00    +0.000 A 
ATOM     14  C   UNL     1      10.924  11.956  18.209  0.00  0.00    +0.000 A 
ATOM     15  N   UNL     1      10.090  10.973  17.797  0.00  0.00    +0.000 NA
ENDBRANCH   7  10
ENDBRANCH   1   8
BRANCH   4  16
ATOM     16  C   UNL     1       5.434   4.960  16.884  0.00  0.00    +0.000 C 
BRANCH  16  17
ATOM     17  C   UNL     1       4.011   5.253  17.293  0.00  0.00    +0.000 C 
ATOM     18  O   UNL     1       3.625   6.414  17.447  0.00  0.00    +0.000 OA
ATOM     19  N   UNL     1       3.181   4.178  17.445  0.00  0.00    +0.000 N 
ATOM     20  C   UNL     1       1.754   4.187  17.728  0.00  0.00    +0.000 C 
ATOM     21  C   UNL     1       1.498   3.524  19.078  0.00  0.00    +0.000 C 
ATOM     22  C   UNL     1       2.251   2.193  19.193  0.00  0.00    +0.000 C 
ATOM     23  C   UNL     1       3.688   2.319  18.692  0.00  0.00    +0.000 C 
ATOM     24  O   UNL     1       3.695   2.869  17.367  0.00  0.00    +0.000 OA
ENDBRANCH  16  17
ENDBRANCH   4  16
TORSDOF 4
ENDMDL
MODEL 3
REMARK VINA RESULT:      -7.3      1.335      1.706
REMARK  Name = 
REMARK  4 active torsions:
REMARK  status: ('A' for Active; 'I' for Inactive)
REMARK    1  A    between atoms: C_2  and  C_18
REMARK    2  A    between atoms: N_3  and  C_4
REMARK    3  A    between atoms: N_7  and  C_8
REMARK    4  A    between atoms: C_8  and  C_9
REMARK                            x       y       z     vdW  Elec       q    Type
REMARK                         _______ _______ _______ _____ _____    ______ ____
ROOT
ATOM      1  C   UNL     1       7.915   6.753  18.675  0.00  0.00    +0.000 A 
ATOM      2  C   UNL     1       8.139   5.427  19.103  0.00  0.00    +0.000 A 
ATOM      3  N   UNL     1       7.261   4.564  18.582  0.00  0.00    +0.000 NA
ATOM      4  N   UNL     1       6.473   5.337  17.805  0.00  0.00    +0.000 N 
ATOM      5  C   UNL     1       6.816   6.664  17.851  0.00  0.00    +0.000 A 
ENDROOT
BRANCH   1   8
ATOM      6  O   UNL     1       7.670   9.274  17.309  0.00  0.00    +0.000 OA
ATOM      7  C   UNL     1       8.430   9.100  18.257  0.00  0.00    +0.000 C 
ATOM      8  N   UNL     1       8.601   7.919  18.955  0.00  0.00    +0.000 N 
ATOM      9  H   UNL     1       9.255   7.934  19.732  0.00  0.00    +0.000 HD
BRANCH   7  10
ATOM     10  C   UNL     1       9.272  10.235  18.756  0.00  0.00    +0.000 A 
ATOM     11  C   UNL     1      10.001  10.998  17.849  0.00  0.00    +0.000 A 
ATOM     12  C   UNL     1      10.790  12.033  18.341  0.00  0.00    +0.000 A 
ATOM     13  C   UNL     1      10.824  12.267  19.711  0.00  0.00    +0.000 A 
ATOM     14  C   UNL     1      10.060  11.459  20.543  0.00  0.00    +0.000 A 
ATOM     15  N   UNL     1       9.276  10.448  20.103  0.00  0.00    +0.000 NA
ENDBRANCH   7  10
ENDBRANCH   1   8
BRANCH   4  16
ATOM     16  C   UNL     1       5.522   4.706  16.912  0.00  0.00    +0.000 C 
BRANCH  16  17
ATOM     17  C   UNL     1       4.090   5.039  17.255  0.00  0.00    +0.000 C 
ATOM     18  O   UNL     1       3.716   6.212  17.327  0.00  0.00    +0.000 OA
ATOM     19  N   UNL     1       3.241   3.985  17.444  0.00  0.00    +0.000 N 
ATOM     20  C   UNL     1       1.806   4.029  17.678  0.00  0.00    +0.000 C 
ATOM     21  C   UNL     1       1.498   3.451  19.055  0.00  0.00    +0.000 C 
ATOM     22  C   UNL     1       2.228   2.120  19.275  0.00  0.00    +0.000 C 
ATOM     23  C   UNL     1       3.682   2.198  18.815  0.00  0.00    +0.000 C 
ATOM     24  O   UNL     1       3.739   2.669  17.460  0.00  0.00    +0.000 OA
ENDBRANCH  16  17
ENDBRANCH   4  16
TORSDOF 4
ENDMDL
MODEL 4
REMARK VINA RESULT:      -7.3      1.526      2.104
REMARK  Name = 
REMARK  4 active torsions:
REMARK  status: ('A' for Active; 'I' for Inactive)
REMARK    1  A    between atoms: C_2  and  C_18
REMARK    2  A    between atoms: N_3  and  C_4
REMARK    3  A    between atoms: N_7  and  C_8
REMARK    4  A    between atoms: C_8  and  C_9
REMARK                            x       y       z     vdW  Elec       q    Type
REMARK                         _______ _______ _______ _____ _____    ______ ____
ROOT
ATOM      1  C   UNL     1       7.937   7.305  18.427  0.00  0.00    +0.000 A 
ATOM      2  C   UNL     1       7.926   5.955  18.843  0.00  0.00    +0.000 A 
ATOM      3  N   UNL     1       6.982   5.236  18.227  0.00  0.00    +0.000 NA
ATOM      4  N   UNL     1       6.388   6.124  17.402  0.00  0.00    +0.000 N 
ATOM      5  C   UNL     1       6.914   7.386  17.508  0.00  0.00    +0.000 A 
ENDROOT
BRANCH   1   8
ATOM      6  O   UNL     1       7.714  10.047  17.585  0.00  0.00    +0.000 OA
ATOM      7  C   UNL     1       8.588   9.654  18.351  0.00  0.00    +0.000 C 
ATOM      8  N   UNL     1       8.756   8.354  18.793  0.00  0.00    +0.000 N 
ATOM      9  H   UNL     1       9.518   8.184  19.444  0.00  0.00    +0.000 HD
BRANCH   7  10
ATOM     10  C   UNL     1       9.592  10.623  18.899  0.00  0.00    +0.000 A 
ATOM     11  C   UNL     1       9.592  10.912  20.260  0.00  0.00    +0.000 A 
ATOM     12  C   UNL     1      10.522  11.830  20.739  0.00  0.00    +0.000 A 
ATOM     13  C   UNL     1      11.411  12.421  19.849  0.00  0.00    +0.000 A 
ATOM     14  C   UNL     1      11.343  12.069  18.508  0.00  0.00    +0.000 A 
ATOM     15  N   UNL     1      10.459  11.177  18.004  0.00  0.00    +0.000 NA
ENDBRANCH   7  10
ENDBRANCH   1   8
BRANCH   4  16
ATOM     16  C   UNL     1       5.440   5.649  16.414  0.00  0.00    +0.000 C 
BRANCH  16  17
ATOM     17  C   UNL     1       5.109   4.185  16.581  0.00  0.00    +0.000 C 
ATOM     18  O   UNL     1       5.654   3.332  15.878  0.00  0.00    +0.000 OA
ATOM     19  N   UNL     1       4.212   3.865  17.561  0.00  0.00    +0.000 N 
ATOM     20  C   UNL     1       3.803   2.538  17.995  0.00  0.00    +0.000 C 
ATOM     21  C   UNL     1       2.313   2.352  17.725  0.00  0.00    +0.000 C 
ATOM     22  C   UNL     1       1.505   3.557  18.220  0.00  0.00    +0.000 C 
ATOM     23  C   UNL     1       2.168   4.875  17.825  0.00  0.00    +0.000 C 
ATOM     24  O   UNL     1       3.535   4.881  18.262  0.00  0.00    +0.000 OA
ENDBRANCH  16  17
ENDBRANCH   4  16
TORSDOF 4
ENDMDL
MODEL 5
REMARK VINA RESULT:      -7.3      6.051      9.249
REMARK  Name = 
REMARK  4 active torsions:
REMARK  status: ('A' for Active; 'I' for Inactive)
REMARK    1  A    between atoms: C_2  and  C_18
REMARK    2  A    between atoms: N_3  and  C_4
REMARK    3  A    between atoms: N_7  and  C_8
REMARK    4  A    between atoms: C_8  and  C_9
REMARK                            x       y       z     vdW  Elec       q    Type
REMARK                         _______ _______ _______ _____ _____    ______ ____
ROOT
ATOM      1  C   UNL     1       1.163   8.585  21.094  0.00  0.00    +0.000 A 
ATOM      2  C   UNL     1       1.243   9.435  22.217  0.00  0.00    +0.000 A 
ATOM      3  N   UNL     1       0.933  10.702  21.925  0.00  0.00    +0.000 NA
ATOM      4  N   UNL     1       0.641  10.667  20.608  0.00  0.00    +0.000 N 
ATOM      5  C   UNL     1       0.790   9.418  20.062  0.00  0.00    +0.000 A 
ENDROOT
BRANCH   1   8
ATOM      6  O   UNL     1       2.758   7.250  19.104  0.00  0.00    +0.000 OA
ATOM      7  C   UNL     1       2.159   6.650  19.992  0.00  0.00    +0.000 C 
ATOM      8  N   UNL     1       1.375   7.225  20.975  0.00  0.00    +0.000 N 
ATOM      9  H   UNL     1       0.957   6.598  21.656  0.00  0.00    +0.000 HD
BRANCH   7  10
ATOM     10  C   UNL     1       2.253   5.157  20.078  0.00  0.00    +0.000 A 
ATOM     11  C   UNL     1       1.153   4.425  20.515  0.00  0.00    +0.000 A 
ATOM     12  C   UNL     1       1.274   3.042  20.604  0.00  0.00    +0.000 A 
ATOM     13  C   UNL     1       2.479   2.443  20.257  0.00  0.00    +0.000 A 
ATOM     14  C   UNL     1       3.523   3.250  19.825  0.00  0.00    +0.000 A 
ATOM     15  N   UNL     1       3.444   4.597  19.719  0.00  0.00    +0.000 NA
ENDBRANCH   7  10
ENDBRANCH   1   8
BRANCH   4  16
ATOM     16  C   UNL     1       0.057  11.835  19.980  0.00  0.00    +0.000 C 
BRANCH  16  17
ATOM     17  C   UNL     1      -1.452  11.821  20.011  0.00  0.00    +0.000 C 
ATOM     18  O   UNL     1      -2.062  11.969  21.073  0.00  0.00    +0.000 OA
ATOM     19  N   UNL     1      -2.092  11.671  18.813  0.00  0.00    +0.000 N 
ATOM     20  C   UNL     1      -3.521  11.728  18.553  0.00  0.00    +0.000 C 
ATOM     21  C   UNL     1      -3.998  10.376  18.032  0.00  0.00    +0.000 C 
ATOM     22  C   UNL     1      -3.080   9.855  16.920  0.00  0.00    +0.000 C 
ATOM     23  C   UNL     1      -1.607  10.029  17.284  0.00  0.00    +0.000 C 
ATOM     24  O   UNL     1      -1.354  11.395  17.646  0.00  0.00    +0.000 OA
ENDBRANCH  16  17
ENDBRANCH   4  16
TORSDOF 4
ENDMDL
MODEL 6
REMARK VINA RESULT:      -7.2      4.490      7.283
REMARK  Name = 
REMARK  4 active torsions:
REMARK  status: ('A' for Active; 'I' for Inactive)
REMARK    1  A    between atoms: C_2  and  C_18
REMARK    2  A    between atoms: N_3  and  C_4
REMARK    3  A    between atoms: N_7  and  C_8
REMARK    4  A    between atoms: C_8  and  C_9
REMARK                            x       y       z     vdW  Elec       q    Type
REMARK                         _______ _______ _______ _____ _____    ______ ____
ROOT
ATOM      1  C   UNL     1       1.825   5.880  20.624  0.00  0.00    +0.000 A 
ATOM      2  C   UNL     1       1.300   4.570  20.596  0.00  0.00    +0.000 A 
ATOM      3  N   UNL     1       2.142   3.692  20.041  0.00  0.00    +0.000 NA
ATOM      4  N   UNL     1       3.220   4.438  19.720  0.00  0.00    +0.000 N 
ATOM      5  C   UNL     1       3.062   5.765  20.030  0.00  0.00    +0.000 A 
ENDROOT
BRANCH   1   8
ATOM      6  O   UNL     1       1.752   8.443  19.318  0.00  0.00    +0.000 OA
ATOM      7  C   UNL     1       1.291   8.253  20.439  0.00  0.00    +0.000 C 
ATOM      8  N   UNL     1       1.295   7.052  21.126  0.00  0.00    +0.000 N 
ATOM      9  H   UNL     1       0.857   7.045  22.043  0.00  0.00    +0.000 HD
BRANCH   7  10
ATOM     10  C   UNL     1       0.644   9.383  21.183  0.00  0.00    +0.000 A 
ATOM     11  C   UNL     1      -0.051   9.119  22.359  0.00  0.00    +0.000 A 
ATOM     12  C   UNL     1      -0.658  10.183  23.019  0.00  0.00    +0.000 A 
ATOM     13  C   UNL     1      -0.551  11.462  22.484  0.00  0.00    +0.000 A 
ATOM     14  C   UNL     1       0.167  11.634  21.308  0.00  0.00    +0.000 A 
ATOM     15  N   UNL     1       0.777  10.627  20.641  0.00  0.00    +0.000 NA
ENDBRANCH   7  10
ENDBRANCH   1   8
BRANCH   4  16
ATOM     16  C   UNL     1       4.432   3.779  19.278  0.00  0.00    +0.000 C 
BRANCH  16  17
ATOM     17  C   UNL     1       4.396   3.413  17.814  0.00  0.00    +0.000 C 
ATOM     18  O   UNL     1       3.825   2.388  17.434  0.00  0.00    +0.000 OA
ATOM     19  N   UNL     1       4.992   4.285  16.946  0.00  0.00    +0.000 N 
ATOM     20  C   UNL     1       5.009   4.224  15.493  0.00  0.00    +0.000 C 
ATOM     21  C   UNL     1       6.445   4.056  15.007  0.00  0.00    +0.000 C 
ATOM     22  C   UNL     1       7.385   5.049  15.702  0.00  0.00    +0.000 C 
ATOM     23  C   UNL     1       7.116   5.116  17.203  0.00  0.00    +0.000 C 
ATOM     24  O   UNL     1       5.725   5.382  17.437  0.00  0.00    +0.000 OA
ENDBRANCH  16  17
ENDBRANCH   4  16
TORSDOF 4
ENDMDL
MODEL 7
REMARK VINA RESULT:      -7.1      3.973      7.442
REMARK  Name = 
REMARK  4 active torsions:
REMARK  status: ('A' for Active; 'I' for Inactive)
REMARK    1  A    between atoms: C_2  and  C_18
REMARK    2  A    between atoms: N_3  and  C_4
REMARK    3  A    between atoms: N_7  and  C_8
REMARK    4  A    between atoms: C_8  and  C_9
REMARK                            x       y       z     vdW  Elec       q    Type
REMARK                         _______ _______ _______ _____ _____    ______ ____
ROOT
ATOM      1  C   UNL     1       1.716   5.923  20.405  0.00  0.00    +0.000 A 
ATOM      2  C   UNL     1       1.700   4.579  20.835  0.00  0.00    +0.000 A 
ATOM      3  N   UNL     1       2.376   3.769  20.015  0.00  0.00    +0.000 NA
ATOM      4  N   UNL     1       2.841   4.597  19.056  0.00  0.00    +0.000 N 
ATOM      5  C   UNL     1       2.447   5.898  19.237  0.00  0.00    +0.000 A 
ENDROOT
BRANCH   1   8
ATOM      6  O   UNL     1       1.806   8.598  19.347  0.00  0.00    +0.000 OA
ATOM      7  C   UNL     1       1.248   8.317  20.403  0.00  0.00    +0.000 C 
ATOM      8  N   UNL     1       1.169   7.058  20.970  0.00  0.00    +0.000 N 
ATOM      9  H   UNL     1       0.654   6.977  21.843  0.00  0.00    +0.000 HD
BRANCH   7  10
ATOM     10  C   UNL     1       0.562   9.390  21.194  0.00  0.00    +0.000 A 
ATOM     11  C   UNL     1       0.455  10.671  20.662  0.00  0.00    +0.000 A 
ATOM     12  C   UNL     1      -0.168  11.653  21.425  0.00  0.00    +0.000 A 
ATOM     13  C   UNL     1      -0.657  11.324  22.684  0.00  0.00    +0.000 A 
ATOM     14  C   UNL     1      -0.512  10.018  23.134  0.00  0.00    +0.000 A 
ATOM     15  N   UNL     1       0.082   9.034  22.419  0.00  0.00    +0.000 NA
ENDBRANCH   7  10
ENDBRANCH   1   8
BRANCH   4  16
ATOM     16  C   UNL     1       3.803   4.098  18.094  0.00  0.00    +0.000 C 
BRANCH  16  17
ATOM     17  C   UNL     1       5.220   4.137  18.611  0.00  0.00    +0.000 C 
ATOM     18  O   UNL     1       5.538   3.514  19.627  0.00  0.00    +0.000 OA
ATOM     19  N   UNL     1       6.122   4.861  17.883  0.00  0.00    +0.000 N 
ATOM     20  C   UNL     1       7.555   4.977  18.100  0.00  0.00    +0.000 C 
ATOM     21  C   UNL     1       7.906   6.426  18.423  0.00  0.00    +0.000 C 
ATOM     22  C   UNL     1       7.244   7.390  17.432  0.00  0.00    +0.000 C 
ATOM     23  C   UNL     1       5.783   7.021  17.184  0.00  0.00    +0.000 C 
ATOM     24  O   UNL     1       5.688   5.643  16.795  0.00  0.00    +0.000 OA
ENDBRANCH  16  17
ENDBRANCH   4  16
TORSDOF 4
ENDMDL
MODEL 8
REMARK VINA RESULT:      -7.1      5.338      7.192
REMARK  Name = 
REMARK  4 active torsions:
REMARK  status: ('A' for Active; 'I' for Inactive)
REMARK    1  A    between atoms: C_2  and  C_18
REMARK    2  A    between atoms: N_3  and  C_4
REMARK    3  A    between atoms: N_7  and  C_8
REMARK    4  A    between atoms: C_8  and  C_9
REMARK                            x       y       z     vdW  Elec       q    Type
REMARK                         _______ _______ _______ _____ _____    ______ ____
ROOT
ATOM      1  C   UNL     1       1.899   8.402  19.140  0.00  0.00    +0.000 A 
ATOM      2  C   UNL     1       2.475   8.774  17.906  0.00  0.00    +0.000 A 
ATOM      3  N   UNL     1       3.106   7.760  17.307  0.00  0.00    +0.000 NA
ATOM      4  N   UNL     1       2.927   6.724  18.155  0.00  0.00    +0.000 N 
ATOM      5  C   UNL     1       2.229   7.072  19.282  0.00  0.00    +0.000 A 
ENDROOT
BRANCH   1   8
ATOM      6  O   UNL     1      -0.332  10.121  18.550  0.00  0.00    +0.000 OA
ATOM      7  C   UNL     1       0.087   9.939  19.689  0.00  0.00    +0.000 C 
ATOM      8  N   UNL     1       1.153   9.132  20.044  0.00  0.00    +0.000 N 
ATOM      9  H   UNL     1       1.370   9.065  21.034  0.00  0.00    +0.000 HD
BRANCH   7  10
ATOM     10  C   UNL     1      -0.580  10.618  20.847  0.00  0.00    +0.000 A 
ATOM     11  C   UNL     1      -0.430  10.094  22.127  0.00  0.00    +0.000 A 
ATOM     12  C   UNL     1      -1.075  10.733  23.182  0.00  0.00    +0.000 A 
ATOM     13  C   UNL     1      -1.843  11.862  22.922  0.00  0.00    +0.000 A 
ATOM     14  C   UNL     1      -1.932  12.319  21.614  0.00  0.00    +0.000 A 
ATOM     15  N   UNL     1      -1.315  11.731  20.563  0.00  0.00    +0.000 NA
ENDBRANCH   7  10
ENDBRANCH   1   8
BRANCH   4  16
ATOM     16  C   UNL     1       3.305   5.390  17.733  0.00  0.00    +0.000 C 
BRANCH  16  17
ATOM     17  C   UNL     1       2.209   4.376  17.955  0.00  0.00    +0.000 C 
ATOM     18  O   UNL     1       1.227   4.337  17.211  0.00  0.00    +0.000 OA
ATOM     19  N   UNL     1       2.382   3.499  18.989  0.00  0.00    +0.000 N 
ATOM     20  C   UNL     1       1.539   2.371  19.350  0.00  0.00    +0.000 C 
ATOM     21  C   UNL     1       0.949   2.600  20.738  0.00  0.00    +0.000 C 
ATOM     22  C   UNL     1       2.028   3.046  21.732  0.00  0.00    +0.000 C 
ATOM     23  C   UNL     1       2.937   4.115  21.129  0.00  0.00    +0.000 C 
ATOM     24  O   UNL     1       3.464   3.655  19.876  0.00  0.00    +0.000 OA
ENDBRANCH  16  17
ENDBRANCH   4  16
TORSDOF 4
ENDMDL
MODEL 9
REMARK VINA RESULT:      -7.0      1.641      2.110
REMARK  Name = 
REMARK  4 active torsions:
REMARK  status: ('A' for Active; 'I' for Inactive)
REMARK    1  A    between atoms: C_2  and  C_18
REMARK    2  A    between atoms: N_3  and  C_4
REMARK    3  A    between atoms: N_7  and  C_8
REMARK    4  A    between atoms: C_8  and  C_9
REMARK                            x       y       z     vdW  Elec       q    Type
REMARK                         _______ _______ _______ _____ _____    ______ ____
ROOT
ATOM      1  C   UNL     1       7.839   8.220  17.836  0.00  0.00    +0.000 A 
ATOM      2  C   UNL     1       8.219   7.133  18.653  0.00  0.00    +0.000 A 
ATOM      3  N   UNL     1       7.391   6.090  18.538  0.00  0.00    +0.000 NA
ATOM      4  N   UNL     1       6.478   6.503  17.634  0.00  0.00    +0.000 N 
ATOM      5  C   UNL     1       6.694   7.787  17.204  0.00  0.00    +0.000 A 
ENDROOT
BRANCH   1   8
ATOM      6  O   UNL     1       9.053   9.887  19.843  0.00  0.00    +0.000 OA
ATOM      7  C   UNL     1       8.999  10.202  18.659  0.00  0.00    +0.000 C 
ATOM      8  N   UNL     1       8.429   9.454  17.644  0.00  0.00    +0.000 N 
ATOM      9  H   UNL     1       8.477   9.839  16.705  0.00  0.00    +0.000 HD
BRANCH   7  10
ATOM     10  C   UNL     1       9.592  11.501  18.203  0.00  0.00    +0.000 A 
ATOM     11  C   UNL     1      10.893  11.523  17.710  0.00  0.00    +0.000 A 
ATOM     12  C   UNL     1      11.427  12.745  17.312  0.00  0.00    +0.000 A 
ATOM     13  C   UNL     1      10.649  13.892  17.422  0.00  0.00    +0.000 A 
ATOM     14  C   UNL     1       9.359  13.776  17.920  0.00  0.00    +0.000 A 
ATOM     15  N   UNL     1       8.801  12.606  18.311  0.00  0.00    +0.000 NA
ENDBRANCH   7  10
ENDBRANCH   1   8
BRANCH   4  16
ATOM     16  C   UNL     1       5.527   5.547  17.101  0.00  0.00    +0.000 C 
BRANCH  16  17
ATOM     17  C   UNL     1       4.129   5.758  17.630  0.00  0.00    +0.000 C 
ATOM     18  O   UNL     1       3.625   6.883  17.648  0.00  0.00    +0.000 OA
ATOM     19  N   UNL     1       3.455   4.645  18.048  0.00  0.00    +0.000 N 
ATOM     20  C   UNL     1       2.075   4.557  18.499  0.00  0.00    +0.000 C 
ATOM     21  C   UNL     1       2.043   4.107  19.956  0.00  0.00    +0.000 C 
ATOM     22  C   UNL     1       2.958   2.898  20.184  0.00  0.00    +0.000 C 
ATOM     23  C   UNL     1       4.310   3.083  19.497  0.00  0.00    +0.000 C 
ATOM     24  O   UNL     1       4.112   3.402  18.111  0.00  0.00    +0.000 OA
ENDBRANCH  16  17
ENDBRANCH   4  16
TORSDOF 4
ENDMDL
