MODEL 1
REMARK VINA RESULT:      -6.7      0.000      0.000
REMARK  Name = 
REMARK  2 active torsions:
REMARK  status: ('A' for Active; 'I' for Inactive)
REMARK    1  A    between atoms: N_1  and  C_2
REMARK    2  A    between atoms: C_2  and  C_3
REMARK                            x       y       z     vdW  Elec       q    Type
REMARK                         _______ _______ _______ _____ _____    ______ ____
ROOT
ATOM      1  C   UNL     1       5.520   5.731  17.662  0.00  0.00    +0.000 A 
ATOM      2  C   UNL     1       4.185   5.646  17.525  0.00  0.00    +0.000 A 
ATOM      3  C   UNL     1       3.431   4.509  18.013  0.00  0.00    +0.000 A 
ATOM      4  C   UNL     1       4.077   3.497  18.617  0.00  0.00    +0.000 A 
ATOM      5  N   UNL     1       5.441   3.558  18.772  0.00  0.00    +0.000 N 
ATOM      6  C   UNL     1       6.229   4.601  18.343  0.00  0.00    +0.000 A 
ATOM      7  O   UNL     1       7.444   4.601  18.507  0.00  0.00    +0.000 OA
ATOM      8  C   UNL     1       3.372   2.264  19.112  0.00  0.00    +0.000 C 
ATOM      9  C   UNL     1       2.006   2.077  18.445  0.00  0.00    +0.000 C 
ATOM     10  C   UNL     1       1.200   3.371  18.479  0.00  0.00    +0.000 C 
ATOM     11  C   UNL     1       1.941   4.527  17.798  0.00  0.00    +0.000 C 
ATOM     12  H   UNL     1       5.938   2.797  19.218  0.00  0.00    +0.000 HD
ENDROOT
BRANCH   1  13
ATOM     13  C   UNL     1       6.395   6.857  17.197  0.00  0.00    +0.000 C 
BRANCH  13  14
ATOM     14  N   UNL     1       7.457   6.454  16.267  0.00  0.00    +0.000 NA
ATOM     15  H   UNL     1       7.088   6.496  15.317  0.00  0.00    +0.000 HD
ATOM     16  H   UNL     1       7.679   5.474  16.433  0.00  0.00    +0.000 HD
ENDBRANCH  13  14
ENDBRANCH   1  13
TORSDOF 2
ENDMDL
MODEL 2
REMARK VINA RESULT:      -6.5      1.060      1.060
REMARK  Name = 
REMARK  2 active torsions:
REMARK  status: ('A' for Active; 'I' for Inactive)
REMARK    1  A    between atoms: N_1  and  C_2
REMARK    2  A    between atoms: C_2  and  C_3
REMARK                            x       y       z     vdW  Elec       q    Type
REMARK                         _______ _______ _______ _____ _____    ______ ____
ROOT
ATOM      1  C   UNL     1       5.809   4.604  16.781  0.00  0.00    +0.000 A 
ATOM      2  C   UNL     1       4.494   4.374  16.617  0.00  0.00    +0.000 A 
ATOM      3  C   UNL     1       3.667   3.840  17.681  0.00  0.00    +0.000 A 
ATOM      4  C   UNL     1       4.222   3.557  18.871  0.00  0.00    +0.000 A 
ATOM      5  N   UNL     1       5.564   3.784  19.067  0.00  0.00    +0.000 N 
ATOM      6  C   UNL     1       6.416   4.291  18.113  0.00  0.00    +0.000 A 
ATOM      7  O   UNL     1       7.607   4.472  18.344  0.00  0.00    +0.000 OA
ATOM      8  C   UNL     1       3.441   2.961  20.011  0.00  0.00    +0.000 C 
ATOM      9  C   UNL     1       2.150   2.292  19.533  0.00  0.00    +0.000 C 
ATOM     10  C   UNL     1       1.374   3.209  18.593  0.00  0.00    +0.000 C 
ATOM     11  C   UNL     1       2.209   3.623  17.376  0.00  0.00    +0.000 C 
ATOM     12  H   UNL     1       5.993   3.565  19.957  0.00  0.00    +0.000 HD
ENDROOT
BRANCH   1  13
ATOM     13  C   UNL     1       6.754   5.152  15.752  0.00  0.00    +0.000 C 
BRANCH  13  14
ATOM     14  N   UNL     1       7.479   6.355  16.176  0.00  0.00    +0.000 NA
ATOM     15  H   UNL     1       8.201   6.079  16.842  0.00  0.00    +0.000 HD
ATOM     16  H   UNL     1       6.840   6.954  16.696  0.00  0.00    +0.000 HD
ENDBRANCH  13  14
ENDBRANCH   1  13
TORSDOF 2
ENDMDL
MODEL 3
REMARK VINA RESULT:      -6.5      1.719      1.803
REMARK  Name = 
REMARK  2 active torsions:
REMARK  status: ('A' for Active; 'I' for Inactive)
REMARK    1  A    between atoms: N_1  and  C_2
REMARK    2  A    between atoms: C_2  and  C_3
REMARK                            x       y       z     vdW  Elec       q    Type
REMARK                         _______ _______ _______ _____ _____    ______ ____
ROOT
ATOM      1  C   UNL     1       5.992   4.228  15.894  0.00  0.00    +0.000 A 
ATOM      2  C   UNL     1       4.658   4.107  16.020  0.00  0.00    +0.000 A 
ATOM      3  C   UNL     1       4.018   3.943  17.309  0.00  0.00    +0.000 A 
ATOM      4  C   UNL     1       4.771   3.903  18.421  0.00  0.00    +0.000 A 
ATOM      5  N   UNL     1       6.136   4.026  18.322  0.00  0.00    +0.000 N 
ATOM      6  C   UNL     1       6.821   4.189  17.140  0.00  0.00    +0.000 A 
ATOM      7  O   UNL     1       8.042   4.293  17.111  0.00  0.00    +0.000 OA
ATOM      8  C   UNL     1       4.186   3.693  19.791  0.00  0.00    +0.000 C 
ATOM      9  C   UNL     1       2.789   3.069  19.729  0.00  0.00    +0.000 C 
ATOM     10  C   UNL     1       1.906   3.804  18.727  0.00  0.00    +0.000 C 
ATOM     11  C   UNL     1       2.518   3.814  17.322  0.00  0.00    +0.000 C 
ATOM     12  H   UNL     1       6.713   3.988  19.153  0.00  0.00    +0.000 HD
ENDROOT
BRANCH   1  13
ATOM     13  C   UNL     1       6.755   4.402  14.614  0.00  0.00    +0.000 C 
BRANCH  13  14
ATOM     14  N   UNL     1       7.691   5.532  14.616  0.00  0.00    +0.000 NA
ATOM     15  H   UNL     1       7.160   6.391  14.762  0.00  0.00    +0.000 HD
ATOM     16  H   UNL     1       8.101   5.617  13.688  0.00  0.00    +0.000 HD
ENDBRANCH  13  14
ENDBRANCH   1  13
TORSDOF 2
ENDMDL
MODEL 4
REMARK VINA RESULT:      -6.5      1.802      2.162
REMARK  Name = 
REMARK  2 active torsions:
REMARK  status: ('A' for Active; 'I' for Inactive)
REMARK    1  A    between atoms: N_1  and  C_2
REMARK    2  A    between atoms: C_2  and  C_3
REMARK                            x       y       z     vdW  Elec       q    Type
REMARK                         _______ _______ _______ _____ _____    ______ ____
ROOT
ATOM      1  C   UNL     1       6.497   5.212  18.750  0.00  0.00    +0.000 A 
ATOM      2  C   UNL     1       5.330   5.284  19.414  0.00  0.00    +0.000 A 
ATOM      3  C   UNL     1       4.111   4.698  18.893  0.00  0.00    +0.000 A 
ATOM      4  C   UNL     1       4.135   4.066  17.707  0.00  0.00    +0.000 A 
ATOM      5  N   UNL     1       5.315   3.977  17.008  0.00  0.00    +0.000 N 
ATOM      6  C   UNL     1       6.514   4.501  17.433  0.00  0.00    +0.000 A 
ATOM      7  O   UNL     1       7.537   4.392  16.766  0.00  0.00    +0.000 OA
ATOM      8  C   UNL     1       2.904   3.470  17.080  0.00  0.00    +0.000 C 
ATOM      9  C   UNL     1       1.618   4.063  17.663  0.00  0.00    +0.000 C 
ATOM     10  C   UNL     1       1.660   4.067  19.188  0.00  0.00    +0.000 C 
ATOM     11  C   UNL     1       2.866   4.845  19.726  0.00  0.00    +0.000 C 
ATOM     12  H   UNL     1       5.341   3.512  16.110  0.00  0.00    +0.000 HD
ENDROOT
BRANCH   1  13
ATOM     13  C   UNL     1       7.813   5.781  19.195  0.00  0.00    +0.000 C 
BRANCH  13  14
ATOM     14  N   UNL     1       8.215   5.387  20.550  0.00  0.00    +0.000 NA
ATOM     15  H   UNL     1       7.532   5.758  21.210  0.00  0.00    +0.000 HD
ATOM     16  H   UNL     1       9.094   5.849  20.776  0.00  0.00    +0.000 HD
ENDBRANCH  13  14
ENDBRANCH   1  13
TORSDOF 2
ENDMDL
MODEL 5
REMARK VINA RESULT:      -6.4      1.135      1.209
REMARK  Name = 
REMARK  2 active torsions:
REMARK  status: ('A' for Active; 'I' for Inactive)
REMARK    1  A    between atoms: N_1  and  C_2
REMARK    2  A    between atoms: C_2  and  C_3
REMARK                            x       y       z     vdW  Elec       q    Type
REMARK                         _______ _______ _______ _____ _____    ______ ____
ROOT
ATOM      1  C   UNL     1       6.345   6.092  17.808  0.00  0.00    +0.000 A 
ATOM      2  C   UNL     1       5.015   6.279  17.740  0.00  0.00    +0.000 A 
ATOM      3  C   UNL     1       4.073   5.194  17.927  0.00  0.00    +0.000 A 
ATOM      4  C   UNL     1       4.532   3.955  18.170  0.00  0.00    +0.000 A 
ATOM      5  N   UNL     1       5.887   3.735  18.246  0.00  0.00    +0.000 N 
ATOM      6  C   UNL     1       6.845   4.708  18.086  0.00  0.00    +0.000 A 
ATOM      7  O   UNL     1       8.042   4.454  18.163  0.00  0.00    +0.000 OA
ATOM      8  C   UNL     1       3.622   2.768  18.331  0.00  0.00    +0.000 C 
ATOM      9  C   UNL     1       2.237   3.022  17.730  0.00  0.00    +0.000 C 
ATOM     10  C   UNL     1       1.679   4.365  18.189  0.00  0.00    +0.000 C 
ATOM     11  C   UNL     1       2.609   5.527  17.824  0.00  0.00    +0.000 C 
ATOM     12  H   UNL     1       6.243   2.803  18.419  0.00  0.00    +0.000 HD
ENDROOT
BRANCH   1  13
ATOM     13  C   UNL     1       7.404   7.140  17.632  0.00  0.00    +0.000 C 
BRANCH  13  14
ATOM     14  N   UNL     1       8.331   7.259  18.763  0.00  0.00    +0.000 NA
ATOM     15  H   UNL     1       9.104   6.609  18.616  0.00  0.00    +0.000 HD
ATOM     16  H   UNL     1       7.859   6.939  19.606  0.00  0.00    +0.000 HD
ENDBRANCH  13  14
ENDBRANCH   1  13
TORSDOF 2
ENDMDL
MODEL 6
REMARK VINA RESULT:      -6.3      3.140      4.535
REMARK  Name = 
REMARK  2 active torsions:
REMARK  status: ('A' for Active; 'I' for Inactive)
REMARK    1  A    between atoms: N_1  and  C_2
REMARK    2  A    between atoms: C_2  and  C_3
REMARK                            x       y       z     vdW  Elec       q    Type
REMARK                         _______ _______ _______ _____ _____    ______ ____
ROOT
ATOM      1  C   UNL     1       5.920   4.281  14.328  0.00  0.00    +0.000 A 
ATOM      2  C   UNL     1       5.301   4.098  15.507  0.00  0.00    +0.000 A 
ATOM      3  C   UNL     1       5.766   4.726  16.728  0.00  0.00    +0.000 A 
ATOM      4  C   UNL     1       6.853   5.515  16.693  0.00  0.00    +0.000 A 
ATOM      5  N   UNL     1       7.505   5.721  15.500  0.00  0.00    +0.000 N 
ATOM      6  C   UNL     1       7.127   5.167  14.299  0.00  0.00    +0.000 A 
ATOM      7  O   UNL     1       7.749   5.386  13.265  0.00  0.00    +0.000 OA
ATOM      8  C   UNL     1       7.422   6.168  17.923  0.00  0.00    +0.000 C 
ATOM      9  C   UNL     1       6.956   5.477  19.207  0.00  0.00    +0.000 C 
ATOM     10  C   UNL     1       5.446   5.264  19.197  0.00  0.00    +0.000 C 
ATOM     11  C   UNL     1       4.991   4.442  17.986  0.00  0.00    +0.000 C 
ATOM     12  H   UNL     1       8.330   6.306  15.465  0.00  0.00    +0.000 HD
ENDROOT
BRANCH   1  13
ATOM     13  C   UNL     1       5.526   3.682  13.010  0.00  0.00    +0.000 C 
BRANCH  13  14
ATOM     14  N   UNL     1       6.575   2.877  12.373  0.00  0.00    +0.000 NA
ATOM     15  H   UNL     1       7.477   3.163  12.754  0.00  0.00    +0.000 HD
ATOM     16  H   UNL     1       6.608   3.111  11.382  0.00  0.00    +0.000 HD
ENDBRANCH  13  14
ENDBRANCH   1  13
TORSDOF 2
ENDMDL
MODEL 7
REMARK VINA RESULT:      -6.3      1.616      1.884
REMARK  Name = 
REMARK  2 active torsions:
REMARK  status: ('A' for Active; 'I' for Inactive)
REMARK    1  A    between atoms: N_1  and  C_2
REMARK    2  A    between atoms: C_2  and  C_3
REMARK                            x       y       z     vdW  Elec       q    Type
REMARK                         _______ _______ _______ _____ _____    ______ ____
ROOT
ATOM      1  C   UNL     1       5.426   4.325  17.443  0.00  0.00    +0.000 A 
ATOM      2  C   UNL     1       4.341   3.548  17.281  0.00  0.00    +0.000 A 
ATOM      3  C   UNL     1       3.254   3.534  18.239  0.00  0.00    +0.000 A 
ATOM      4  C   UNL     1       3.324   4.314  19.331  0.00  0.00    +0.000 A 
ATOM      5  N   UNL     1       4.422   5.121  19.520  0.00  0.00    +0.000 N 
ATOM      6  C   UNL     1       5.491   5.196  18.659  0.00  0.00    +0.000 A 
ATOM      7  O   UNL     1       6.446   5.934  18.880  0.00  0.00    +0.000 OA
ATOM      8  C   UNL     1       2.258   4.324  20.392  0.00  0.00    +0.000 C 
ATOM      9  C   UNL     1       1.389   3.065  20.345  0.00  0.00    +0.000 C 
ATOM     10  C   UNL     1       0.919   2.778  18.923  0.00  0.00    +0.000 C 
ATOM     11  C   UNL     1       2.094   2.619  17.951  0.00  0.00    +0.000 C 
ATOM     12  H   UNL     1       4.488   5.705  20.344  0.00  0.00    +0.000 HD
ENDROOT
BRANCH   1  13
ATOM     13  C   UNL     1       6.604   4.418  16.517  0.00  0.00    +0.000 C 
BRANCH  13  14
ATOM     14  N   UNL     1       7.903   4.211  17.168  0.00  0.00    +0.000 NA
ATOM     15  H   UNL     1       8.571   4.871  16.772  0.00  0.00    +0.000 HD
ATOM     16  H   UNL     1       8.248   3.285  16.918  0.00  0.00    +0.000 HD
ENDBRANCH  13  14
ENDBRANCH   1  13
TORSDOF 2
ENDMDL
MODEL 8
REMARK VINA RESULT:      -6.2      1.885      4.623
REMARK  Name = 
REMARK  2 active torsions:
REMARK  status: ('A' for Active; 'I' for Inactive)
REMARK    1  A    between atoms: N_1  and  C_2
REMARK    2  A    between atoms: C_2  and  C_3
REMARK                            x       y       z     vdW  Elec       q    Type
REMARK                         _______ _______ _______ _____ _____    ______ ____
ROOT
ATOM      1  C   UNL     1       3.313   4.027  18.353  0.00  0.00    +0.000 A 
ATOM      2  C   UNL     1       3.746   5.151  17.754  0.00  0.00    +0.000 A 
ATOM      3  C   UNL     1       5.135   5.563  17.803  0.00  0.00    +0.000 A 
ATOM      4  C   UNL     1       6.025   4.810  18.469  0.00  0.00    +0.000 A 
ATOM      5  N   UNL     1       5.611   3.656  19.089  0.00  0.00    +0.000 N 
ATOM      6  C   UNL     1       4.316   3.192  19.088  0.00  0.00    +0.000 A 
ATOM      7  O   UNL     1       4.002   2.154  19.660  0.00  0.00    +0.000 OA
ATOM      8  C   UNL     1       7.474   5.193  18.602  0.00  0.00    +0.000 C 
ATOM      9  C   UNL     1       7.700   6.684  18.340  0.00  0.00    +0.000 C 
ATOM     10  C   UNL     1       7.003   7.127  17.058  0.00  0.00    +0.000 C 
ATOM     11  C   UNL     1       5.497   6.842  17.097  0.00  0.00    +0.000 C 
ATOM     12  H   UNL     1       6.273   3.087  19.602  0.00  0.00    +0.000 HD
ENDROOT
BRANCH   1  13
ATOM     13  C   UNL     1       1.905   3.508  18.366  0.00  0.00    +0.000 C 
BRANCH  13  14
ATOM     14  N   UNL     1       1.760   2.140  17.856  0.00  0.00    +0.000 NA
ATOM     15  H   UNL     1       2.684   1.708  17.823  0.00  0.00    +0.000 HD
ATOM     16  H   UNL     1       1.443   2.185  16.889  0.00  0.00    +0.000 HD
ENDBRANCH  13  14
ENDBRANCH   1  13
TORSDOF 2
ENDMDL
MODEL 9
REMARK VINA RESULT:      -6.1      1.460      1.489
REMARK  Name = 
REMARK  2 active torsions:
REMARK  status: ('A' for Active; 'I' for Inactive)
REMARK    1  A    between atoms: N_1  and  C_2
REMARK    2  A    between atoms: C_2  and  C_3
REMARK                            x       y       z     vdW  Elec       q    Type
REMARK                         _______ _______ _______ _____ _____    ______ ____
ROOT
ATOM      1  C   UNL     1       4.586   5.409  16.874  0.00  0.00    +0.000 A 
ATOM      2  C   UNL     1       3.512   5.526  17.674  0.00  0.00    +0.000 A 
ATOM      3  C   UNL     1       2.899   4.378  18.314  0.00  0.00    +0.000 A 
ATOM      4  C   UNL     1       3.409   3.153  18.102  0.00  0.00    +0.000 A 
ATOM      5  N   UNL     1       4.507   3.005  17.289  0.00  0.00    +0.000 N 
ATOM      6  C   UNL     1       5.149   4.040  16.650  0.00  0.00    +0.000 A 
ATOM      7  O   UNL     1       6.126   3.848  15.934  0.00  0.00    +0.000 OA
ATOM      8  C   UNL     1       2.804   1.909  18.693  0.00  0.00    +0.000 C 
ATOM      9  C   UNL     1       1.351   2.125  19.123  0.00  0.00    +0.000 C 
ATOM     10  C   UNL     1       1.208   3.400  19.948  0.00  0.00    +0.000 C 
ATOM     11  C   UNL     1       1.700   4.635  19.185  0.00  0.00    +0.000 C 
ATOM     12  H   UNL     1       4.893   2.085  17.115  0.00  0.00    +0.000 HD
ENDROOT
BRANCH   1  13
ATOM     13  C   UNL     1       5.296   6.525  16.165  0.00  0.00    +0.000 C 
BRANCH  13  14
ATOM     14  N   UNL     1       6.677   6.742  16.611  0.00  0.00    +0.000 NA
ATOM     15  H   UNL     1       6.657   7.297  17.466  0.00  0.00    +0.000 HD
ATOM     16  H   UNL     1       7.155   7.319  15.920  0.00  0.00    +0.000 HD
ENDBRANCH  13  14
ENDBRANCH   1  13
TORSDOF 2
ENDMDL
