MODEL 1
REMARK VINA RESULT:      -9.2      0.000      0.000
REMARK  Name = 
REMARK  10 active torsions:
REMARK  status: ('A' for Active; 'I' for Inactive)
REMARK    1  A    between atoms: C_1  and  O_2
REMARK    2  A    between atoms: O_2  and  C_3
REMARK    3  A    between atoms: C_6  and  C_7
REMARK    4  A    between atoms: C_12  and  N_13
REMARK    5  A    between atoms: N_16  and  C_17
REMARK    6  A    between atoms: C_20  and  O_21
REMARK    7  A    between atoms: O_21  and  C_22
REMARK    8  A    between atoms: C_26  and  C_27
REMARK    9  A    between atoms: N_29  and  C_30
REMARK   10  A    between atoms: N_29  and  C_31
REMARK                            x       y       z     vdW  Elec       q    Type
REMARK                         _______ _______ _______ _____ _____    ______ ____
ROOT
ATOM      1  N   UNL     1       2.948   5.848  20.168  0.00  0.00    +0.000 N 
ATOM      2  C   UNL     1       2.139   6.966  19.984  0.00  0.00    +0.000 C 
ATOM      3  O   UNL     1       1.921   7.458  18.882  0.00  0.00    +0.000 OA
ATOM      4  N   UNL     1       1.646   7.493  21.171  0.00  0.00    +0.000 N 
ATOM      5  H   UNL     1       2.765   5.242  20.958  0.00  0.00    +0.000 HD
ATOM      6  H   UNL     1       2.052   7.139  22.024  0.00  0.00    +0.000 HD
ENDROOT
BRANCH   1  12
ATOM      7  C   UNL     1       3.232   4.523  18.103  0.00  0.00    +0.000 A 
ATOM      8  C   UNL     1       4.082   3.933  17.148  0.00  0.00    +0.000 A 
ATOM      9  C   UNL     1       5.455   4.175  17.161  0.00  0.00    +0.000 A 
ATOM     10  C   UNL     1       6.012   4.977  18.156  0.00  0.00    +0.000 A 
ATOM     11  C   UNL     1       5.177   5.476  19.166  0.00  0.00    +0.000 A 
ATOM     12  C   UNL     1       3.785   5.288  19.150  0.00  0.00    +0.000 A 
BRANCH  10  13
ATOM     13  C   UNL     1       7.474   5.343  18.148  0.00  0.00    +0.000 C 
ATOM     14  F   UNL     1       7.764   6.385  17.319  0.00  0.00    +0.000 F 
ATOM     15  F   UNL     1       7.921   5.717  19.378  0.00  0.00    +0.000 F 
ATOM     16  F   UNL     1       8.272   4.315  17.750  0.00  0.00    +0.000 F 
ENDBRANCH  10  13
BRANCH   7  18
ATOM     17  C   UNL     1       1.369   3.103  18.402  0.00  0.00    +0.000 C 
ATOM     18  O   UNL     1       1.861   4.401  18.043  0.00  0.00    +0.000 OA
ENDBRANCH   7  18
ENDBRANCH   1  12
BRANCH   4  19
ATOM     19  C   UNL     1       0.891   8.702  21.272  0.00  0.00    +0.000 A 
ATOM     20  C   UNL     1       0.805   9.653  20.246  0.00  0.00    +0.000 A 
ATOM     21  C   UNL     1       0.132  10.872  20.430  0.00  0.00    +0.000 A 
ATOM     22  C   UNL     1      -0.490  11.156  21.642  0.00  0.00    +0.000 A 
ATOM     23  C   UNL     1      -0.431  10.218  22.668  0.00  0.00    +0.000 A 
ATOM     24  C   UNL     1       0.231   8.984  22.474  0.00  0.00    +0.000 A 
BRANCH  22  25
ATOM     25  O   UNL     1      -1.040  12.416  21.769  0.00  0.00    +0.000 OA
BRANCH  25  26
ATOM     26  C   UNL     1      -2.309  12.579  22.282  0.00  0.00    +0.000 A 
ATOM     27  C   UNL     1      -2.587  12.697  23.638  0.00  0.00    +0.000 A 
ATOM     28  C   UNL     1      -3.908  12.834  24.025  0.00  0.00    +0.000 A 
ATOM     29  N   UNL     1      -4.954  12.810  23.175  0.00  0.00    +0.000 NA
ATOM     30  C   UNL     1      -4.675  12.644  21.856  0.00  0.00    +0.000 A 
ATOM     31  C   UNL     1      -3.371  12.520  21.376  0.00  0.00    +0.000 A 
BRANCH  30  32
ATOM     32  C   UNL     1      -5.831  12.510  20.898  0.00  0.00    +0.000 C 
ATOM     33  O   UNL     1      -6.331  11.387  20.787  0.00  0.00    +0.000 OA
ATOM     34  N   UNL     1      -6.330  13.607  20.178  0.00  0.00    +0.000 N 
ATOM     35  C   UNL     1      -5.752  14.943  20.135  0.00  0.00    +0.000 C 
ATOM     36  C   UNL     1      -7.583  13.455  19.453  0.00  0.00    +0.000 C 
ENDBRANCH  30  32
ENDBRANCH  25  26
ENDBRANCH  22  25
ENDBRANCH   4  19
TORSDOF 7
ENDMDL
MODEL 2
REMARK VINA RESULT:      -9.1      3.035      3.668
REMARK  Name = 
REMARK  10 active torsions:
REMARK  status: ('A' for Active; 'I' for Inactive)
REMARK    1  A    between atoms: C_1  and  O_2
REMARK    2  A    between atoms: O_2  and  C_3
REMARK    3  A    between atoms: C_6  and  C_7
REMARK    4  A    between atoms: C_12  and  N_13
REMARK    5  A    between atoms: N_16  and  C_17
REMARK    6  A    between atoms: C_20  and  O_21
REMARK    7  A    between atoms: O_21  and  C_22
REMARK    8  A    between atoms: C_26  and  C_27
REMARK    9  A    between atoms: N_29  and  C_30
REMARK   10  A    between atoms: N_29  and  C_31
REMARK                            x       y       z     vdW  Elec       q    Type
REMARK                         _______ _______ _______ _____ _____    ______ ____
ROOT
ATOM      1  N   UNL     1       2.980   7.153  17.762  0.00  0.00    +0.000 N 
ATOM      2  C   UNL     1       2.299   8.099  18.525  0.00  0.00    +0.000 C 
ATOM      3  O   UNL     1       2.038   7.936  19.712  0.00  0.00    +0.000 OA
ATOM      4  N   UNL     1       1.910   9.218  17.800  0.00  0.00    +0.000 N 
ATOM      5  H   UNL     1       3.534   7.471  16.978  0.00  0.00    +0.000 HD
ATOM      6  H   UNL     1       1.993   9.155  16.796  0.00  0.00    +0.000 HD
ENDROOT
BRANCH   1  12
ATOM      7  C   UNL     1       4.572   5.364  18.366  0.00  0.00    +0.000 A 
ATOM      8  C   UNL     1       4.810   4.027  18.736  0.00  0.00    +0.000 A 
ATOM      9  C   UNL     1       3.755   3.166  19.037  0.00  0.00    +0.000 A 
ATOM     10  C   UNL     1       2.439   3.613  18.932  0.00  0.00    +0.000 A 
ATOM     11  C   UNL     1       2.204   4.913  18.461  0.00  0.00    +0.000 A 
ATOM     12  C   UNL     1       3.247   5.815  18.197  0.00  0.00    +0.000 A 
BRANCH  10  13
ATOM     13  C   UNL     1       1.276   2.746  19.343  0.00  0.00    +0.000 C 
ATOM     14  F   UNL     1       1.625   1.450  19.578  0.00  0.00    +0.000 F 
ATOM     15  F   UNL     1       0.686   3.181  20.490  0.00  0.00    +0.000 F 
ATOM     16  F   UNL     1       0.293   2.703  18.402  0.00  0.00    +0.000 F 
ENDBRANCH  10  13
BRANCH   7  18
ATOM     17  C   UNL     1       6.460   5.963  17.080  0.00  0.00    +0.000 C 
ATOM     18  O   UNL     1       5.594   6.269  18.181  0.00  0.00    +0.000 OA
ENDBRANCH   7  18
ENDBRANCH   1  12
BRANCH   4  19
ATOM     19  C   UNL     1       1.100  10.278  18.312  0.00  0.00    +0.000 A 
ATOM     20  C   UNL     1       1.609  11.520  18.716  0.00  0.00    +0.000 A 
ATOM     21  C   UNL     1       0.786  12.493  19.305  0.00  0.00    +0.000 A 
ATOM     22  C   UNL     1      -0.572  12.251  19.483  0.00  0.00    +0.000 A 
ATOM     23  C   UNL     1      -1.101  11.032  19.074  0.00  0.00    +0.000 A 
ATOM     24  C   UNL     1      -0.275  10.061  18.464  0.00  0.00    +0.000 A 
BRANCH  22  25
ATOM     25  O   UNL     1      -1.284  13.222  20.161  0.00  0.00    +0.000 OA
BRANCH  25  26
ATOM     26  C   UNL     1      -2.054  12.891  21.255  0.00  0.00    +0.000 A 
ATOM     27  C   UNL     1      -1.547  12.317  22.415  0.00  0.00    +0.000 A 
ATOM     28  C   UNL     1      -2.430  12.013  23.433  0.00  0.00    +0.000 A 
ATOM     29  N   UNL     1      -3.765  12.189  23.359  0.00  0.00    +0.000 NA
ATOM     30  C   UNL     1      -4.256  12.705  22.203  0.00  0.00    +0.000 A 
ATOM     31  C   UNL     1      -3.435  13.061  21.132  0.00  0.00    +0.000 A 
BRANCH  30  32
ATOM     32  C   UNL     1      -5.752  12.816  22.055  0.00  0.00    +0.000 C 
ATOM     33  O   UNL     1      -6.332  11.851  21.547  0.00  0.00    +0.000 OA
ATOM     34  N   UNL     1      -6.460  13.949  22.487  0.00  0.00    +0.000 N 
ATOM     35  C   UNL     1      -5.877  15.187  22.988  0.00  0.00    +0.000 C 
ATOM     36  C   UNL     1      -7.913  13.892  22.525  0.00  0.00    +0.000 C 
ENDBRANCH  30  32
ENDBRANCH  25  26
ENDBRANCH  22  25
ENDBRANCH   4  19
TORSDOF 7
ENDMDL
MODEL 3
REMARK VINA RESULT:      -8.9      2.081      3.143
REMARK  Name = 
REMARK  10 active torsions:
REMARK  status: ('A' for Active; 'I' for Inactive)
REMARK    1  A    between atoms: C_1  and  O_2
REMARK    2  A    between atoms: O_2  and  C_3
REMARK    3  A    between atoms: C_6  and  C_7
REMARK    4  A    between atoms: C_12  and  N_13
REMARK    5  A    between atoms: N_16  and  C_17
REMARK    6  A    between atoms: C_20  and  O_21
REMARK    7  A    between atoms: O_21  and  C_22
REMARK    8  A    between atoms: C_26  and  C_27
REMARK    9  A    between atoms: N_29  and  C_30
REMARK   10  A    between atoms: N_29  and  C_31
REMARK                            x       y       z     vdW  Elec       q    Type
REMARK                         _______ _______ _______ _____ _____    ______ ____
ROOT
ATOM      1  N   UNL     1       2.894   5.916  20.149  0.00  0.00    +0.000 N 
ATOM      2  C   UNL     1       2.160   7.084  19.961  0.00  0.00    +0.000 C 
ATOM      3  O   UNL     1       2.023   7.617  18.865  0.00  0.00    +0.000 OA
ATOM      4  N   UNL     1       1.642   7.607  21.140  0.00  0.00    +0.000 N 
ATOM      5  H   UNL     1       2.640   5.301  20.911  0.00  0.00    +0.000 HD
ATOM      6  H   UNL     1       1.987   7.206  21.999  0.00  0.00    +0.000 HD
ENDROOT
BRANCH   1  12
ATOM      7  C   UNL     1       3.204   4.564  18.104  0.00  0.00    +0.000 A 
ATOM      8  C   UNL     1       4.066   3.954  17.173  0.00  0.00    +0.000 A 
ATOM      9  C   UNL     1       5.440   4.183  17.209  0.00  0.00    +0.000 A 
ATOM     10  C   UNL     1       5.987   4.990  18.206  0.00  0.00    +0.000 A 
ATOM     11  C   UNL     1       5.137   5.510  19.194  0.00  0.00    +0.000 A 
ATOM     12  C   UNL     1       3.744   5.335  19.154  0.00  0.00    +0.000 A 
BRANCH  10  13
ATOM     13  C   UNL     1       7.452   5.342  18.222  0.00  0.00    +0.000 C 
ATOM     14  F   UNL     1       7.931   5.600  19.471  0.00  0.00    +0.000 F 
ATOM     15  F   UNL     1       8.231   4.340  17.730  0.00  0.00    +0.000 F 
ATOM     16  F   UNL     1       7.737   6.445  17.478  0.00  0.00    +0.000 F 
ENDBRANCH  10  13
BRANCH   7  18
ATOM     17  C   UNL     1       1.320   3.170  18.394  0.00  0.00    +0.000 C 
ATOM     18  O   UNL     1       1.833   4.455  18.020  0.00  0.00    +0.000 OA
ENDBRANCH   7  18
ENDBRANCH   1  12
BRANCH   4  19
ATOM     19  C   UNL     1       0.954   8.855  21.243  0.00  0.00    +0.000 A 
ATOM     20  C   UNL     1       0.940   9.821  20.227  0.00  0.00    +0.000 A 
ATOM     21  C   UNL     1       0.333  11.073  20.415  0.00  0.00    +0.000 A 
ATOM     22  C   UNL     1      -0.295  11.377  21.619  0.00  0.00    +0.000 A 
ATOM     23  C   UNL     1      -0.306  10.426  22.634  0.00  0.00    +0.000 A 
ATOM     24  C   UNL     1       0.289   9.159  22.437  0.00  0.00    +0.000 A 
BRANCH  22  25
ATOM     25  O   UNL     1      -0.776  12.664  21.752  0.00  0.00    +0.000 OA
BRANCH  25  26
ATOM     26  C   UNL     1      -1.685  12.975  22.740  0.00  0.00    +0.000 A 
ATOM     27  C   UNL     1      -2.909  12.336  22.897  0.00  0.00    +0.000 A 
ATOM     28  C   UNL     1      -3.741  12.759  23.917  0.00  0.00    +0.000 A 
ATOM     29  N   UNL     1      -3.466  13.789  24.743  0.00  0.00    +0.000 NA
ATOM     30  C   UNL     1      -2.289  14.439  24.550  0.00  0.00    +0.000 A 
ATOM     31  C   UNL     1      -1.381  14.066  23.559  0.00  0.00    +0.000 A 
BRANCH  30  32
ATOM     32  C   UNL     1      -2.006  15.657  25.391  0.00  0.00    +0.000 C 
ATOM     33  O   UNL     1      -1.343  15.481  26.417  0.00  0.00    +0.000 OA
ATOM     34  N   UNL     1      -2.458  16.935  25.024  0.00  0.00    +0.000 N 
ATOM     35  C   UNL     1      -3.342  17.247  23.909  0.00  0.00    +0.000 C 
ATOM     36  C   UNL     1      -1.956  18.090  25.754  0.00  0.00    +0.000 C 
ENDBRANCH  30  32
ENDBRANCH  25  26
ENDBRANCH  22  25
ENDBRANCH   4  19
TORSDOF 7
ENDMDL
MODEL 4
REMARK VINA RESULT:      -8.8      2.655      3.359
REMARK  Name = 
REMARK  10 active torsions:
REMARK  status: ('A' for Active; 'I' for Inactive)
REMARK    1  A    between atoms: C_1  and  O_2
REMARK    2  A    between atoms: O_2  and  C_3
REMARK    3  A    between atoms: C_6  and  C_7
REMARK    4  A    between atoms: C_12  and  N_13
REMARK    5  A    between atoms: N_16  and  C_17
REMARK    6  A    between atoms: C_20  and  O_21
REMARK    7  A    between atoms: O_21  and  C_22
REMARK    8  A    between atoms: C_26  and  C_27
REMARK    9  A    between atoms: N_29  and  C_30
REMARK   10  A    between atoms: N_29  and  C_31
REMARK                            x       y       z     vdW  Elec       q    Type
REMARK                         _______ _______ _______ _____ _____    ______ ____
ROOT
ATOM      1  N   UNL     1       2.237   7.320  18.098  0.00  0.00    +0.000 N 
ATOM      2  C   UNL     1       1.980   7.952  19.312  0.00  0.00    +0.000 C 
ATOM      3  O   UNL     1       2.378   7.519  20.388  0.00  0.00    +0.000 OA
ATOM      4  N   UNL     1       1.193   9.091  19.186  0.00  0.00    +0.000 N 
ATOM      5  H   UNL     1       2.285   7.882  17.259  0.00  0.00    +0.000 HD
ATOM      6  H   UNL     1       0.754   9.237  18.289  0.00  0.00    +0.000 HD
ENDROOT
BRANCH   1  12
ATOM      7  C   UNL     1       4.076   5.802  17.449  0.00  0.00    +0.000 A 
ATOM      8  C   UNL     1       4.568   4.493  17.290  0.00  0.00    +0.000 A 
ATOM      9  C   UNL     1       3.843   3.393  17.745  0.00  0.00    +0.000 A 
ATOM     10  C   UNL     1       2.590   3.576  18.327  0.00  0.00    +0.000 A 
ATOM     11  C   UNL     1       2.057   4.872  18.388  0.00  0.00    +0.000 A 
ATOM     12  C   UNL     1       2.785   6.002  17.982  0.00  0.00    +0.000 A 
BRANCH  10  13
ATOM     13  C   UNL     1       1.819   2.424  18.920  0.00  0.00    +0.000 C 
ATOM     14  F   UNL     1       1.689   2.502  20.274  0.00  0.00    +0.000 F 
ATOM     15  F   UNL     1       0.550   2.344  18.433  0.00  0.00    +0.000 F 
ATOM     16  F   UNL     1       2.399   1.218  18.670  0.00  0.00    +0.000 F 
ENDBRANCH  10  13
BRANCH   7  18
ATOM     17  C   UNL     1       6.238   6.704  17.158  0.00  0.00    +0.000 C 
ATOM     18  O   UNL     1       4.821   6.914  17.121  0.00  0.00    +0.000 OA
ENDBRANCH   7  18
ENDBRANCH   1  12
BRANCH   4  19
ATOM     19  C   UNL     1       0.688   9.856  20.282  0.00  0.00    +0.000 A 
ATOM     20  C   UNL     1       0.087   9.288  21.414  0.00  0.00    +0.000 A 
ATOM     21  C   UNL     1      -0.483  10.086  22.419  0.00  0.00    +0.000 A 
ATOM     22  C   UNL     1      -0.445  11.474  22.322  0.00  0.00    +0.000 A 
ATOM     23  C   UNL     1       0.162  12.057  21.214  0.00  0.00    +0.000 A 
ATOM     24  C   UNL     1       0.752  11.253  20.213  0.00  0.00    +0.000 A 
BRANCH  22  25
ATOM     25  O   UNL     1      -1.117  12.176  23.302  0.00  0.00    +0.000 OA
BRANCH  25  26
ATOM     26  C   UNL     1      -2.159  13.016  22.975  0.00  0.00    +0.000 A 
ATOM     27  C   UNL     1      -2.113  14.399  23.112  0.00  0.00    +0.000 A 
ATOM     28  C   UNL     1      -3.236  15.127  22.768  0.00  0.00    +0.000 A 
ATOM     29  N   UNL     1      -4.398  14.582  22.355  0.00  0.00    +0.000 NA
ATOM     30  C   UNL     1      -4.449  13.227  22.271  0.00  0.00    +0.000 A 
ATOM     31  C   UNL     1      -3.356  12.415  22.578  0.00  0.00    +0.000 A 
BRANCH  30  32
ATOM     32  C   UNL     1      -5.766  12.588  21.912  0.00  0.00    +0.000 C 
ATOM     33  O   UNL     1      -6.534  12.337  22.845  0.00  0.00    +0.000 OA
ATOM     34  N   UNL     1      -6.116  12.304  20.582  0.00  0.00    +0.000 N 
ATOM     35  C   UNL     1      -5.252  12.443  19.417  0.00  0.00    +0.000 C 
ATOM     36  C   UNL     1      -7.484  11.904  20.290  0.00  0.00    +0.000 C 
ENDBRANCH  30  32
ENDBRANCH  25  26
ENDBRANCH  22  25
ENDBRANCH   4  19
TORSDOF 7
ENDMDL
MODEL 5
REMARK VINA RESULT:      -8.8      3.134      4.175
REMARK  Name = 
REMARK  10 active torsions:
REMARK  status: ('A' for Active; 'I' for Inactive)
REMARK    1  A    between atoms: C_1  and  O_2
REMARK    2  A    between atoms: O_2  and  C_3
REMARK    3  A    between atoms: C_6  and  C_7
REMARK    4  A    between atoms: C_12  and  N_13
REMARK    5  A    between atoms: N_16  and  C_17
REMARK    6  A    between atoms: C_20  and  O_21
REMARK    7  A    between atoms: O_21  and  C_22
REMARK    8  A    between atoms: C_26  and  C_27
REMARK    9  A    between atoms: N_29  and  C_30
REMARK   10  A    between atoms: N_29  and  C_31
REMARK                            x       y       z     vdW  Elec       q    Type
REMARK                         _______ _______ _______ _____ _____    ______ ____
ROOT
ATOM      1  N   UNL     1       3.142   7.002  17.918  0.00  0.00    +0.000 N 
ATOM      2  C   UNL     1       2.270   7.862  18.580  0.00  0.00    +0.000 C 
ATOM      3  O   UNL     1       1.892   7.674  19.731  0.00  0.00    +0.000 OA
ATOM      4  N   UNL     1       1.839   8.923  17.794  0.00  0.00    +0.000 N 
ATOM      5  H   UNL     1       3.743   7.380  17.198  0.00  0.00    +0.000 HD
ATOM      6  H   UNL     1       2.046   8.867  16.808  0.00  0.00    +0.000 HD
ENDROOT
BRANCH   1  12
ATOM      7  C   UNL     1       4.870   5.331  18.491  0.00  0.00    +0.000 A 
ATOM      8  C   UNL     1       5.206   4.032  18.916  0.00  0.00    +0.000 A 
ATOM      9  C   UNL     1       4.225   3.142  19.352  0.00  0.00    +0.000 A 
ATOM     10  C   UNL     1       2.883   3.517  19.329  0.00  0.00    +0.000 A 
ATOM     11  C   UNL     1       2.543   4.774  18.805  0.00  0.00    +0.000 A 
ATOM     12  C   UNL     1       3.514   5.707  18.405  0.00  0.00    +0.000 A 
BRANCH  10  13
ATOM     13  C   UNL     1       1.803   2.623  19.883  0.00  0.00    +0.000 C 
ATOM     14  F   UNL     1       1.945   2.367  21.213  0.00  0.00    +0.000 F 
ATOM     15  F   UNL     1       0.561   3.163  19.742  0.00  0.00    +0.000 F 
ATOM     16  F   UNL     1       1.761   1.408  19.271  0.00  0.00    +0.000 F 
ENDBRANCH  10  13
BRANCH   7  18
ATOM     17  C   UNL     1       7.169   5.867  18.461  0.00  0.00    +0.000 C 
ATOM     18  O   UNL     1       5.825   6.271  18.172  0.00  0.00    +0.000 OA
ENDBRANCH   7  18
ENDBRANCH   1  12
BRANCH   4  19
ATOM     19  C   UNL     1       0.855   9.881  18.189  0.00  0.00    +0.000 A 
ATOM     20  C   UNL     1      -0.516   9.740  17.929  0.00  0.00    +0.000 A 
ATOM     21  C   UNL     1      -1.431  10.755  18.250  0.00  0.00    +0.000 A 
ATOM     22  C   UNL     1      -0.996  11.928  18.859  0.00  0.00    +0.000 A 
ATOM     23  C   UNL     1       0.358  12.080  19.141  0.00  0.00    +0.000 A 
ATOM     24  C   UNL     1       1.275  11.050  18.835  0.00  0.00    +0.000 A 
BRANCH  22  25
ATOM     25  O   UNL     1      -1.947  12.911  19.047  0.00  0.00    +0.000 OA
BRANCH  25  26
ATOM     26  C   UNL     1      -3.033  12.690  19.866  0.00  0.00    +0.000 A 
ATOM     27  C   UNL     1      -4.301  12.364  19.401  0.00  0.00    +0.000 A 
ATOM     28  C   UNL     1      -5.312  12.189  20.329  0.00  0.00    +0.000 A 
ATOM     29  N   UNL     1      -5.163  12.366  21.657  0.00  0.00    +0.000 NA
ATOM     30  C   UNL     1      -3.931  12.733  22.097  0.00  0.00    +0.000 A 
ATOM     31  C   UNL     1      -2.849  12.910  21.234  0.00  0.00    +0.000 A 
BRANCH  30  32
ATOM     32  C   UNL     1      -3.764  13.038  23.563  0.00  0.00    +0.000 C 
ATOM     33  O   UNL     1      -3.834  12.080  24.340  0.00  0.00    +0.000 OA
ATOM     34  N   UNL     1      -3.524  14.340  24.029  0.00  0.00    +0.000 N 
ATOM     35  C   UNL     1      -3.540  15.557  23.228  0.00  0.00    +0.000 C 
ATOM     36  C   UNL     1      -3.146  14.525  25.422  0.00  0.00    +0.000 C 
ENDBRANCH  30  32
ENDBRANCH  25  26
ENDBRANCH  22  25
ENDBRANCH   4  19
TORSDOF 7
ENDMDL
MODEL 6
REMARK VINA RESULT:      -8.7      3.225      3.916
REMARK  Name = 
REMARK  10 active torsions:
REMARK  status: ('A' for Active; 'I' for Inactive)
REMARK    1  A    between atoms: C_1  and  O_2
REMARK    2  A    between atoms: O_2  and  C_3
REMARK    3  A    between atoms: C_6  and  C_7
REMARK    4  A    between atoms: C_12  and  N_13
REMARK    5  A    between atoms: N_16  and  C_17
REMARK    6  A    between atoms: C_20  and  O_21
REMARK    7  A    between atoms: O_21  and  C_22
REMARK    8  A    between atoms: C_26  and  C_27
REMARK    9  A    between atoms: N_29  and  C_30
REMARK   10  A    between atoms: N_29  and  C_31
REMARK                            x       y       z     vdW  Elec       q    Type
REMARK                         _______ _______ _______ _____ _____    ______ ____
ROOT
ATOM      1  N   UNL     1       2.568   7.311  17.769  0.00  0.00    +0.000 N 
ATOM      2  C   UNL     1       1.957   8.219  18.630  0.00  0.00    +0.000 C 
ATOM      3  O   UNL     1       1.841   8.022  19.835  0.00  0.00    +0.000 OA
ATOM      4  N   UNL     1       1.455   9.342  17.985  0.00  0.00    +0.000 N 
ATOM      5  H   UNL     1       3.017   7.663  16.934  0.00  0.00    +0.000 HD
ATOM      6  H   UNL     1       1.422   9.305  16.977  0.00  0.00    +0.000 HD
ENDROOT
BRANCH   1  12
ATOM      7  C   UNL     1       4.262   5.542  18.088  0.00  0.00    +0.000 A 
ATOM      8  C   UNL     1       4.574   4.204  18.395  0.00  0.00    +0.000 A 
ATOM      9  C   UNL     1       3.592   3.321  18.843  0.00  0.00    +0.000 A 
ATOM     10  C   UNL     1       2.269   3.746  18.950  0.00  0.00    +0.000 A 
ATOM     11  C   UNL     1       1.944   5.049  18.543  0.00  0.00    +0.000 A 
ATOM     12  C   UNL     1       2.920   5.972  18.135  0.00  0.00    +0.000 A 
BRANCH  10  13
ATOM     13  C   UNL     1       1.198   2.854  19.523  0.00  0.00    +0.000 C 
ATOM     14  F   UNL     1       0.281   3.526  20.273  0.00  0.00    +0.000 F 
ATOM     15  F   UNL     1       0.483   2.216  18.555  0.00  0.00    +0.000 F 
ATOM     16  F   UNL     1       1.699   1.880  20.330  0.00  0.00    +0.000 F 
ENDBRANCH  10  13
BRANCH   7  18
ATOM     17  C   UNL     1       6.563   5.943  17.742  0.00  0.00    +0.000 C 
ATOM     18  O   UNL     1       5.229   6.467  17.762  0.00  0.00    +0.000 OA
ENDBRANCH   7  18
ENDBRANCH   1  12
BRANCH   4  19
ATOM     19  C   UNL     1       0.683  10.366  18.615  0.00  0.00    +0.000 A 
ATOM     20  C   UNL     1      -0.695  10.267  18.851  0.00  0.00    +0.000 A 
ATOM     21  C   UNL     1      -1.427  11.340  19.384  0.00  0.00    +0.000 A 
ATOM     22  C   UNL     1      -0.789  12.532  19.713  0.00  0.00    +0.000 A 
ATOM     23  C   UNL     1       0.581  12.645  19.502  0.00  0.00    +0.000 A 
ATOM     24  C   UNL     1       1.320  11.558  18.983  0.00  0.00    +0.000 A 
BRANCH  22  25
ATOM     25  O   UNL     1      -1.601  13.566  20.135  0.00  0.00    +0.000 OA
BRANCH  25  26
ATOM     26  C   UNL     1      -1.895  13.726  21.472  0.00  0.00    +0.000 A 
ATOM     27  C   UNL     1      -0.959  14.093  22.432  0.00  0.00    +0.000 A 
ATOM     28  C   UNL     1      -1.378  14.199  23.745  0.00  0.00    +0.000 A 
ATOM     29  N   UNL     1      -2.627  13.918  24.169  0.00  0.00    +0.000 NA
ATOM     30  C   UNL     1      -3.521  13.512  23.230  0.00  0.00    +0.000 A 
ATOM     31  C   UNL     1      -3.190  13.399  21.879  0.00  0.00    +0.000 A 
BRANCH  30  32
ATOM     32  C   UNL     1      -4.893  13.093  23.692  0.00  0.00    +0.000 C 
ATOM     33  O   UNL     1      -4.984  11.985  24.229  0.00  0.00    +0.000 OA
ATOM     34  N   UNL     1      -6.015  13.924  23.538  0.00  0.00    +0.000 N 
ATOM     35  C   UNL     1      -6.054  15.191  22.819  0.00  0.00    +0.000 C 
ATOM     36  C   UNL     1      -7.253  13.558  24.209  0.00  0.00    +0.000 C 
ENDBRANCH  30  32
ENDBRANCH  25  26
ENDBRANCH  22  25
ENDBRANCH   4  19
TORSDOF 7
ENDMDL
MODEL 7
REMARK VINA RESULT:      -8.7      1.210      1.503
REMARK  Name = 
REMARK  10 active torsions:
REMARK  status: ('A' for Active; 'I' for Inactive)
REMARK    1  A    between atoms: C_1  and  O_2
REMARK    2  A    between atoms: O_2  and  C_3
REMARK    3  A    between atoms: C_6  and  C_7
REMARK    4  A    between atoms: C_12  and  N_13
REMARK    5  A    between atoms: N_16  and  C_17
REMARK    6  A    between atoms: C_20  and  O_21
REMARK    7  A    between atoms: O_21  and  C_22
REMARK    8  A    between atoms: C_26  and  C_27
REMARK    9  A    between atoms: N_29  and  C_30
REMARK   10  A    between atoms: N_29  and  C_31
REMARK                            x       y       z     vdW  Elec       q    Type
REMARK                         _______ _______ _______ _____ _____    ______ ____
ROOT
ATOM      1  N   UNL     1       2.905   6.077  20.240  0.00  0.00    +0.000 N 
ATOM      2  C   UNL     1       1.990   7.119  20.111  0.00  0.00    +0.000 C 
ATOM      3  O   UNL     1       1.472   7.423  19.042  0.00  0.00    +0.000 OA
ATOM      4  N   UNL     1       1.760   7.803  21.298  0.00  0.00    +0.000 N 
ATOM      5  H   UNL     1       2.969   5.595  21.127  0.00  0.00    +0.000 HD
ATOM      6  H   UNL     1       2.389   7.603  22.062  0.00  0.00    +0.000 HD
ENDROOT
BRANCH   1  12
ATOM      7  C   UNL     1       3.287   4.025  18.919  0.00  0.00    +0.000 A 
ATOM      8  C   UNL     1       3.941   3.370  17.858  0.00  0.00    +0.000 A 
ATOM      9  C   UNL     1       4.728   4.079  16.952  0.00  0.00    +0.000 A 
ATOM     10  C   UNL     1       4.914   5.451  17.114  0.00  0.00    +0.000 A 
ATOM     11  C   UNL     1       4.347   6.081  18.232  0.00  0.00    +0.000 A 
ATOM     12  C   UNL     1       3.511   5.400  19.133  0.00  0.00    +0.000 A 
BRANCH  10  13
ATOM     13  C   UNL     1       5.675   6.270  16.103  0.00  0.00    +0.000 C 
ATOM     14  F   UNL     1       6.422   5.515  15.250  0.00  0.00    +0.000 F 
ATOM     15  F   UNL     1       4.852   7.013  15.313  0.00  0.00    +0.000 F 
ATOM     16  F   UNL     1       6.541   7.147  16.681  0.00  0.00    +0.000 F 
ENDBRANCH  10  13
BRANCH   7  18
ATOM     17  C   UNL     1       3.028   2.719  20.869  0.00  0.00    +0.000 C 
ATOM     18  O   UNL     1       2.407   3.373  19.755  0.00  0.00    +0.000 OA
ENDBRANCH   7  18
ENDBRANCH   1  12
BRANCH   4  19
ATOM     19  C   UNL     1       0.960   8.980  21.417  0.00  0.00    +0.000 A 
ATOM     20  C   UNL     1       0.968  10.023  20.479  0.00  0.00    +0.000 A 
ATOM     21  C   UNL     1       0.238  11.204  20.691  0.00  0.00    +0.000 A 
ATOM     22  C   UNL     1      -0.535  11.358  21.838  0.00  0.00    +0.000 A 
ATOM     23  C   UNL     1      -0.569  10.327  22.772  0.00  0.00    +0.000 A 
ATOM     24  C   UNL     1       0.150   9.132  22.549  0.00  0.00    +0.000 A 
BRANCH  22  25
ATOM     25  O   UNL     1      -1.137  12.588  22.011  0.00  0.00    +0.000 OA
BRANCH  25  26
ATOM     26  C   UNL     1      -2.448  12.675  22.430  0.00  0.00    +0.000 A 
ATOM     27  C   UNL     1      -2.830  12.770  23.762  0.00  0.00    +0.000 A 
ATOM     28  C   UNL     1      -4.181  12.829  24.051  0.00  0.00    +0.000 A 
ATOM     29  N   UNL     1      -5.159  12.747  23.127  0.00  0.00    +0.000 NA
ATOM     30  C   UNL     1      -4.776  12.605  21.832  0.00  0.00    +0.000 A 
ATOM     31  C   UNL     1      -3.435  12.559  21.448  0.00  0.00    +0.000 A 
BRANCH  30  32
ATOM     32  C   UNL     1      -5.849  12.409  20.793  0.00  0.00    +0.000 C 
ATOM     33  O   UNL     1      -6.261  11.256  20.632  0.00  0.00    +0.000 OA
ATOM     34  N   UNL     1      -6.372  13.482  20.052  0.00  0.00    +0.000 N 
ATOM     35  C   UNL     1      -5.885  14.855  20.068  0.00  0.00    +0.000 C 
ATOM     36  C   UNL     1      -7.556  13.257  19.238  0.00  0.00    +0.000 C 
ENDBRANCH  30  32
ENDBRANCH  25  26
ENDBRANCH  22  25
ENDBRANCH   4  19
TORSDOF 7
ENDMDL
MODEL 8
REMARK VINA RESULT:      -8.7      1.264      1.556
REMARK  Name = 
REMARK  10 active torsions:
REMARK  status: ('A' for Active; 'I' for Inactive)
REMARK    1  A    between atoms: C_1  and  O_2
REMARK    2  A    between atoms: O_2  and  C_3
REMARK    3  A    between atoms: C_6  and  C_7
REMARK    4  A    between atoms: C_12  and  N_13
REMARK    5  A    between atoms: N_16  and  C_17
REMARK    6  A    between atoms: C_20  and  O_21
REMARK    7  A    between atoms: O_21  and  C_22
REMARK    8  A    between atoms: C_26  and  C_27
REMARK    9  A    between atoms: N_29  and  C_30
REMARK   10  A    between atoms: N_29  and  C_31
REMARK                            x       y       z     vdW  Elec       q    Type
REMARK                         _______ _______ _______ _____ _____    ______ ____
ROOT
ATOM      1  N   UNL     1       2.690   5.965  20.087  0.00  0.00    +0.000 N 
ATOM      2  C   UNL     1       2.075   7.206  19.949  0.00  0.00    +0.000 C 
ATOM      3  O   UNL     1       2.107   7.855  18.908  0.00  0.00    +0.000 OA
ATOM      4  N   UNL     1       1.465   7.654  21.114  0.00  0.00    +0.000 N 
ATOM      5  H   UNL     1       2.303   5.303  20.747  0.00  0.00    +0.000 HD
ATOM      6  H   UNL     1       1.675   7.142  21.957  0.00  0.00    +0.000 HD
ENDROOT
BRANCH   1  12
ATOM      7  C   UNL     1       3.133   4.670  18.030  0.00  0.00    +0.000 A 
ATOM      8  C   UNL     1       4.055   4.087  17.140  0.00  0.00    +0.000 A 
ATOM      9  C   UNL     1       5.424   4.316  17.271  0.00  0.00    +0.000 A 
ATOM     10  C   UNL     1       5.903   5.095  18.322  0.00  0.00    +0.000 A 
ATOM     11  C   UNL     1       4.991   5.587  19.268  0.00  0.00    +0.000 A 
ATOM     12  C   UNL     1       3.604   5.413  19.133  0.00  0.00    +0.000 A 
BRANCH  10  13
ATOM     13  C   UNL     1       7.364   5.447  18.441  0.00  0.00    +0.000 C 
ATOM     14  F   UNL     1       8.195   4.440  18.052  0.00  0.00    +0.000 F 
ATOM     15  F   UNL     1       7.703   6.520  17.675  0.00  0.00    +0.000 F 
ATOM     16  F   UNL     1       7.728   5.760  19.715  0.00  0.00    +0.000 F 
ENDBRANCH  10  13
BRANCH   7  18
ATOM     17  C   UNL     1       1.208   3.341  18.352  0.00  0.00    +0.000 C 
ATOM     18  O   UNL     1       1.771   4.562  17.855  0.00  0.00    +0.000 OA
ENDBRANCH   7  18
ENDBRANCH   1  12
BRANCH   4  19
ATOM     19  C   UNL     1       0.866   8.941  21.276  0.00  0.00    +0.000 A 
ATOM     20  C   UNL     1       1.108  10.024  20.419  0.00  0.00    +0.000 A 
ATOM     21  C   UNL     1       0.574  11.297  20.677  0.00  0.00    +0.000 A 
ATOM     22  C   UNL     1      -0.233  11.508  21.791  0.00  0.00    +0.000 A 
ATOM     23  C   UNL     1      -0.499  10.442  22.645  0.00  0.00    +0.000 A 
ATOM     24  C   UNL     1       0.024   9.158  22.373  0.00  0.00    +0.000 A 
BRANCH  22  25
ATOM     25  O   UNL     1      -0.631  12.810  22.022  0.00  0.00    +0.000 OA
BRANCH  25  26
ATOM     26  C   UNL     1      -1.904  13.223  21.693  0.00  0.00    +0.000 A 
ATOM     27  C   UNL     1      -2.598  14.215  22.378  0.00  0.00    +0.000 A 
ATOM     28  C   UNL     1      -3.880  14.521  21.961  0.00  0.00    +0.000 A 
ATOM     29  N   UNL     1      -4.526  13.885  20.963  0.00  0.00    +0.000 NA
ATOM     30  C   UNL     1      -3.858  12.884  20.333  0.00  0.00    +0.000 A 
ATOM     31  C   UNL     1      -2.554  12.523  20.674  0.00  0.00    +0.000 A 
BRANCH  30  32
ATOM     32  C   UNL     1      -4.595  12.090  19.285  0.00  0.00    +0.000 C 
ATOM     33  O   UNL     1      -4.021  11.932  18.203  0.00  0.00    +0.000 OA
ATOM     34  N   UNL     1      -5.864  11.539  19.526  0.00  0.00    +0.000 N 
ATOM     35  C   UNL     1      -6.684  11.756  20.710  0.00  0.00    +0.000 C 
ATOM     36  C   UNL     1      -6.411  10.598  18.561  0.00  0.00    +0.000 C 
ENDBRANCH  30  32
ENDBRANCH  25  26
ENDBRANCH  22  25
ENDBRANCH   4  19
TORSDOF 7
ENDMDL
MODEL 9
REMARK VINA RESULT:      -8.7      1.219      1.595
REMARK  Name = 
REMARK  10 active torsions:
REMARK  status: ('A' for Active; 'I' for Inactive)
REMARK    1  A    between atoms: C_1  and  O_2
REMARK    2  A    between atoms: O_2  and  C_3
REMARK    3  A    between atoms: C_6  and  C_7
REMARK    4  A    between atoms: C_12  and  N_13
REMARK    5  A    between atoms: N_16  and  C_17
REMARK    6  A    between atoms: C_20  and  O_21
REMARK    7  A    between atoms: O_21  and  C_22
REMARK    8  A    between atoms: C_26  and  C_27
REMARK    9  A    between atoms: N_29  and  C_30
REMARK   10  A    between atoms: N_29  and  C_31
REMARK                            x       y       z     vdW  Elec       q    Type
REMARK                         _______ _______ _______ _____ _____    ______ ____
ROOT
ATOM      1  N   UNL     1       2.674   5.785  20.061  0.00  0.00    +0.000 N 
ATOM      2  C   UNL     1       2.077   7.043  20.038  0.00  0.00    +0.000 C 
ATOM      3  O   UNL     1       2.142   7.795  19.071  0.00  0.00    +0.000 OA
ATOM      4  N   UNL     1       1.445   7.376  21.229  0.00  0.00    +0.000 N 
ATOM      5  H   UNL     1       2.263   5.064  20.639  0.00  0.00    +0.000 HD
ATOM      6  H   UNL     1       1.629   6.777  22.019  0.00  0.00    +0.000 HD
ENDROOT
BRANCH   1  12
ATOM      7  C   UNL     1       3.155   4.642  17.924  0.00  0.00    +0.000 A 
ATOM      8  C   UNL     1       4.093   4.144  17.000  0.00  0.00    +0.000 A 
ATOM      9  C   UNL     1       5.455   4.399  17.151  0.00  0.00    +0.000 A 
ATOM     10  C   UNL     1       5.912   5.119  18.253  0.00  0.00    +0.000 A 
ATOM     11  C   UNL     1       4.986   5.523  19.226  0.00  0.00    +0.000 A 
ATOM     12  C   UNL     1       3.604   5.322  19.075  0.00  0.00    +0.000 A 
BRANCH  10  13
ATOM     13  C   UNL     1       7.363   5.500  18.401  0.00  0.00    +0.000 C 
ATOM     14  F   UNL     1       7.682   6.664  17.770  0.00  0.00    +0.000 F 
ATOM     15  F   UNL     1       7.722   5.677  19.702  0.00  0.00    +0.000 F 
ATOM     16  F   UNL     1       8.208   4.559  17.899  0.00  0.00    +0.000 F 
ENDBRANCH  10  13
BRANCH   7  18
ATOM     17  C   UNL     1       1.258   3.261  18.185  0.00  0.00    +0.000 C 
ATOM     18  O   UNL     1       1.796   4.511  17.737  0.00  0.00    +0.000 OA
ENDBRANCH   7  18
ENDBRANCH   1  12
BRANCH   4  19
ATOM     19  C   UNL     1       0.858   8.649  21.510  0.00  0.00    +0.000 A 
ATOM     20  C   UNL     1       1.148   9.815  20.788  0.00  0.00    +0.000 A 
ATOM     21  C   UNL     1       0.622  11.061  21.166  0.00  0.00    +0.000 A 
ATOM     22  C   UNL     1      -0.226  11.162  22.265  0.00  0.00    +0.000 A 
ATOM     23  C   UNL     1      -0.540  10.014  22.984  0.00  0.00    +0.000 A 
ATOM     24  C   UNL     1      -0.025   8.758  22.591  0.00  0.00    +0.000 A 
BRANCH  22  25
ATOM     25  O   UNL     1      -0.615  12.438  22.623  0.00  0.00    +0.000 OA
BRANCH  25  26
ATOM     26  C   UNL     1      -1.772  12.987  22.115  0.00  0.00    +0.000 A 
ATOM     27  C   UNL     1      -1.800  13.926  21.090  0.00  0.00    +0.000 A 
ATOM     28  C   UNL     1      -3.028  14.416  20.686  0.00  0.00    +0.000 A 
ATOM     29  N   UNL     1      -4.203  14.084  21.257  0.00  0.00    +0.000 NA
ATOM     30  C   UNL     1      -4.161  13.203  22.291  0.00  0.00    +0.000 A 
ATOM     31  C   UNL     1      -2.969  12.642  22.749  0.00  0.00    +0.000 A 
BRANCH  30  32
ATOM     32  C   UNL     1      -5.448  12.895  23.012  0.00  0.00    +0.000 C 
ATOM     33  O   UNL     1      -5.451  13.058  24.235  0.00  0.00    +0.000 OA
ATOM     34  N   UNL     1      -6.596  12.460  22.330  0.00  0.00    +0.000 N 
ATOM     35  C   UNL     1      -6.678  12.119  20.916  0.00  0.00    +0.000 C 
ATOM     36  C   UNL     1      -7.858  12.403  23.052  0.00  0.00    +0.000 C 
ENDBRANCH  30  32
ENDBRANCH  25  26
ENDBRANCH  22  25
ENDBRANCH   4  19
TORSDOF 7
ENDMDL
