MODEL 1
REMARK VINA RESULT:      -8.9      0.000      0.000
REMARK  Name = 
REMARK  5 active torsions:
REMARK  status: ('A' for Active; 'I' for Inactive)
REMARK    1  A    between atoms: C_1  and  N_2
REMARK    2  A    between atoms: C_4  and  C_5
REMARK    3  A    between atoms: C_8  and  C_9
REMARK    4  A    between atoms: C_12  and  N_13
REMARK    5  A    between atoms: C_17  and  N_18
REMARK                            x       y       z     vdW  Elec       q    Type
REMARK                         _______ _______ _______ _____ _____    ______ ____
ROOT
ATOM      1  C   UNL     1       1.917   7.379  20.110  0.00  0.00    +0.000 A 
ATOM      2  C   UNL     1       1.321   6.267  20.793  0.00  0.00    +0.000 A 
ATOM      3  N   UNL     1       1.479   4.972  20.472  0.00  0.00    +0.000 NA
ATOM      4  C   UNL     1       2.274   4.788  19.448  0.00  0.00    +0.000 A 
ATOM      5  C   UNL     1       3.311   5.717  19.372  0.00  0.00    +0.000 A 
ATOM      6  C   UNL     1       4.638   5.365  19.574  0.00  0.00    +0.000 A 
ATOM      7  C   UNL     1       5.502   5.435  18.510  0.00  0.00    +0.000 A 
ATOM      8  C   UNL     1       5.005   5.901  17.293  0.00  0.00    +0.000 A 
ATOM      9  C   UNL     1       3.906   6.854  17.540  0.00  0.00    +0.000 A 
ATOM     10  C   UNL     1       2.978   6.933  18.914  0.00  0.00    +0.000 A 
ENDROOT
BRANCH   1  14
ATOM     11  C   UNL     1      -0.362  10.842  22.122  0.00  0.00    +0.000 A 
ATOM     12  C   UNL     1       0.068   9.718  22.810  0.00  0.00    +0.000 A 
ATOM     13  C   UNL     1       0.914   8.759  22.148  0.00  0.00    +0.000 A 
ATOM     14  C   UNL     1       1.308   8.732  20.739  0.00  0.00    +0.000 A 
ATOM     15  C   UNL     1       0.966   9.927  20.120  0.00  0.00    +0.000 A 
ATOM     16  C   UNL     1       0.158  10.945  20.805  0.00  0.00    +0.000 A 
BRANCH  11  20
ATOM     17  C   UNL     1      -4.340  13.239  24.260  0.00  0.00    +0.000 C 
ATOM     18  N   UNL     1      -3.097  12.871  23.611  0.00  0.00    +0.000 N 
ATOM     19  C   UNL     1      -2.518  11.612  23.416  0.00  0.00    +0.000 A 
ATOM     20  C   UNL     1      -1.344  11.811  22.664  0.00  0.00    +0.000 A 
ATOM     21  C   UNL     1      -1.346  13.234  22.502  0.00  0.00    +0.000 A 
ATOM     22  N   UNL     1      -2.378  13.858  23.067  0.00  0.00    +0.000 NA
ENDBRANCH  11  20
ENDBRANCH   1  14
BRANCH   8  23
ATOM     23  N   UNL     1       5.623   5.297  16.085  0.00  0.00    +0.000 N 
ATOM     24  C   UNL     1       5.222   4.095  15.398  0.00  0.00    +0.000 C 
ATOM     25  C   UNL     1       6.292   3.846  14.331  0.00  0.00    +0.000 C 
ATOM     26  O   UNL     1       7.373   4.690  14.673  0.00  0.00    +0.000 OA
ATOM     27  C   UNL     1       6.969   5.557  15.659  0.00  0.00    +0.000 C 
ATOM     28  O   UNL     1       7.762   6.391  16.054  0.00  0.00    +0.000 OA
ENDBRANCH   8  23
BRANCH   4  29
ATOM     29  N   UNL     1       1.500   4.604  18.253  0.00  0.00    +0.000 N 
ATOM     30  H   UNL     1       2.119   4.830  17.474  0.00  0.00    +0.000 HD
ATOM     31  H   UNL     1       1.167   3.649  18.179  0.00  0.00    +0.000 HD
ENDBRANCH   4  29
TORSDOF 4
ENDMDL
MODEL 2
REMARK VINA RESULT:      -8.4      0.965      1.729
REMARK  Name = 
REMARK  5 active torsions:
REMARK  status: ('A' for Active; 'I' for Inactive)
REMARK    1  A    between atoms: C_1  and  N_2
REMARK    2  A    between atoms: C_4  and  C_5
REMARK    3  A    between atoms: C_8  and  C_9
REMARK    4  A    between atoms: C_12  and  N_13
REMARK    5  A    between atoms: C_17  and  N_18
REMARK                            x       y       z     vdW  Elec       q    Type
REMARK                         _______ _______ _______ _____ _____    ______ ____
ROOT
ATOM      1  C   UNL     1       1.807   7.039  20.110  0.00  0.00    +0.000 A 
ATOM      2  C   UNL     1       1.427   5.887  20.875  0.00  0.00    +0.000 A 
ATOM      3  N   UNL     1       1.786   4.618  20.617  0.00  0.00    +0.000 NA
ATOM      4  C   UNL     1       2.563   4.506  19.569  0.00  0.00    +0.000 A 
ATOM      5  C   UNL     1       3.429   5.585  19.398  0.00  0.00    +0.000 A 
ATOM      6  C   UNL     1       4.802   5.467  19.559  0.00  0.00    +0.000 A 
ATOM      7  C   UNL     1       5.605   5.614  18.456  0.00  0.00    +0.000 A 
ATOM      8  C   UNL     1       4.994   5.920  17.239  0.00  0.00    +0.000 A 
ATOM      9  C   UNL     1       3.763   6.694  17.485  0.00  0.00    +0.000 A 
ATOM     10  C   UNL     1       2.883   6.702  18.892  0.00  0.00    +0.000 A 
ENDROOT
BRANCH   1  14
ATOM     11  C   UNL     1       0.048  11.057  21.521  0.00  0.00    +0.000 A 
ATOM     12  C   UNL     1       0.307  10.770  20.189  0.00  0.00    +0.000 A 
ATOM     13  C   UNL     1       0.702   9.438  19.813  0.00  0.00    +0.000 A 
ATOM     14  C   UNL     1       1.005   8.309  20.694  0.00  0.00    +0.000 A 
ATOM     15  C   UNL     1       0.617   8.596  21.996  0.00  0.00    +0.000 A 
ATOM     16  C   UNL     1       0.150   9.933  22.383  0.00  0.00    +0.000 A 
BRANCH  11  20
ATOM     17  C   UNL     1       0.043  16.039  22.670  0.00  0.00    +0.000 C 
ATOM     18  N   UNL     1      -0.232  14.622  22.534  0.00  0.00    +0.000 N 
ATOM     19  C   UNL     1       0.371  13.660  21.718  0.00  0.00    +0.000 A 
ATOM     20  C   UNL     1      -0.226  12.423  22.029  0.00  0.00    +0.000 A 
ATOM     21  C   UNL     1      -1.175  12.807  23.031  0.00  0.00    +0.000 A 
ATOM     22  N   UNL     1      -1.181  14.107  23.323  0.00  0.00    +0.000 NA
ENDBRANCH  11  20
ENDBRANCH   1  14
BRANCH   8  23
ATOM     23  N   UNL     1       5.660   5.354  16.037  0.00  0.00    +0.000 N 
ATOM     24  C   UNL     1       5.295   4.169  15.304  0.00  0.00    +0.000 C 
ATOM     25  C   UNL     1       6.405   3.958  14.269  0.00  0.00    +0.000 C 
ATOM     26  O   UNL     1       7.465   4.801  14.673  0.00  0.00    +0.000 OA
ATOM     27  C   UNL     1       7.018   5.638  15.668  0.00  0.00    +0.000 C 
ATOM     28  O   UNL     1       7.790   6.466  16.114  0.00  0.00    +0.000 OA
ENDBRANCH   8  23
BRANCH   4  29
ATOM     29  N   UNL     1       1.788   4.128  18.421  0.00  0.00    +0.000 N 
ATOM     30  H   UNL     1       2.419   3.612  17.807  0.00  0.00    +0.000 HD
ATOM     31  H   UNL     1       0.999   3.550  18.689  0.00  0.00    +0.000 HD
ENDBRANCH   4  29
TORSDOF 4
ENDMDL
MODEL 3
REMARK VINA RESULT:      -8.2      5.186     10.414
REMARK  Name = 
REMARK  5 active torsions:
REMARK  status: ('A' for Active; 'I' for Inactive)
REMARK    1  A    between atoms: C_1  and  N_2
REMARK    2  A    between atoms: C_4  and  C_5
REMARK    3  A    between atoms: C_8  and  C_9
REMARK    4  A    between atoms: C_12  and  N_13
REMARK    5  A    between atoms: C_17  and  N_18
REMARK                            x       y       z     vdW  Elec       q    Type
REMARK                         _______ _______ _______ _____ _____    ______ ____
ROOT
ATOM      1  C   UNL     1       0.297  10.671  19.216  0.00  0.00    +0.000 A 
ATOM      2  C   UNL     1       1.143  11.830  19.224  0.00  0.00    +0.000 A 
ATOM      3  N   UNL     1       0.746  13.094  19.004  0.00  0.00    +0.000 NA
ATOM      4  C   UNL     1      -0.541  13.200  18.787  0.00  0.00    +0.000 A 
ATOM      5  C   UNL     1      -1.305  12.282  19.507  0.00  0.00    +0.000 A 
ATOM      6  C   UNL     1      -2.156  12.669  20.534  0.00  0.00    +0.000 A 
ATOM      7  C   UNL     1      -3.508  12.518  20.355  0.00  0.00    +0.000 A 
ATOM      8  C   UNL     1      -3.949  11.941  19.164  0.00  0.00    +0.000 A 
ATOM      9  C   UNL     1      -2.931  10.997  18.664  0.00  0.00    +0.000 A 
ATOM     10  C   UNL     1      -1.314  11.026  19.036  0.00  0.00    +0.000 A 
ENDROOT
BRANCH   1  14
ATOM     11  C   UNL     1       2.668   6.724  19.030  0.00  0.00    +0.000 A 
ATOM     12  C   UNL     1       2.697   7.672  18.019  0.00  0.00    +0.000 A 
ATOM     13  C   UNL     1       2.061   8.948  18.223  0.00  0.00    +0.000 A 
ATOM     14  C   UNL     1       1.238   9.370  19.357  0.00  0.00    +0.000 A 
ATOM     15  C   UNL     1       1.336   8.449  20.392  0.00  0.00    +0.000 A 
ATOM     16  C   UNL     1       2.037   7.171  20.222  0.00  0.00    +0.000 A 
BRANCH  11  20
ATOM     17  C   UNL     1       3.285   1.708  18.257  0.00  0.00    +0.000 C 
ATOM     18  N   UNL     1       3.441   3.124  18.525  0.00  0.00    +0.000 N 
ATOM     19  C   UNL     1       2.519   4.171  18.419  0.00  0.00    +0.000 A 
ATOM     20  C   UNL     1       3.167   5.337  18.870  0.00  0.00    +0.000 A 
ATOM     21  C   UNL     1       4.468   4.835  19.194  0.00  0.00    +0.000 A 
ATOM     22  N   UNL     1       4.630   3.529  18.984  0.00  0.00    +0.000 NA
ENDBRANCH  11  20
ENDBRANCH   1  14
BRANCH   8  23
ATOM     23  N   UNL     1      -5.253  12.446  18.662  0.00  0.00    +0.000 N 
ATOM     24  C   UNL     1      -6.417  12.799  19.435  0.00  0.00    +0.000 C 
ATOM     25  C   UNL     1      -7.523  13.094  18.415  0.00  0.00    +0.000 C 
ATOM     26  O   UNL     1      -7.047  12.589  17.183  0.00  0.00    +0.000 OA
ATOM     27  C   UNL     1      -5.722  12.254  17.318  0.00  0.00    +0.000 C 
ATOM     28  O   UNL     1      -5.130  11.836  16.340  0.00  0.00    +0.000 OA
ENDBRANCH   8  23
BRANCH   4  29
ATOM     29  N   UNL     1      -0.798  13.267  17.376  0.00  0.00    +0.000 N 
ATOM     30  H   UNL     1      -1.387  14.088  17.231  0.00  0.00    +0.000 HD
ATOM     31  H   UNL     1       0.067  13.353  16.853  0.00  0.00    +0.000 HD
ENDBRANCH   4  29
TORSDOF 4
ENDMDL
MODEL 4
REMARK VINA RESULT:      -8.0      1.457      2.092
REMARK  Name = 
REMARK  5 active torsions:
REMARK  status: ('A' for Active; 'I' for Inactive)
REMARK    1  A    between atoms: C_1  and  N_2
REMARK    2  A    between atoms: C_4  and  C_5
REMARK    3  A    between atoms: C_8  and  C_9
REMARK    4  A    between atoms: C_12  and  N_13
REMARK    5  A    between atoms: C_17  and  N_18
REMARK                            x       y       z     vdW  Elec       q    Type
REMARK                         _______ _______ _______ _____ _____    ______ ____
ROOT
ATOM      1  C   UNL     1       2.882   6.437  18.755  0.00  0.00    +0.000 A 
ATOM      2  C   UNL     1       2.561   5.274  19.531  0.00  0.00    +0.000 A 
ATOM      3  N   UNL     1       2.828   4.003  19.190  0.00  0.00    +0.000 NA
ATOM      4  C   UNL     1       3.452   3.897  18.043  0.00  0.00    +0.000 A 
ATOM      5  C   UNL     1       4.331   4.949  17.788  0.00  0.00    +0.000 A 
ATOM      6  C   UNL     1       5.707   4.773  17.757  0.00  0.00    +0.000 A 
ATOM      7  C   UNL     1       6.360   4.928  16.559  0.00  0.00    +0.000 A 
ATOM      8  C   UNL     1       5.604   5.298  15.447  0.00  0.00    +0.000 A 
ATOM      9  C   UNL     1       4.451   6.110  15.879  0.00  0.00    +0.000 A 
ATOM     10  C   UNL     1       3.770   6.102  17.393  0.00  0.00    +0.000 A 
ENDROOT
BRANCH   1  14
ATOM     11  C   UNL     1       0.473   9.650  21.014  0.00  0.00    +0.000 A 
ATOM     12  C   UNL     1       0.959   8.503  21.621  0.00  0.00    +0.000 A 
ATOM     13  C   UNL     1       1.840   7.629  20.889  0.00  0.00    +0.000 A 
ATOM     14  C   UNL     1       2.221   7.716  19.479  0.00  0.00    +0.000 A 
ATOM     15  C   UNL     1       1.820   8.934  18.945  0.00  0.00    +0.000 A 
ATOM     16  C   UNL     1       0.975   9.866  19.703  0.00  0.00    +0.000 A 
BRANCH  11  20
ATOM     17  C   UNL     1      -2.980  13.254  22.124  0.00  0.00    +0.000 C 
ATOM     18  N   UNL     1      -2.072  12.124  22.118  0.00  0.00    +0.000 N 
ATOM     19  C   UNL     1      -1.308  11.584  21.078  0.00  0.00    +0.000 A 
ATOM     20  C   UNL     1      -0.545  10.537  21.628  0.00  0.00    +0.000 A 
ATOM     21  C   UNL     1      -0.972  10.559  22.995  0.00  0.00    +0.000 A 
ATOM     22  N   UNL     1      -1.878  11.492  23.280  0.00  0.00    +0.000 NA
ENDBRANCH  11  20
ENDBRANCH   1  14
BRANCH   8  23
ATOM     23  N   UNL     1       6.078   4.749  14.150  0.00  0.00    +0.000 N 
ATOM     24  C   UNL     1       5.544   3.627  13.421  0.00  0.00    +0.000 C 
ATOM     25  C   UNL     1       6.503   3.395  12.248  0.00  0.00    +0.000 C 
ATOM     26  O   UNL     1       7.661   4.147  12.551  0.00  0.00    +0.000 OA
ATOM     27  C   UNL     1       7.398   4.962  13.626  0.00  0.00    +0.000 C 
ATOM     28  O   UNL     1       8.274   5.716  14.005  0.00  0.00    +0.000 OA
ENDBRANCH   8  23
BRANCH   4  29
ATOM     29  N   UNL     1       2.514   3.589  17.001  0.00  0.00    +0.000 N 
ATOM     30  H   UNL     1       2.927   3.934  16.133  0.00  0.00    +0.000 HD
ATOM     31  H   UNL     1       2.348   2.590  16.944  0.00  0.00    +0.000 HD
ENDBRANCH   4  29
TORSDOF 4
ENDMDL
MODEL 5
REMARK VINA RESULT:      -8.0      1.942      3.082
REMARK  Name = 
REMARK  5 active torsions:
REMARK  status: ('A' for Active; 'I' for Inactive)
REMARK    1  A    between atoms: C_1  and  N_2
REMARK    2  A    between atoms: C_4  and  C_5
REMARK    3  A    between atoms: C_8  and  C_9
REMARK    4  A    between atoms: C_12  and  N_13
REMARK    5  A    between atoms: C_17  and  N_18
REMARK                            x       y       z     vdW  Elec       q    Type
REMARK                         _______ _______ _______ _____ _____    ______ ____
ROOT
ATOM      1  C   UNL     1       3.555   5.782  18.715  0.00  0.00    +0.000 A 
ATOM      2  C   UNL     1       3.981   4.825  19.695  0.00  0.00    +0.000 A 
ATOM      3  N   UNL     1       4.786   3.773  19.468  0.00  0.00    +0.000 NA
ATOM      4  C   UNL     1       5.187   3.690  18.225  0.00  0.00    +0.000 A 
ATOM      5  C   UNL     1       5.375   4.930  17.616  0.00  0.00    +0.000 A 
ATOM      6  C   UNL     1       6.632   5.396  17.256  0.00  0.00    +0.000 A 
ATOM      7  C   UNL     1       6.921   5.538  15.922  0.00  0.00    +0.000 A 
ATOM      8  C   UNL     1       5.915   5.245  15.001  0.00  0.00    +0.000 A 
ATOM      9  C   UNL     1       4.597   5.522  15.603  0.00  0.00    +0.000 A 
ATOM     10  C   UNL     1       4.261   5.570  17.228  0.00  0.00    +0.000 A 
ENDROOT
BRANCH   1  14
ATOM     11  C   UNL     1       0.943   9.065  20.620  0.00  0.00    +0.000 A 
ATOM     12  C   UNL     1       1.426   9.140  19.323  0.00  0.00    +0.000 A 
ATOM     13  C   UNL     1       2.096   8.003  18.747  0.00  0.00    +0.000 A 
ATOM     14  C   UNL     1       2.471   6.753  19.408  0.00  0.00    +0.000 A 
ATOM     15  C   UNL     1       1.866   6.667  20.655  0.00  0.00    +0.000 A 
ATOM     16  C   UNL     1       1.124   7.796  21.230  0.00  0.00    +0.000 A 
BRANCH  11  20
ATOM     17  C   UNL     1      -0.541  13.659  22.305  0.00  0.00    +0.000 C 
ATOM     18  N   UNL     1      -0.291  12.247  22.093  0.00  0.00    +0.000 N 
ATOM     19  C   UNL     1       0.311  11.587  21.017  0.00  0.00    +0.000 A 
ATOM     20  C   UNL     1       0.368  10.221  21.351  0.00  0.00    +0.000 A 
ATOM     21  C   UNL     1      -0.251  10.216  22.642  0.00  0.00    +0.000 A 
ATOM     22  N   UNL     1      -0.645  11.412  23.076  0.00  0.00    +0.000 NA
ENDBRANCH  11  20
ENDBRANCH   1  14
BRANCH   8  23
ATOM     23  N   UNL     1       6.384   4.678  13.711  0.00  0.00    +0.000 N 
ATOM     24  C   UNL     1       5.949   3.461  13.073  0.00  0.00    +0.000 C 
ATOM     25  C   UNL     1       6.869   3.270  11.863  0.00  0.00    +0.000 C 
ATOM     26  O   UNL     1       7.945   4.165  12.060  0.00  0.00    +0.000 OA
ATOM     27  C   UNL     1       7.643   5.006  13.103  0.00  0.00    +0.000 C 
ATOM     28  O   UNL     1       8.444   5.876  13.393  0.00  0.00    +0.000 OA
ENDBRANCH   8  23
BRANCH   4  29
ATOM     29  N   UNL     1       4.373   2.749  17.508  0.00  0.00    +0.000 N 
ATOM     30  H   UNL     1       3.760   3.301  16.907  0.00  0.00    +0.000 HD
ATOM     31  H   UNL     1       4.946   2.123  16.953  0.00  0.00    +0.000 HD
ENDBRANCH   4  29
TORSDOF 4
ENDMDL
MODEL 6
REMARK VINA RESULT:      -8.0      4.863     10.741
REMARK  Name = 
REMARK  5 active torsions:
REMARK  status: ('A' for Active; 'I' for Inactive)
REMARK    1  A    between atoms: C_1  and  N_2
REMARK    2  A    between atoms: C_4  and  C_5
REMARK    3  A    between atoms: C_8  and  C_9
REMARK    4  A    between atoms: C_12  and  N_13
REMARK    5  A    between atoms: C_17  and  N_18
REMARK                            x       y       z     vdW  Elec       q    Type
REMARK                         _______ _______ _______ _____ _____    ______ ____
ROOT
ATOM      1  C   UNL     1       0.743  10.923  19.505  0.00  0.00    +0.000 A 
ATOM      2  C   UNL     1       1.560  11.799  18.717  0.00  0.00    +0.000 A 
ATOM      3  N   UNL     1       1.377  13.122  18.567  0.00  0.00    +0.000 NA
ATOM      4  C   UNL     1       0.353  13.580  19.244  0.00  0.00    +0.000 A 
ATOM      5  C   UNL     1       0.144  12.920  20.454  0.00  0.00    +0.000 A 
ATOM      6  C   UNL     1       0.340  13.541  21.680  0.00  0.00    +0.000 A 
ATOM      7  C   UNL     1      -0.752  13.772  22.478  0.00  0.00    +0.000 A 
ATOM      8  C   UNL     1      -1.996  13.328  22.029  0.00  0.00    +0.000 A 
ATOM      9  C   UNL     1      -1.818  12.132  21.183  0.00  0.00    +0.000 A 
ATOM     10  C   UNL     1      -0.432  11.711  20.373  0.00  0.00    +0.000 A 
ENDROOT
BRANCH   1  14
ATOM     11  C   UNL     1       2.581   6.701  19.330  0.00  0.00    +0.000 A 
ATOM     12  C   UNL     1       1.871   7.173  20.423  0.00  0.00    +0.000 A 
ATOM     13  C   UNL     1       1.190   8.439  20.337  0.00  0.00    +0.000 A 
ATOM     14  C   UNL     1       1.242   9.413  19.246  0.00  0.00    +0.000 A 
ATOM     15  C   UNL     1       1.854   8.855  18.131  0.00  0.00    +0.000 A 
ATOM     16  C   UNL     1       2.496   7.536  18.184  0.00  0.00    +0.000 A 
BRANCH  11  20
ATOM     17  C   UNL     1       4.567   2.025  19.904  0.00  0.00    +0.000 C 
ATOM     18  N   UNL     1       4.305   3.420  19.612  0.00  0.00    +0.000 N 
ATOM     19  C   UNL     1       3.114   4.151  19.685  0.00  0.00    +0.000 A 
ATOM     20  C   UNL     1       3.429   5.485  19.363  0.00  0.00    +0.000 A 
ATOM     21  C   UNL     1       4.834   5.393  19.105  0.00  0.00    +0.000 A 
ATOM     22  N   UNL     1       5.348   4.173  19.247  0.00  0.00    +0.000 NA
ENDBRANCH  11  20
ENDBRANCH   1  14
BRANCH   8  23
ATOM     23  N   UNL     1      -3.151  14.171  22.430  0.00  0.00    +0.000 N 
ATOM     24  C   UNL     1      -3.145  15.573  22.762  0.00  0.00    +0.000 C 
ATOM     25  C   UNL     1      -4.559  15.892  23.260  0.00  0.00    +0.000 C 
ATOM     26  O   UNL     1      -5.170  14.638  23.493  0.00  0.00    +0.000 OA
ATOM     27  C   UNL     1      -4.373  13.648  22.974  0.00  0.00    +0.000 C 
ATOM     28  O   UNL     1      -4.762  12.497  23.048  0.00  0.00    +0.000 OA
ENDBRANCH   8  23
BRANCH   4  29
ATOM     29  N   UNL     1      -0.790  13.700  18.383  0.00  0.00    +0.000 N 
ATOM     30  H   UNL     1      -1.552  13.209  18.850  0.00  0.00    +0.000 HD
ATOM     31  H   UNL     1      -1.032  14.674  18.234  0.00  0.00    +0.000 HD
ENDBRANCH   4  29
TORSDOF 4
ENDMDL
MODEL 7
REMARK VINA RESULT:      -7.9      4.877     10.782
REMARK  Name = 
REMARK  5 active torsions:
REMARK  status: ('A' for Active; 'I' for Inactive)
REMARK    1  A    between atoms: C_1  and  N_2
REMARK    2  A    between atoms: C_4  and  C_5
REMARK    3  A    between atoms: C_8  and  C_9
REMARK    4  A    between atoms: C_12  and  N_13
REMARK    5  A    between atoms: C_17  and  N_18
REMARK                            x       y       z     vdW  Elec       q    Type
REMARK                         _______ _______ _______ _____ _____    ______ ____
ROOT
ATOM      1  C   UNL     1       0.788  10.643  19.875  0.00  0.00    +0.000 A 
ATOM      2  C   UNL     1       1.447  11.503  18.935  0.00  0.00    +0.000 A 
ATOM      3  N   UNL     1       1.100  12.771  18.654  0.00  0.00    +0.000 NA
ATOM      4  C   UNL     1       0.075  13.191  19.350  0.00  0.00    +0.000 A 
ATOM      5  C   UNL     1       0.020  12.661  20.639  0.00  0.00    +0.000 A 
ATOM      6  C   UNL     1       0.217  13.441  21.770  0.00  0.00    +0.000 A 
ATOM      7  C   UNL     1      -0.843  13.645  22.617  0.00  0.00    +0.000 A 
ATOM      8  C   UNL     1      -2.051  13.017  22.315  0.00  0.00    +0.000 A 
ATOM      9  C   UNL     1      -1.788  11.755  21.597  0.00  0.00    +0.000 A 
ATOM     10  C   UNL     1      -0.415  11.396  20.736  0.00  0.00    +0.000 A 
ENDROOT
BRANCH   1  14
ATOM     11  C   UNL     1       2.216   6.356  18.972  0.00  0.00    +0.000 A 
ATOM     12  C   UNL     1       2.288   7.388  18.049  0.00  0.00    +0.000 A 
ATOM     13  C   UNL     1       1.974   8.732  18.459  0.00  0.00    +0.000 A 
ATOM     14  C   UNL     1       1.443   9.176  19.749  0.00  0.00    +0.000 A 
ATOM     15  C   UNL     1       1.504   8.143  20.675  0.00  0.00    +0.000 A 
ATOM     16  C   UNL     1       1.885   6.780  20.286  0.00  0.00    +0.000 A 
BRANCH  11  20
ATOM     17  C   UNL     1       3.690   1.487  18.456  0.00  0.00    +0.000 C 
ATOM     18  N   UNL     1       3.027   2.775  18.393  0.00  0.00    +0.000 N 
ATOM     19  C   UNL     1       3.254   3.944  19.126  0.00  0.00    +0.000 A 
ATOM     20  C   UNL     1       2.380   4.925  18.619  0.00  0.00    +0.000 A 
ATOM     21  C   UNL     1       1.685   4.191  17.604  0.00  0.00    +0.000 A 
ATOM     22  N   UNL     1       2.064   2.921  17.477  0.00  0.00    +0.000 NA
ENDBRANCH  11  20
ENDBRANCH   1  14
BRANCH   8  23
ATOM     23  N   UNL     1      -3.271  13.771  22.706  0.00  0.00    +0.000 N 
ATOM     24  C   UNL     1      -3.499  15.189  22.603  0.00  0.00    +0.000 C 
ATOM     25  C   UNL     1      -4.842  15.449  23.295  0.00  0.00    +0.000 C 
ATOM     26  O   UNL     1      -5.129  14.268  24.019  0.00  0.00    +0.000 OA
ATOM     27  C   UNL     1      -4.244  13.286  23.643  0.00  0.00    +0.000 C 
ATOM     28  O   UNL     1      -4.366  12.181  24.137  0.00  0.00    +0.000 OA
ENDBRANCH   8  23
BRANCH   4  29
ATOM     29  N   UNL     1      -1.126  13.083  18.570  0.00  0.00    +0.000 N 
ATOM     30  H   UNL     1      -0.835  13.110  17.592  0.00  0.00    +0.000 HD
ATOM     31  H   UNL     1      -1.614  12.217  18.772  0.00  0.00    +0.000 HD
ENDBRANCH   4  29
TORSDOF 4
ENDMDL
MODEL 8
REMARK VINA RESULT:      -7.9      2.017      3.048
REMARK  Name = 
REMARK  5 active torsions:
REMARK  status: ('A' for Active; 'I' for Inactive)
REMARK    1  A    between atoms: C_1  and  N_2
REMARK    2  A    between atoms: C_4  and  C_5
REMARK    3  A    between atoms: C_8  and  C_9
REMARK    4  A    between atoms: C_12  and  N_13
REMARK    5  A    between atoms: C_17  and  N_18
REMARK                            x       y       z     vdW  Elec       q    Type
REMARK                         _______ _______ _______ _____ _____    ______ ____
ROOT
ATOM      1  C   UNL     1       3.433   5.877  18.895  0.00  0.00    +0.000 A 
ATOM      2  C   UNL     1       3.641   4.808  19.828  0.00  0.00    +0.000 A 
ATOM      3  N   UNL     1       4.370   3.702  19.607  0.00  0.00    +0.000 NA
ATOM      4  C   UNL     1       4.923   3.678  18.420  0.00  0.00    +0.000 A 
ATOM      5  C   UNL     1       5.299   4.937  17.954  0.00  0.00    +0.000 A 
ATOM      6  C   UNL     1       6.628   5.302  17.796  0.00  0.00    +0.000 A 
ATOM      7  C   UNL     1       7.101   5.519  16.526  0.00  0.00    +0.000 A 
ATOM      8  C   UNL     1       6.202   5.402  15.466  0.00  0.00    +0.000 A 
ATOM      9  C   UNL     1       4.847   5.761  15.924  0.00  0.00    +0.000 A 
ATOM     10  C   UNL     1       4.307   5.714  17.493  0.00  0.00    +0.000 A 
ENDROOT
BRANCH   1  14
ATOM     11  C   UNL     1       0.869   9.274  20.660  0.00  0.00    +0.000 A 
ATOM     12  C   UNL     1       1.399   9.314  19.380  0.00  0.00    +0.000 A 
ATOM     13  C   UNL     1       2.050   8.146  18.844  0.00  0.00    +0.000 A 
ATOM     14  C   UNL     1       2.360   6.894  19.535  0.00  0.00    +0.000 A 
ATOM     15  C   UNL     1       1.708   6.847  20.761  0.00  0.00    +0.000 A 
ATOM     16  C   UNL     1       0.985   8.008  21.293  0.00  0.00    +0.000 A 
BRANCH  11  20
ATOM     17  C   UNL     1      -0.501  13.940  22.239  0.00  0.00    +0.000 C 
ATOM     18  N   UNL     1      -0.301  12.517  22.049  0.00  0.00    +0.000 N 
ATOM     19  C   UNL     1       0.325  11.824  21.008  0.00  0.00    +0.000 A 
ATOM     20  C   UNL     1       0.307  10.459  21.353  0.00  0.00    +0.000 A 
ATOM     21  C   UNL     1      -0.375  10.491  22.612  0.00  0.00    +0.000 A 
ATOM     22  N   UNL     1      -0.738  11.706  23.018  0.00  0.00    +0.000 NA
ENDBRANCH  11  20
ENDBRANCH   1  14
BRANCH   8  23
ATOM     23  N   UNL     1       6.784   4.895  14.196  0.00  0.00    +0.000 N 
ATOM     24  C   UNL     1       7.819   5.501  13.398  0.00  0.00    +0.000 C 
ATOM     25  C   UNL     1       7.916   4.654  12.124  0.00  0.00    +0.000 C 
ATOM     26  O   UNL     1       6.753   3.850  12.115  0.00  0.00    +0.000 OA
ATOM     27  C   UNL     1       6.123   3.959  13.331  0.00  0.00    +0.000 C 
ATOM     28  O   UNL     1       5.117   3.300  13.520  0.00  0.00    +0.000 OA
ENDBRANCH   8  23
BRANCH   4  29
ATOM     29  N   UNL     1       4.129   2.883  17.525  0.00  0.00    +0.000 N 
ATOM     30  H   UNL     1       3.155   3.070  17.765  0.00  0.00    +0.000 HD
ATOM     31  H   UNL     1       4.312   3.131  16.559  0.00  0.00    +0.000 HD
ENDBRANCH   4  29
TORSDOF 4
ENDMDL
MODEL 9
REMARK VINA RESULT:      -7.9      4.715     10.852
REMARK  Name = 
REMARK  5 active torsions:
REMARK  status: ('A' for Active; 'I' for Inactive)
REMARK    1  A    between atoms: C_1  and  N_2
REMARK    2  A    between atoms: C_4  and  C_5
REMARK    3  A    between atoms: C_8  and  C_9
REMARK    4  A    between atoms: C_12  and  N_13
REMARK    5  A    between atoms: C_17  and  N_18
REMARK                            x       y       z     vdW  Elec       q    Type
REMARK                         _______ _______ _______ _____ _____    ______ ____
ROOT
ATOM      1  C   UNL     1       0.184  10.801  19.854  0.00  0.00    +0.000 A 
ATOM      2  C   UNL     1      -0.297  11.213  18.567  0.00  0.00    +0.000 A 
ATOM      3  N   UNL     1      -1.198  12.184  18.338  0.00  0.00    +0.000 NA
ATOM      4  C   UNL     1      -1.614  12.769  19.433  0.00  0.00    +0.000 A 
ATOM      5  C   UNL     1      -0.635  12.864  20.421  0.00  0.00    +0.000 A 
ATOM      6  C   UNL     1      -0.092  14.080  20.812  0.00  0.00    +0.000 A 
ATOM      7  C   UNL     1      -0.351  14.535  22.080  0.00  0.00    +0.000 A 
ATOM      8  C   UNL     1      -1.113  13.725  22.922  0.00  0.00    +0.000 A 
ATOM      9  C   UNL     1      -0.899  12.308  22.572  0.00  0.00    +0.000 A 
ATOM     10  C   UNL     1      -0.376  11.738  21.104  0.00  0.00    +0.000 A 
ENDROOT
BRANCH   1  14
ATOM     11  C   UNL     1       2.418   6.938  18.704  0.00  0.00    +0.000 A 
ATOM     12  C   UNL     1       2.280   8.017  17.844  0.00  0.00    +0.000 A 
ATOM     13  C   UNL     1       1.712   9.247  18.332  0.00  0.00    +0.000 A 
ATOM     14  C   UNL     1       1.113   9.501  19.643  0.00  0.00    +0.000 A 
ATOM     15  C   UNL     1       1.381   8.448  20.507  0.00  0.00    +0.000 A 
ATOM     16  C   UNL     1       2.019   7.211  20.039  0.00  0.00    +0.000 A 
BRANCH  11  20
ATOM     17  C   UNL     1       3.186   1.934  17.994  0.00  0.00    +0.000 C 
ATOM     18  N   UNL     1       3.195   3.382  17.950  0.00  0.00    +0.000 N 
ATOM     19  C   UNL     1       2.375   4.311  18.601  0.00  0.00    +0.000 A 
ATOM     20  C   UNL     1       2.857   5.591  18.267  0.00  0.00    +0.000 A 
ATOM     21  C   UNL     1       3.951   5.268  17.402  0.00  0.00    +0.000 A 
ATOM     22  N   UNL     1       4.145   3.964  17.211  0.00  0.00    +0.000 NA
ENDBRANCH  11  20
ENDBRANCH   1  14
BRANCH   8  23
ATOM     23  N   UNL     1      -1.980  14.453  23.885  0.00  0.00    +0.000 N 
ATOM     24  C   UNL     1      -3.367  14.811  23.724  0.00  0.00    +0.000 C 
ATOM     25  C   UNL     1      -3.716  15.686  24.932  0.00  0.00    +0.000 C 
ATOM     26  O   UNL     1      -2.477  16.043  25.513  0.00  0.00    +0.000 OA
ATOM     27  C   UNL     1      -1.480  15.296  24.934  0.00  0.00    +0.000 C 
ATOM     28  O   UNL     1      -0.341  15.441  25.340  0.00  0.00    +0.000 OA
ENDBRANCH   8  23
BRANCH   4  29
ATOM     29  N   UNL     1      -2.872  12.210  19.841  0.00  0.00    +0.000 N 
ATOM     30  H   UNL     1      -3.417  12.982  20.226  0.00  0.00    +0.000 HD
ATOM     31  H   UNL     1      -3.355  11.790  19.054  0.00  0.00    +0.000 HD
ENDBRANCH   4  29
TORSDOF 4
ENDMDL
