MODEL 1
REMARK VINA RESULT:      -8.0      0.000      0.000
REMARK  Name = 
REMARK  4 active torsions:
REMARK  status: ('A' for Active; 'I' for Inactive)
REMARK    1  A    between atoms: C_1  and  C_2
REMARK    2  A    between atoms: C_2  and  O_4
REMARK    3  A    between atoms: O_4  and  N_5
REMARK    4  A    between atoms: C_6  and  C_7
REMARK                            x       y       z     vdW  Elec       q    Type
REMARK                         _______ _______ _______ _____ _____    ______ ____
ROOT
ATOM      1  C   UNL     1       3.328   6.043  18.333  0.00  0.00    +0.000 A 
ATOM      2  C   UNL     1       2.643   7.281  18.564  0.00  0.00    +0.000 A 
ATOM      3  C   UNL     1       2.659   8.415  17.704  0.00  0.00    +0.000 A 
ATOM      4  C   UNL     1       1.989   9.600  18.008  0.00  0.00    +0.000 A 
ATOM      5  C   UNL     1       1.259   9.694  19.180  0.00  0.00    +0.000 A 
ATOM      6  C   UNL     1       1.192   8.596  20.033  0.00  0.00    +0.000 A 
ATOM      7  C   UNL     1       1.862   7.396  19.736  0.00  0.00    +0.000 A 
ATOM      8  C   UNL     1       1.753   6.306  20.610  0.00  0.00    +0.000 A 
ATOM      9  C   UNL     1       2.389   5.084  20.365  0.00  0.00    +0.000 A 
ATOM     10  C   UNL     1       2.228   4.028  21.278  0.00  0.00    +0.000 A 
ATOM     11  C   UNL     1       2.851   2.799  21.078  0.00  0.00    +0.000 A 
ATOM     12  C   UNL     1       3.650   2.615  19.961  0.00  0.00    +0.000 A 
ATOM     13  C   UNL     1       3.825   3.660  19.046  0.00  0.00    +0.000 A 
ATOM     14  C   UNL     1       3.195   4.923  19.215  0.00  0.00    +0.000 A 
ENDROOT
BRANCH   1  16
ATOM     15  N   UNL     1       5.465   6.268  17.215  0.00  0.00    +0.000 NA
ATOM     16  C   UNL     1       4.224   5.909  17.152  0.00  0.00    +0.000 C 
BRANCH  15  17
ATOM     17  O   UNL     1       6.108   6.124  15.975  0.00  0.00    +0.000 OA
BRANCH  17  19
ATOM     18  C   UNL     1       6.423   4.100  14.820  0.00  0.00    +0.000 C 
ATOM     19  C   UNL     1       6.830   4.950  15.983  0.00  0.00    +0.000 C 
ATOM     20  O   UNL     1       7.705   4.621  16.777  0.00  0.00    +0.000 OA
ENDBRANCH  17  19
ENDBRANCH  15  17
ENDBRANCH   1  16
TORSDOF 3
ENDMDL
MODEL 2
REMARK VINA RESULT:      -8.0      0.191      4.134
REMARK  Name = 
REMARK  4 active torsions:
REMARK  status: ('A' for Active; 'I' for Inactive)
REMARK    1  A    between atoms: C_1  and  C_2
REMARK    2  A    between atoms: C_2  and  O_4
REMARK    3  A    between atoms: O_4  and  N_5
REMARK    4  A    between atoms: C_6  and  C_7
REMARK                            x       y       z     vdW  Elec       q    Type
REMARK                         _______ _______ _______ _____ _____    ______ ____
ROOT
ATOM      1  C   UNL     1       3.445   5.921  18.334  0.00  0.00    +0.000 A 
ATOM      2  C   UNL     1       3.339   4.816  19.243  0.00  0.00    +0.000 A 
ATOM      3  C   UNL     1       4.045   3.585  19.143  0.00  0.00    +0.000 A 
ATOM      4  C   UNL     1       3.869   2.541  20.052  0.00  0.00    +0.000 A 
ATOM      5  C   UNL     1       2.991   2.693  21.110  0.00  0.00    +0.000 A 
ATOM      6  C   UNL     1       2.304   3.896  21.262  0.00  0.00    +0.000 A 
ATOM      7  C   UNL     1       2.475   4.954  20.353  0.00  0.00    +0.000 A 
ATOM      8  C   UNL     1       1.781   6.156  20.550  0.00  0.00    +0.000 A 
ATOM      9  C   UNL     1       1.915   7.248  19.686  0.00  0.00    +0.000 A 
ATOM     10  C   UNL     1       1.200   8.428  19.950  0.00  0.00    +0.000 A 
ATOM     11  C   UNL     1       1.296   9.535  19.110  0.00  0.00    +0.000 A 
ATOM     12  C   UNL     1       2.108   9.470  17.990  0.00  0.00    +0.000 A 
ATOM     13  C   UNL     1       2.822   8.299  17.710  0.00  0.00    +0.000 A 
ATOM     14  C   UNL     1       2.755   7.156  18.552  0.00  0.00    +0.000 A 
ENDROOT
BRANCH   1  16
ATOM     15  N   UNL     1       5.520   6.158  17.107  0.00  0.00    +0.000 NA
ATOM     16  C   UNL     1       4.282   5.785  17.110  0.00  0.00    +0.000 C 
BRANCH  15  17
ATOM     17  O   UNL     1       6.101   6.009  15.837  0.00  0.00    +0.000 OA
BRANCH  17  19
ATOM     18  C   UNL     1       6.300   3.952  14.716  0.00  0.00    +0.000 C 
ATOM     19  C   UNL     1       6.816   4.831  15.813  0.00  0.00    +0.000 C 
ATOM     20  O   UNL     1       7.759   4.519  16.532  0.00  0.00    +0.000 OA
ENDBRANCH  17  19
ENDBRANCH  15  17
ENDBRANCH   1  16
TORSDOF 3
ENDMDL
MODEL 3
REMARK VINA RESULT:      -7.8      2.472      5.649
REMARK  Name = 
REMARK  4 active torsions:
REMARK  status: ('A' for Active; 'I' for Inactive)
REMARK    1  A    between atoms: C_1  and  C_2
REMARK    2  A    between atoms: C_2  and  O_4
REMARK    3  A    between atoms: O_4  and  N_5
REMARK    4  A    between atoms: C_6  and  C_7
REMARK                            x       y       z     vdW  Elec       q    Type
REMARK                         _______ _______ _______ _____ _____    ______ ____
ROOT
ATOM      1  C   UNL     1       3.342   5.782  18.095  0.00  0.00    +0.000 A 
ATOM      2  C   UNL     1       2.649   4.795  18.871  0.00  0.00    +0.000 A 
ATOM      3  C   UNL     1       1.667   5.057  19.866  0.00  0.00    +0.000 A 
ATOM      4  C   UNL     1       1.053   4.044  20.603  0.00  0.00    +0.000 A 
ATOM      5  C   UNL     1       1.386   2.723  20.362  0.00  0.00    +0.000 A 
ATOM      6  C   UNL     1       2.319   2.422  19.373  0.00  0.00    +0.000 A 
ATOM      7  C   UNL     1       2.943   3.435  18.624  0.00  0.00    +0.000 A 
ATOM      8  C   UNL     1       3.863   3.092  17.624  0.00  0.00    +0.000 A 
ATOM      9  C   UNL     1       4.509   4.053  16.839  0.00  0.00    +0.000 A 
ATOM     10  C   UNL     1       5.412   3.638  15.845  0.00  0.00    +0.000 A 
ATOM     11  C   UNL     1       6.084   4.562  15.049  0.00  0.00    +0.000 A 
ATOM     12  C   UNL     1       5.864   5.916  15.245  0.00  0.00    +0.000 A 
ATOM     13  C   UNL     1       4.973   6.344  16.235  0.00  0.00    +0.000 A 
ATOM     14  C   UNL     1       4.263   5.428  17.058  0.00  0.00    +0.000 A 
ENDROOT
BRANCH   1  16
ATOM     15  N   UNL     1       2.164   7.879  17.805  0.00  0.00    +0.000 NA
ATOM     16  C   UNL     1       3.121   7.227  18.380  0.00  0.00    +0.000 C 
BRANCH  15  17
ATOM     17  O   UNL     1       2.178   9.237  18.160  0.00  0.00    +0.000 OA
BRANCH  17  19
ATOM     18  C   UNL     1      -0.046  10.000  18.208  0.00  0.00    +0.000 C 
ATOM     19  C   UNL     1       1.115   9.487  19.002  0.00  0.00    +0.000 C 
ATOM     20  O   UNL     1       1.066   9.300  20.213  0.00  0.00    +0.000 OA
ENDBRANCH  17  19
ENDBRANCH  15  17
ENDBRANCH   1  16
TORSDOF 3
ENDMDL
MODEL 4
REMARK VINA RESULT:      -7.7      2.508      5.266
REMARK  Name = 
REMARK  4 active torsions:
REMARK  status: ('A' for Active; 'I' for Inactive)
REMARK    1  A    between atoms: C_1  and  C_2
REMARK    2  A    between atoms: C_2  and  O_4
REMARK    3  A    between atoms: O_4  and  N_5
REMARK    4  A    between atoms: C_6  and  C_7
REMARK                            x       y       z     vdW  Elec       q    Type
REMARK                         _______ _______ _______ _____ _____    ______ ____
ROOT
ATOM      1  C   UNL     1       3.306   5.893  18.106  0.00  0.00    +0.000 A 
ATOM      2  C   UNL     1       4.236   5.528  17.078  0.00  0.00    +0.000 A 
ATOM      3  C   UNL     1       5.036   6.430  16.321  0.00  0.00    +0.000 A 
ATOM      4  C   UNL     1       5.903   6.003  15.314  0.00  0.00    +0.000 A 
ATOM      5  C   UNL     1       6.017   4.653  15.033  0.00  0.00    +0.000 A 
ATOM      6  C   UNL     1       5.274   3.736  15.773  0.00  0.00    +0.000 A 
ATOM      7  C   UNL     1       4.400   4.155  16.791  0.00  0.00    +0.000 A 
ATOM      8  C   UNL     1       3.685   3.200  17.527  0.00  0.00    +0.000 A 
ATOM      9  C   UNL     1       2.807   3.553  18.557  0.00  0.00    +0.000 A 
ATOM     10  C   UNL     1       2.131   2.543  19.264  0.00  0.00    +0.000 A 
ATOM     11  C   UNL     1       1.241   2.851  20.289  0.00  0.00    +0.000 A 
ATOM     12  C   UNL     1       1.012   4.177  20.615  0.00  0.00    +0.000 A 
ATOM     13  C   UNL     1       1.673   5.195  19.917  0.00  0.00    +0.000 A 
ATOM     14  C   UNL     1       2.595   4.915  18.873  0.00  0.00    +0.000 A 
ENDROOT
BRANCH   1  16
ATOM     15  N   UNL     1       2.163   7.991  17.705  0.00  0.00    +0.000 NA
ATOM     16  C   UNL     1       3.045   7.332  18.383  0.00  0.00    +0.000 C 
BRANCH  15  17
ATOM     17  O   UNL     1       2.128   9.344  18.079  0.00  0.00    +0.000 OA
BRANCH  17  19
ATOM     18  C   UNL     1       0.850   9.841  19.989  0.00  0.00    +0.000 C 
ATOM     19  C   UNL     1       0.854   9.654  18.503  0.00  0.00    +0.000 C 
ATOM     20  O   UNL     1      -0.146   9.801  17.809  0.00  0.00    +0.000 OA
ENDBRANCH  17  19
ENDBRANCH  15  17
ENDBRANCH   1  16
TORSDOF 3
ENDMDL
MODEL 5
REMARK VINA RESULT:      -7.5      2.909      6.017
REMARK  Name = 
REMARK  4 active torsions:
REMARK  status: ('A' for Active; 'I' for Inactive)
REMARK    1  A    between atoms: C_1  and  C_2
REMARK    2  A    between atoms: C_2  and  O_4
REMARK    3  A    between atoms: O_4  and  N_5
REMARK    4  A    between atoms: C_6  and  C_7
REMARK                            x       y       z     vdW  Elec       q    Type
REMARK                         _______ _______ _______ _____ _____    ______ ____
ROOT
ATOM      1  C   UNL     1       2.884   5.843  18.522  0.00  0.00    +0.000 A 
ATOM      2  C   UNL     1       2.403   4.691  19.228  0.00  0.00    +0.000 A 
ATOM      3  C   UNL     1       1.411   4.695  20.249  0.00  0.00    +0.000 A 
ATOM      4  C   UNL     1       1.012   3.535  20.914  0.00  0.00    +0.000 A 
ATOM      5  C   UNL     1       1.578   2.319  20.572  0.00  0.00    +0.000 A 
ATOM      6  C   UNL     1       2.529   2.269  19.556  0.00  0.00    +0.000 A 
ATOM      7  C   UNL     1       2.937   3.431  18.878  0.00  0.00    +0.000 A 
ATOM      8  C   UNL     1       3.882   3.337  17.848  0.00  0.00    +0.000 A 
ATOM      9  C   UNL     1       4.322   4.455  17.131  0.00  0.00    +0.000 A 
ATOM     10  C   UNL     1       5.263   4.288  16.101  0.00  0.00    +0.000 A 
ATOM     11  C   UNL     1       5.735   5.374  15.370  0.00  0.00    +0.000 A 
ATOM     12  C   UNL     1       5.272   6.646  15.667  0.00  0.00    +0.000 A 
ATOM     13  C   UNL     1       4.340   6.830  16.695  0.00  0.00    +0.000 A 
ATOM     14  C   UNL     1       3.830   5.741  17.453  0.00  0.00    +0.000 A 
ENDROOT
BRANCH   1  16
ATOM     15  N   UNL     1       2.121   7.471  20.146  0.00  0.00    +0.000 NA
ATOM     16  C   UNL     1       2.405   7.197  18.915  0.00  0.00    +0.000 C 
BRANCH  15  17
ATOM     17  O   UNL     1       1.624   8.776  20.285  0.00  0.00    +0.000 OA
BRANCH  17  19
ATOM     18  C   UNL     1      -0.270   8.404  21.628  0.00  0.00    +0.000 C 
ATOM     19  C   UNL     1       1.130   8.930  21.562  0.00  0.00    +0.000 C 
ATOM     20  O   UNL     1       1.719   9.386  22.536  0.00  0.00    +0.000 OA
ENDBRANCH  17  19
ENDBRANCH  15  17
ENDBRANCH   1  16
TORSDOF 3
ENDMDL
MODEL 6
REMARK VINA RESULT:      -7.4      2.683      4.897
REMARK  Name = 
REMARK  4 active torsions:
REMARK  status: ('A' for Active; 'I' for Inactive)
REMARK    1  A    between atoms: C_1  and  C_2
REMARK    2  A    between atoms: C_2  and  O_4
REMARK    3  A    between atoms: O_4  and  N_5
REMARK    4  A    between atoms: C_6  and  C_7
REMARK                            x       y       z     vdW  Elec       q    Type
REMARK                         _______ _______ _______ _____ _____    ______ ____
ROOT
ATOM      1  C   UNL     1       3.885   5.201  18.342  0.00  0.00    +0.000 A 
ATOM      2  C   UNL     1       3.163   6.402  18.643  0.00  0.00    +0.000 A 
ATOM      3  C   UNL     1       2.370   6.629  19.803  0.00  0.00    +0.000 A 
ATOM      4  C   UNL     1       1.670   7.818  20.015  0.00  0.00    +0.000 A 
ATOM      5  C   UNL     1       1.750   8.837  19.082  0.00  0.00    +0.000 A 
ATOM      6  C   UNL     1       2.541   8.666  17.949  0.00  0.00    +0.000 A 
ATOM      7  C   UNL     1       3.251   7.473  17.726  0.00  0.00    +0.000 A 
ATOM      8  C   UNL     1       4.053   7.347  16.583  0.00  0.00    +0.000 A 
ATOM      9  C   UNL     1       4.790   6.190  16.310  0.00  0.00    +0.000 A 
ATOM     10  C   UNL     1       5.583   6.135  15.151  0.00  0.00    +0.000 A 
ATOM     11  C   UNL     1       6.324   4.999  14.836  0.00  0.00    +0.000 A 
ATOM     12  C   UNL     1       6.273   3.899  15.677  0.00  0.00    +0.000 A 
ATOM     13  C   UNL     1       5.482   3.936  16.831  0.00  0.00    +0.000 A 
ATOM     14  C   UNL     1       4.723   5.083  17.188  0.00  0.00    +0.000 A 
ENDROOT
BRANCH   1  16
ATOM     15  N   UNL     1       2.841   3.128  19.039  0.00  0.00    +0.000 NA
ATOM     16  C   UNL     1       3.754   4.021  19.242  0.00  0.00    +0.000 C 
BRANCH  15  17
ATOM     17  O   UNL     1       2.849   2.144  20.041  0.00  0.00    +0.000 OA
BRANCH  17  19
ATOM     18  C   UNL     1       0.851   3.200  20.690  0.00  0.00    +0.000 C 
ATOM     19  C   UNL     1       2.157   2.619  21.134  0.00  0.00    +0.000 C 
ATOM     20  O   UNL     1       2.499   2.565  22.311  0.00  0.00    +0.000 OA
ENDBRANCH  17  19
ENDBRANCH  15  17
ENDBRANCH   1  16
TORSDOF 3
ENDMDL
MODEL 7
REMARK VINA RESULT:      -7.3      2.786      5.811
REMARK  Name = 
REMARK  4 active torsions:
REMARK  status: ('A' for Active; 'I' for Inactive)
REMARK    1  A    between atoms: C_1  and  C_2
REMARK    2  A    between atoms: C_2  and  O_4
REMARK    3  A    between atoms: O_4  and  N_5
REMARK    4  A    between atoms: C_6  and  C_7
REMARK                            x       y       z     vdW  Elec       q    Type
REMARK                         _______ _______ _______ _____ _____    ______ ____
ROOT
ATOM      1  C   UNL     1       3.269   5.874  18.647  0.00  0.00    +0.000 A 
ATOM      2  C   UNL     1       2.734   4.776  19.400  0.00  0.00    +0.000 A 
ATOM      3  C   UNL     1       1.399   4.666  19.878  0.00  0.00    +0.000 A 
ATOM      4  C   UNL     1       0.956   3.577  20.630  0.00  0.00    +0.000 A 
ATOM      5  C   UNL     1       1.829   2.544  20.920  0.00  0.00    +0.000 A 
ATOM      6  C   UNL     1       3.136   2.598  20.442  0.00  0.00    +0.000 A 
ATOM      7  C   UNL     1       3.592   3.689  19.683  0.00  0.00    +0.000 A 
ATOM      8  C   UNL     1       4.909   3.698  19.203  0.00  0.00    +0.000 A 
ATOM      9  C   UNL     1       5.418   4.750  18.435  0.00  0.00    +0.000 A 
ATOM     10  C   UNL     1       6.745   4.689  17.976  0.00  0.00    +0.000 A 
ATOM     11  C   UNL     1       7.295   5.719  17.218  0.00  0.00    +0.000 A 
ATOM     12  C   UNL     1       6.522   6.829  16.915  0.00  0.00    +0.000 A 
ATOM     13  C   UNL     1       5.201   6.907  17.371  0.00  0.00    +0.000 A 
ATOM     14  C   UNL     1       4.606   5.869  18.138  0.00  0.00    +0.000 A 
ENDROOT
BRANCH   1  16
ATOM     15  N   UNL     1       2.206   7.941  19.330  0.00  0.00    +0.000 NA
ATOM     16  C   UNL     1       2.421   7.072  18.397  0.00  0.00    +0.000 C 
BRANCH  15  17
ATOM     17  O   UNL     1       1.328   8.951  18.905  0.00  0.00    +0.000 OA
BRANCH  17  19
ATOM     18  C   UNL     1       0.754   8.644  21.165  0.00  0.00    +0.000 C 
ATOM     19  C   UNL     1       0.827   9.598  20.013  0.00  0.00    +0.000 C 
ATOM     20  O   UNL     1       0.509  10.780  20.103  0.00  0.00    +0.000 OA
ENDBRANCH  17  19
ENDBRANCH  15  17
ENDBRANCH   1  16
TORSDOF 3
ENDMDL
MODEL 8
REMARK VINA RESULT:      -7.3      2.696      5.283
REMARK  Name = 
REMARK  4 active torsions:
REMARK  status: ('A' for Active; 'I' for Inactive)
REMARK    1  A    between atoms: C_1  and  C_2
REMARK    2  A    between atoms: C_2  and  O_4
REMARK    3  A    between atoms: O_4  and  N_5
REMARK    4  A    between atoms: C_6  and  C_7
REMARK                            x       y       z     vdW  Elec       q    Type
REMARK                         _______ _______ _______ _____ _____    ______ ____
ROOT
ATOM      1  C   UNL     1       3.000   5.708  18.084  0.00  0.00    +0.000 A 
ATOM      2  C   UNL     1       4.094   5.513  17.176  0.00  0.00    +0.000 A 
ATOM      3  C   UNL     1       4.680   6.514  16.352  0.00  0.00    +0.000 A 
ATOM      4  C   UNL     1       5.727   6.243  15.470  0.00  0.00    +0.000 A 
ATOM      5  C   UNL     1       6.242   4.962  15.389  0.00  0.00    +0.000 A 
ATOM      6  C   UNL     1       5.717   3.961  16.203  0.00  0.00    +0.000 A 
ATOM      7  C   UNL     1       4.664   4.223  17.096  0.00  0.00    +0.000 A 
ATOM      8  C   UNL     1       4.175   3.194  17.913  0.00  0.00    +0.000 A 
ATOM      9  C   UNL     1       3.136   3.394  18.828  0.00  0.00    +0.000 A 
ATOM     10  C   UNL     1       2.703   2.321  19.625  0.00  0.00    +0.000 A 
ATOM     11  C   UNL     1       1.665   2.474  20.540  0.00  0.00    +0.000 A 
ATOM     12  C   UNL     1       1.042   3.705  20.663  0.00  0.00    +0.000 A 
ATOM     13  C   UNL     1       1.457   4.782  19.870  0.00  0.00    +0.000 A 
ATOM     14  C   UNL     1       2.520   4.663  18.935  0.00  0.00    +0.000 A 
ENDROOT
BRANCH   1  16
ATOM     15  N   UNL     1       2.299   7.724  19.231  0.00  0.00    +0.000 NA
ATOM     16  C   UNL     1       2.320   7.032  18.139  0.00  0.00    +0.000 C 
BRANCH  15  17
ATOM     17  O   UNL     1       1.548   8.901  19.083  0.00  0.00    +0.000 OA
BRANCH  17  19
ATOM     18  C   UNL     1       1.089   8.142  21.261  0.00  0.00    +0.000 C 
ATOM     19  C   UNL     1       1.117   9.311  20.326  0.00  0.00    +0.000 C 
ATOM     20  O   UNL     1       0.824  10.451  20.672  0.00  0.00    +0.000 OA
ENDBRANCH  17  19
ENDBRANCH  15  17
ENDBRANCH   1  16
TORSDOF 3
ENDMDL
MODEL 9
REMARK VINA RESULT:      -7.3      2.681      5.691
REMARK  Name = 
REMARK  4 active torsions:
REMARK  status: ('A' for Active; 'I' for Inactive)
REMARK    1  A    between atoms: C_1  and  C_2
REMARK    2  A    between atoms: C_2  and  O_4
REMARK    3  A    between atoms: O_4  and  N_5
REMARK    4  A    between atoms: C_6  and  C_7
REMARK                            x       y       z     vdW  Elec       q    Type
REMARK                         _______ _______ _______ _____ _____    ______ ____
ROOT
ATOM      1  C   UNL     1       3.862   5.199  18.290  0.00  0.00    +0.000 A 
ATOM      2  C   UNL     1       4.669   5.049  17.114  0.00  0.00    +0.000 A 
ATOM      3  C   UNL     1       5.345   3.862  16.713  0.00  0.00    +0.000 A 
ATOM      4  C   UNL     1       6.137   3.798  15.567  0.00  0.00    +0.000 A 
ATOM      5  C   UNL     1       6.273   4.916  14.764  0.00  0.00    +0.000 A 
ATOM      6  C   UNL     1       5.602   6.088  15.104  0.00  0.00    +0.000 A 
ATOM      7  C   UNL     1       4.800   6.163  16.255  0.00  0.00    +0.000 A 
ATOM      8  C   UNL     1       4.124   7.355  16.553  0.00  0.00    +0.000 A 
ATOM      9  C   UNL     1       3.305   7.489  17.679  0.00  0.00    +0.000 A 
ATOM     10  C   UNL     1       2.646   8.709  17.912  0.00  0.00    +0.000 A 
ATOM     11  C   UNL     1       1.830   8.888  19.025  0.00  0.00    +0.000 A 
ATOM     12  C   UNL     1       1.668   7.847  19.924  0.00  0.00    +0.000 A 
ATOM     13  C   UNL     1       2.322   6.628  19.710  0.00  0.00    +0.000 A 
ATOM     14  C   UNL     1       3.153   6.408  18.578  0.00  0.00    +0.000 A 
ENDROOT
BRANCH   1  16
ATOM     15  N   UNL     1       2.937   3.099  19.068  0.00  0.00    +0.000 NA
ATOM     16  C   UNL     1       3.764   4.074  19.260  0.00  0.00    +0.000 C 
BRANCH  15  17
ATOM     17  O   UNL     1       2.956   2.186  20.134  0.00  0.00    +0.000 OA
BRANCH  17  19
ATOM     18  C   UNL     1       0.846   3.109  20.609  0.00  0.00    +0.000 C 
ATOM     19  C   UNL     1       2.173   2.680  21.155  0.00  0.00    +0.000 C 
ATOM     20  O   UNL     1       2.458   2.745  22.346  0.00  0.00    +0.000 OA
ENDBRANCH  17  19
ENDBRANCH  15  17
ENDBRANCH   1  16
TORSDOF 3
ENDMDL
