MODEL 1
REMARK VINA RESULT:      -8.1      0.000      0.000
REMARK  Name = 
REMARK  6 active torsions:
REMARK  status: ('A' for Active; 'I' for Inactive)
REMARK    1  A    between atoms: C_1  and  C_2
REMARK    2  A    between atoms: C_3  and  C_4
REMARK    3  A    between atoms: C_8  and  C_9
REMARK    4  A    between atoms: N_14  and  C_15
REMARK    5  A    between atoms: C_23  and  C_24
REMARK    6  A    between atoms: C_26  and  O_27
REMARK                            x       y       z     vdW  Elec       q    Type
REMARK                         _______ _______ _______ _____ _____    ______ ____
ROOT
ATOM      1  C   UNL     1       2.469   8.937  17.514  0.00  0.00    +0.000 C 
ATOM      2  C   UNL     1       2.016   8.192  18.747  0.00  0.00    +0.000 A 
ATOM      3  C   UNL     1       1.124   8.680  19.638  0.00  0.00    +0.000 A 
ATOM      4  C   UNL     1       0.723   7.900  20.847  0.00  0.00    +0.000 A 
ATOM      5  O   UNL     1      -0.082   8.326  21.670  0.00  0.00    +0.000 OA
ATOM      6  O   UNL     1       1.298   6.650  21.010  0.00  0.00    +0.000 OA
ATOM      7  C   UNL     1       2.234   6.117  20.101  0.00  0.00    +0.000 A 
ATOM      8  C   UNL     1       2.772   4.849  20.370  0.00  0.00    +0.000 A 
ATOM      9  C   UNL     1       3.700   4.303  19.485  0.00  0.00    +0.000 A 
ATOM     10  C   UNL     1       4.089   5.015  18.357  0.00  0.00    +0.000 A 
ATOM     11  C   UNL     1       3.545   6.276  18.104  0.00  0.00    +0.000 A 
ATOM     12  C   UNL     1       2.605   6.854  18.975  0.00  0.00    +0.000 A 
ENDROOT
BRANCH   3  13
ATOM     13  C   UNL     1       0.508  10.010  19.451  0.00  0.00    +0.000 A 
ATOM     14  C   UNL     1       1.040  11.143  20.071  0.00  0.00    +0.000 A 
ATOM     15  C   UNL     1       0.412  12.387  19.949  0.00  0.00    +0.000 A 
ATOM     16  C   UNL     1      -0.755  12.512  19.196  0.00  0.00    +0.000 A 
ATOM     17  C   UNL     1      -1.279  11.390  18.551  0.00  0.00    +0.000 A 
ATOM     18  C   UNL     1      -0.625  10.153  18.649  0.00  0.00    +0.000 A 
BRANCH  17  19
ATOM     19  C   UNL     1      -2.497  11.537  17.713  0.00  0.00    +0.000 C 
ATOM     20  O   UNL     1      -2.369  11.498  16.491  0.00  0.00    +0.000 OA
ATOM     21  N   UNL     1      -3.735  11.672  18.350  0.00  0.00    +0.000 N 
ATOM     22  C   UNL     1      -4.899  11.741  17.465  0.00  0.00    +0.000 C 
ATOM     23  C   UNL     1      -6.229  11.548  18.217  0.00  0.00    +0.000 C 
ATOM     24  N   UNL     1      -6.395  12.389  19.423  0.00  0.00    +0.000 NA
ATOM     25  C   UNL     1      -6.602  13.793  19.074  0.00  0.00    +0.000 C 
ATOM     26  C   UNL     1      -5.221  12.220  20.295  0.00  0.00    +0.000 C 
ATOM     27  C   UNL     1      -3.871  12.442  19.597  0.00  0.00    +0.000 C 
ENDBRANCH  17  19
ENDBRANCH   3  13
BRANCH   8  28
ATOM     28  C   UNL     1       2.352   4.105  21.570  0.00  0.00    +0.000 C 
ATOM     29  O   UNL     1       1.741   3.033  21.467  0.00  0.00    +0.000 OA
ENDBRANCH   8  28
BRANCH   9  30
ATOM     30  O   UNL     1       4.276   3.077  19.658  0.00  0.00    +0.000 OA
ATOM     31  H   UNL     1       3.684   2.396  19.268  0.00  0.00    +0.000 HD
ENDBRANCH   9  30
TORSDOF 4
ENDMDL
MODEL 2
REMARK VINA RESULT:      -8.1      3.319      5.336
REMARK  Name = 
REMARK  6 active torsions:
REMARK  status: ('A' for Active; 'I' for Inactive)
REMARK    1  A    between atoms: C_1  and  C_2
REMARK    2  A    between atoms: C_3  and  C_4
REMARK    3  A    between atoms: C_8  and  C_9
REMARK    4  A    between atoms: N_14  and  C_15
REMARK    5  A    between atoms: C_23  and  C_24
REMARK    6  A    between atoms: C_26  and  O_27
REMARK                            x       y       z     vdW  Elec       q    Type
REMARK                         _______ _______ _______ _____ _____    ______ ____
ROOT
ATOM      1  C   UNL     1       2.010   9.619  17.823  0.00  0.00    +0.000 C 
ATOM      2  C   UNL     1       1.708   8.756  19.024  0.00  0.00    +0.000 A 
ATOM      3  C   UNL     1       1.008   9.179  20.100  0.00  0.00    +0.000 A 
ATOM      4  C   UNL     1       0.750   8.281  21.267  0.00  0.00    +0.000 A 
ATOM      5  O   UNL     1       0.120   8.646  22.254  0.00  0.00    +0.000 OA
ATOM      6  O   UNL     1       1.254   6.992  21.192  0.00  0.00    +0.000 OA
ATOM      7  C   UNL     1       1.991   6.524  20.087  0.00  0.00    +0.000 A 
ATOM      8  C   UNL     1       2.473   5.206  20.120  0.00  0.00    +0.000 A 
ATOM      9  C   UNL     1       3.207   4.723  19.038  0.00  0.00    +0.000 A 
ATOM     10  C   UNL     1       3.460   5.545  17.946  0.00  0.00    +0.000 A 
ATOM     11  C   UNL     1       2.974   6.854  17.928  0.00  0.00    +0.000 A 
ATOM     12  C   UNL     1       2.230   7.371  19.003  0.00  0.00    +0.000 A 
ENDROOT
BRANCH   3  13
ATOM     13  C   UNL     1       0.466  10.552  20.167  0.00  0.00    +0.000 A 
ATOM     14  C   UNL     1      -0.817  10.844  19.698  0.00  0.00    +0.000 A 
ATOM     15  C   UNL     1      -1.297  12.157  19.698  0.00  0.00    +0.000 A 
ATOM     16  C   UNL     1      -0.499  13.195  20.177  0.00  0.00    +0.000 A 
ATOM     17  C   UNL     1       0.774  12.910  20.673  0.00  0.00    +0.000 A 
ATOM     18  C   UNL     1       1.236  11.585  20.703  0.00  0.00    +0.000 A 
BRANCH  17  19
ATOM     19  C   UNL     1       1.604  14.012  21.225  0.00  0.00    +0.000 C 
ATOM     20  O   UNL     1       1.235  14.550  22.266  0.00  0.00    +0.000 OA
ATOM     21  N   UNL     1       2.783  14.359  20.558  0.00  0.00    +0.000 N 
ATOM     22  C   UNL     1       3.587  15.405  21.194  0.00  0.00    +0.000 C 
ATOM     23  C   UNL     1       5.008  15.500  20.610  0.00  0.00    +0.000 C 
ATOM     24  N   UNL     1       5.077  15.566  19.134  0.00  0.00    +0.000 NA
ATOM     25  C   UNL     1       4.603  16.854  18.632  0.00  0.00    +0.000 C 
ATOM     26  C   UNL     1       4.302  14.450  18.564  0.00  0.00    +0.000 C 
ATOM     27  C   UNL     1       2.864  14.339  19.088  0.00  0.00    +0.000 C 
ENDBRANCH  17  19
ENDBRANCH   3  13
BRANCH   8  28
ATOM     28  C   UNL     1       2.199   4.346  21.284  0.00  0.00    +0.000 C 
ATOM     29  O   UNL     1       1.510   3.325  21.166  0.00  0.00    +0.000 OA
ENDBRANCH   8  28
BRANCH   9  30
ATOM     30  O   UNL     1       3.715   3.457  18.976  0.00  0.00    +0.000 OA
ATOM     31  H   UNL     1       4.669   3.515  18.747  0.00  0.00    +0.000 HD
ENDBRANCH   9  30
TORSDOF 4
ENDMDL
MODEL 3
REMARK VINA RESULT:      -7.9      3.381      5.614
REMARK  Name = 
REMARK  6 active torsions:
REMARK  status: ('A' for Active; 'I' for Inactive)
REMARK    1  A    between atoms: C_1  and  C_2
REMARK    2  A    between atoms: C_3  and  C_4
REMARK    3  A    between atoms: C_8  and  C_9
REMARK    4  A    between atoms: N_14  and  C_15
REMARK    5  A    between atoms: C_23  and  C_24
REMARK    6  A    between atoms: C_26  and  O_27
REMARK                            x       y       z     vdW  Elec       q    Type
REMARK                         _______ _______ _______ _____ _____    ______ ____
ROOT
ATOM      1  C   UNL     1       0.629   7.878  21.566  0.00  0.00    +0.000 C 
ATOM      2  C   UNL     1       1.386   7.833  20.261  0.00  0.00    +0.000 A 
ATOM      3  C   UNL     1       1.420   8.852  19.374  0.00  0.00    +0.000 A 
ATOM      4  C   UNL     1       2.178   8.744  18.091  0.00  0.00    +0.000 A 
ATOM      5  O   UNL     1       2.220   9.656  17.271  0.00  0.00    +0.000 OA
ATOM      6  O   UNL     1       2.852   7.557  17.855  0.00  0.00    +0.000 OA
ATOM      7  C   UNL     1       2.830   6.476  18.758  0.00  0.00    +0.000 A 
ATOM      8  C   UNL     1       3.531   5.309  18.413  0.00  0.00    +0.000 A 
ATOM      9  C   UNL     1       3.522   4.226  19.291  0.00  0.00    +0.000 A 
ATOM     10  C   UNL     1       2.820   4.306  20.488  0.00  0.00    +0.000 A 
ATOM     11  C   UNL     1       2.127   5.474  20.816  0.00  0.00    +0.000 A 
ATOM     12  C   UNL     1       2.118   6.583  19.953  0.00  0.00    +0.000 A 
ENDROOT
BRANCH   3  13
ATOM     13  C   UNL     1       0.707  10.119  19.638  0.00  0.00    +0.000 A 
ATOM     14  C   UNL     1      -0.641  10.269  19.304  0.00  0.00    +0.000 A 
ATOM     15  C   UNL     1      -1.292  11.492  19.490  0.00  0.00    +0.000 A 
ATOM     16  C   UNL     1      -0.601  12.580  20.022  0.00  0.00    +0.000 A 
ATOM     17  C   UNL     1       0.739  12.432  20.384  0.00  0.00    +0.000 A 
ATOM     18  C   UNL     1       1.376  11.192  20.227  0.00  0.00    +0.000 A 
BRANCH  17  19
ATOM     19  C   UNL     1       1.459  13.581  20.992  0.00  0.00    +0.000 C 
ATOM     20  O   UNL     1       1.036  14.033  22.054  0.00  0.00    +0.000 OA
ATOM     21  N   UNL     1       2.604  14.067  20.353  0.00  0.00    +0.000 N 
ATOM     22  C   UNL     1       3.303  15.152  21.044  0.00  0.00    +0.000 C 
ATOM     23  C   UNL     1       4.712  15.406  20.477  0.00  0.00    +0.000 C 
ATOM     24  N   UNL     1       4.781  15.546  19.007  0.00  0.00    +0.000 NA
ATOM     25  C   UNL     1       4.192  16.806  18.559  0.00  0.00    +0.000 C 
ATOM     26  C   UNL     1       4.118  14.391  18.379  0.00  0.00    +0.000 C 
ATOM     27  C   UNL     1       2.693  14.121  18.885  0.00  0.00    +0.000 C 
ENDBRANCH  17  19
ENDBRANCH   3  13
BRANCH   8  28
ATOM     28  C   UNL     1       4.271   5.237  17.142  0.00  0.00    +0.000 C 
ATOM     29  O   UNL     1       4.281   4.195  16.475  0.00  0.00    +0.000 OA
ENDBRANCH   8  28
BRANCH   9  30
ATOM     30  O   UNL     1       4.175   3.052  19.047  0.00  0.00    +0.000 OA
ATOM     31  H   UNL     1       3.889   2.392  19.716  0.00  0.00    +0.000 HD
ENDBRANCH   9  30
TORSDOF 4
ENDMDL
MODEL 4
REMARK VINA RESULT:      -7.9      1.568      2.435
REMARK  Name = 
REMARK  6 active torsions:
REMARK  status: ('A' for Active; 'I' for Inactive)
REMARK    1  A    between atoms: C_1  and  C_2
REMARK    2  A    between atoms: C_3  and  C_4
REMARK    3  A    between atoms: C_8  and  C_9
REMARK    4  A    between atoms: N_14  and  C_15
REMARK    5  A    between atoms: C_23  and  C_24
REMARK    6  A    between atoms: C_26  and  O_27
REMARK                            x       y       z     vdW  Elec       q    Type
REMARK                         _______ _______ _______ _____ _____    ______ ____
ROOT
ATOM      1  C   UNL     1       0.364   8.166  21.458  0.00  0.00    +0.000 C 
ATOM      2  C   UNL     1       1.212   8.085  20.211  0.00  0.00    +0.000 A 
ATOM      3  C   UNL     1       1.310   9.079  19.301  0.00  0.00    +0.000 A 
ATOM      4  C   UNL     1       2.157   8.937  18.078  0.00  0.00    +0.000 A 
ATOM      5  O   UNL     1       2.258   9.825  17.238  0.00  0.00    +0.000 OA
ATOM      6  O   UNL     1       2.844   7.744  17.924  0.00  0.00    +0.000 OA
ATOM      7  C   UNL     1       2.757   6.688  18.853  0.00  0.00    +0.000 A 
ATOM      8  C   UNL     1       3.480   5.513  18.592  0.00  0.00    +0.000 A 
ATOM      9  C   UNL     1       3.407   4.455  19.497  0.00  0.00    +0.000 A 
ATOM     10  C   UNL     1       2.621   4.568  20.637  0.00  0.00    +0.000 A 
ATOM     11  C   UNL     1       1.908   5.744  20.883  0.00  0.00    +0.000 A 
ATOM     12  C   UNL     1       1.962   6.828  19.991  0.00  0.00    +0.000 A 
ENDROOT
BRANCH   3  13
ATOM     13  C   UNL     1       0.581  10.353  19.478  0.00  0.00    +0.000 A 
ATOM     14  C   UNL     1       1.155  11.420  20.172  0.00  0.00    +0.000 A 
ATOM     15  C   UNL     1       0.434  12.597  20.398  0.00  0.00    +0.000 A 
ATOM     16  C   UNL     1      -0.872  12.721  19.924  0.00  0.00    +0.000 A 
ATOM     17  C   UNL     1      -1.444  11.669  19.206  0.00  0.00    +0.000 A 
ATOM     18  C   UNL     1      -0.703  10.506  18.953  0.00  0.00    +0.000 A 
BRANCH  17  19
ATOM     19  C   UNL     1      -2.819  11.823  18.664  0.00  0.00    +0.000 C 
ATOM     20  O   UNL     1      -2.978  11.725  17.449  0.00  0.00    +0.000 OA
ATOM     21  N   UNL     1      -3.872  12.031  19.561  0.00  0.00    +0.000 N 
ATOM     22  C   UNL     1      -5.207  12.102  18.965  0.00  0.00    +0.000 C 
ATOM     23  C   UNL     1      -6.332  11.992  20.011  0.00  0.00    +0.000 C 
ATOM     24  N   UNL     1      -6.193  12.891  21.178  0.00  0.00    +0.000 NA
ATOM     25  C   UNL     1      -6.440  14.284  20.814  0.00  0.00    +0.000 C 
ATOM     26  C   UNL     1      -4.854  12.718  21.765  0.00  0.00    +0.000 C 
ATOM     27  C   UNL     1      -3.697  12.859  20.765  0.00  0.00    +0.000 C 
ENDBRANCH  17  19
ENDBRANCH   3  13
BRANCH   8  28
ATOM     28  C   UNL     1       4.308   5.406  17.379  0.00  0.00    +0.000 C 
ATOM     29  O   UNL     1       4.321   4.363  16.713  0.00  0.00    +0.000 OA
ENDBRANCH   8  28
BRANCH   9  30
ATOM     30  O   UNL     1       4.074   3.275  19.332  0.00  0.00    +0.000 OA
ATOM     31  H   UNL     1       5.031   3.433  19.490  0.00  0.00    +0.000 HD
ENDBRANCH   9  30
TORSDOF 4
ENDMDL
MODEL 5
REMARK VINA RESULT:      -7.7      3.122      4.693
REMARK  Name = 
REMARK  6 active torsions:
REMARK  status: ('A' for Active; 'I' for Inactive)
REMARK    1  A    between atoms: C_1  and  C_2
REMARK    2  A    between atoms: C_3  and  C_4
REMARK    3  A    between atoms: C_8  and  C_9
REMARK    4  A    between atoms: N_14  and  C_15
REMARK    5  A    between atoms: C_23  and  C_24
REMARK    6  A    between atoms: C_26  and  O_27
REMARK                            x       y       z     vdW  Elec       q    Type
REMARK                         _______ _______ _______ _____ _____    ______ ____
ROOT
ATOM      1  C   UNL     1       1.881  10.009  17.800  0.00  0.00    +0.000 C 
ATOM      2  C   UNL     1       1.578   9.082  18.952  0.00  0.00    +0.000 A 
ATOM      3  C   UNL     1       0.749   9.394  19.974  0.00  0.00    +0.000 A 
ATOM      4  C   UNL     1       0.498   8.438  21.095  0.00  0.00    +0.000 A 
ATOM      5  O   UNL     1      -0.248   8.703  22.032  0.00  0.00    +0.000 OA
ATOM      6  O   UNL     1       1.143   7.214  21.036  0.00  0.00    +0.000 OA
ATOM      7  C   UNL     1       2.016   6.862  19.987  0.00  0.00    +0.000 A 
ATOM      8  C   UNL     1       2.636   5.604  20.033  0.00  0.00    +0.000 A 
ATOM      9  C   UNL     1       3.504   5.235  19.006  0.00  0.00    +0.000 A 
ATOM     10  C   UNL     1       3.754   6.112  17.958  0.00  0.00    +0.000 A 
ATOM     11  C   UNL     1       3.130   7.362  17.927  0.00  0.00    +0.000 A 
ATOM     12  C   UNL     1       2.248   7.762  18.945  0.00  0.00    +0.000 A 
ENDROOT
BRANCH   3  13
ATOM     13  C   UNL     1       0.057  10.699  20.024  0.00  0.00    +0.000 A 
ATOM     14  C   UNL     1      -1.190  10.875  19.420  0.00  0.00    +0.000 A 
ATOM     15  C   UNL     1      -1.808  12.129  19.409  0.00  0.00    +0.000 A 
ATOM     16  C   UNL     1      -1.187  13.223  20.012  0.00  0.00    +0.000 A 
ATOM     17  C   UNL     1       0.047  13.049  20.642  0.00  0.00    +0.000 A 
ATOM     18  C   UNL     1       0.645  11.781  20.679  0.00  0.00    +0.000 A 
BRANCH  17  19
ATOM     19  C   UNL     1       0.684  14.207  21.322  0.00  0.00    +0.000 C 
ATOM     20  O   UNL     1       0.670  14.237  22.550  0.00  0.00    +0.000 OA
ATOM     21  N   UNL     1       1.305  15.184  20.537  0.00  0.00    +0.000 N 
ATOM     22  C   UNL     1       1.974  16.257  21.275  0.00  0.00    +0.000 C 
ATOM     23  C   UNL     1       2.909  17.097  20.385  0.00  0.00    +0.000 C 
ATOM     24  N   UNL     1       2.308  17.579  19.123  0.00  0.00    +0.000 NA
ATOM     25  C   UNL     1       1.320  18.629  19.365  0.00  0.00    +0.000 C 
ATOM     26  C   UNL     1       1.713  16.439  18.404  0.00  0.00    +0.000 C 
ATOM     27  C   UNL     1       0.742  15.594  19.241  0.00  0.00    +0.000 C 
ENDBRANCH  17  19
ENDBRANCH   3  13
BRANCH   8  28
ATOM     28  C   UNL     1       2.363   4.684  21.150  0.00  0.00    +0.000 C 
ATOM     29  O   UNL     1       1.870   3.568  20.943  0.00  0.00    +0.000 OA
ENDBRANCH   8  28
BRANCH   9  30
ATOM     30  O   UNL     1       4.151   4.034  18.960  0.00  0.00    +0.000 OA
ATOM     31  H   UNL     1       5.101   4.198  18.770  0.00  0.00    +0.000 HD
ENDBRANCH   9  30
TORSDOF 4
ENDMDL
MODEL 6
REMARK VINA RESULT:      -7.7      1.417      1.642
REMARK  Name = 
REMARK  6 active torsions:
REMARK  status: ('A' for Active; 'I' for Inactive)
REMARK    1  A    between atoms: C_1  and  C_2
REMARK    2  A    between atoms: C_3  and  C_4
REMARK    3  A    between atoms: C_8  and  C_9
REMARK    4  A    between atoms: N_14  and  C_15
REMARK    5  A    between atoms: C_23  and  C_24
REMARK    6  A    between atoms: C_26  and  O_27
REMARK                            x       y       z     vdW  Elec       q    Type
REMARK                         _______ _______ _______ _____ _____    ______ ____
ROOT
ATOM      1  C   UNL     1       1.895   9.950  17.741  0.00  0.00    +0.000 C 
ATOM      2  C   UNL     1       1.622   9.046  18.918  0.00  0.00    +0.000 A 
ATOM      3  C   UNL     1       0.846   9.391  19.970  0.00  0.00    +0.000 A 
ATOM      4  C   UNL     1       0.622   8.457  21.114  0.00  0.00    +0.000 A 
ATOM      5  O   UNL     1      -0.076   8.751  22.079  0.00  0.00    +0.000 OA
ATOM      6  O   UNL     1       1.237   7.217  21.045  0.00  0.00    +0.000 OA
ATOM      7  C   UNL     1       2.056   6.832  19.965  0.00  0.00    +0.000 A 
ATOM      8  C   UNL     1       2.648   5.560  20.003  0.00  0.00    +0.000 A 
ATOM      9  C   UNL     1       3.463   5.158  18.946  0.00  0.00    +0.000 A 
ATOM     10  C   UNL     1       3.686   6.014  17.875  0.00  0.00    +0.000 A 
ATOM     11  C   UNL     1       3.090   7.277  17.852  0.00  0.00    +0.000 A 
ATOM     12  C   UNL     1       2.262   7.712  18.902  0.00  0.00    +0.000 A 
ENDROOT
BRANCH   3  13
ATOM     13  C   UNL     1       0.185  10.712  20.031  0.00  0.00    +0.000 A 
ATOM     14  C   UNL     1       0.878  11.844  20.464  0.00  0.00    +0.000 A 
ATOM     15  C   UNL     1       0.229  13.076  20.588  0.00  0.00    +0.000 A 
ATOM     16  C   UNL     1      -1.124  13.191  20.270  0.00  0.00    +0.000 A 
ATOM     17  C   UNL     1      -1.818  12.070  19.810  0.00  0.00    +0.000 A 
ATOM     18  C   UNL     1      -1.152  10.846  19.655  0.00  0.00    +0.000 A 
BRANCH  17  19
ATOM     19  C   UNL     1      -3.248  12.207  19.429  0.00  0.00    +0.000 C 
ATOM     20  O   UNL     1      -3.535  12.181  18.235  0.00  0.00    +0.000 OA
ATOM     21  N   UNL     1      -4.202  12.319  20.446  0.00  0.00    +0.000 N 
ATOM     22  C   UNL     1      -5.596  12.378  20.002  0.00  0.00    +0.000 C 
ATOM     23  C   UNL     1      -6.596  12.160  21.152  0.00  0.00    +0.000 C 
ATOM     24  N   UNL     1      -6.359  12.987  22.355  0.00  0.00    +0.000 NA
ATOM     25  C   UNL     1      -6.685  14.391  22.114  0.00  0.00    +0.000 C 
ATOM     26  C   UNL     1      -4.958  12.828  22.783  0.00  0.00    +0.000 C 
ATOM     27  C   UNL     1      -3.922  13.075  21.677  0.00  0.00    +0.000 C 
ENDBRANCH  17  19
ENDBRANCH   3  13
BRANCH   8  28
ATOM     28  C   UNL     1       2.404   4.662  21.145  0.00  0.00    +0.000 C 
ATOM     29  O   UNL     1       1.930   3.532  20.969  0.00  0.00    +0.000 OA
ENDBRANCH   8  28
BRANCH   9  30
ATOM     30  O   UNL     1       4.080   3.941  18.890  0.00  0.00    +0.000 OA
ATOM     31  H   UNL     1       4.025   3.522  19.777  0.00  0.00    +0.000 HD
ENDBRANCH   9  30
TORSDOF 4
ENDMDL
MODEL 7
REMARK VINA RESULT:      -7.7      3.322      5.198
REMARK  Name = 
REMARK  6 active torsions:
REMARK  status: ('A' for Active; 'I' for Inactive)
REMARK    1  A    between atoms: C_1  and  C_2
REMARK    2  A    between atoms: C_3  and  C_4
REMARK    3  A    between atoms: C_8  and  C_9
REMARK    4  A    between atoms: N_14  and  C_15
REMARK    5  A    between atoms: C_23  and  C_24
REMARK    6  A    between atoms: C_26  and  O_27
REMARK                            x       y       z     vdW  Elec       q    Type
REMARK                         _______ _______ _______ _____ _____    ______ ____
ROOT
ATOM      1  C   UNL     1       0.173   8.338  21.479  0.00  0.00    +0.000 C 
ATOM      2  C   UNL     1       1.039   8.390  20.243  0.00  0.00    +0.000 A 
ATOM      3  C   UNL     1       1.087   9.446  19.401  0.00  0.00    +0.000 A 
ATOM      4  C   UNL     1       1.954   9.435  18.184  0.00  0.00    +0.000 A 
ATOM      5  O   UNL     1       2.010  10.381  17.406  0.00  0.00    +0.000 OA
ATOM      6  O   UNL     1       2.715   8.299  17.964  0.00  0.00    +0.000 OA
ATOM      7  C   UNL     1       2.682   7.181  18.821  0.00  0.00    +0.000 A 
ATOM      8  C   UNL     1       3.478   6.071  18.495  0.00  0.00    +0.000 A 
ATOM      9  C   UNL     1       3.459   4.954  19.329  0.00  0.00    +0.000 A 
ATOM     10  C   UNL     1       2.656   4.944  20.462  0.00  0.00    +0.000 A 
ATOM     11  C   UNL     1       1.869   6.056  20.772  0.00  0.00    +0.000 A 
ATOM     12  C   UNL     1       1.866   7.198  19.954  0.00  0.00    +0.000 A 
ENDROOT
BRANCH   3  13
ATOM     13  C   UNL     1       0.279  10.659  19.649  0.00  0.00    +0.000 A 
ATOM     14  C   UNL     1      -1.031  10.760  19.177  0.00  0.00    +0.000 A 
ATOM     15  C   UNL     1      -1.766  11.937  19.353  0.00  0.00    +0.000 A 
ATOM     16  C   UNL     1      -1.198  13.026  20.012  0.00  0.00    +0.000 A 
ATOM     17  C   UNL     1       0.102  12.925  20.511  0.00  0.00    +0.000 A 
ATOM     18  C   UNL     1       0.821  11.729  20.362  0.00  0.00    +0.000 A 
BRANCH  17  19
ATOM     19  C   UNL     1       0.688  14.072  21.253  0.00  0.00    +0.000 C 
ATOM     20  O   UNL     1       0.614  14.067  22.479  0.00  0.00    +0.000 OA
ATOM     21  N   UNL     1       1.329  15.080  20.526  0.00  0.00    +0.000 N 
ATOM     22  C   UNL     1       1.945  16.142  21.324  0.00  0.00    +0.000 C 
ATOM     23  C   UNL     1       2.907  17.020  20.503  0.00  0.00    +0.000 C 
ATOM     24  N   UNL     1       2.359  17.528  19.227  0.00  0.00    +0.000 NA
ATOM     25  C   UNL     1       1.345  18.557  19.450  0.00  0.00    +0.000 C 
ATOM     26  C   UNL     1       1.818  16.400  18.450  0.00  0.00    +0.000 C 
ATOM     27  C   UNL     1       0.822  15.518  19.216  0.00  0.00    +0.000 C 
ENDBRANCH  17  19
ENDBRANCH   3  13
BRANCH   8  28
ATOM     28  C   UNL     1       4.324   6.094  17.291  0.00  0.00    +0.000 C 
ATOM     29  O   UNL     1       5.504   5.722  17.340  0.00  0.00    +0.000 OA
ENDBRANCH   8  28
BRANCH   9  30
ATOM     30  O   UNL     1       4.199   3.829  19.098  0.00  0.00    +0.000 OA
ATOM     31  H   UNL     1       3.593   3.055  19.087  0.00  0.00    +0.000 HD
ENDBRANCH   9  30
TORSDOF 4
ENDMDL
MODEL 8
REMARK VINA RESULT:      -7.6      2.525      3.388
REMARK  Name = 
REMARK  6 active torsions:
REMARK  status: ('A' for Active; 'I' for Inactive)
REMARK    1  A    between atoms: C_1  and  C_2
REMARK    2  A    between atoms: C_3  and  C_4
REMARK    3  A    between atoms: C_8  and  C_9
REMARK    4  A    between atoms: N_14  and  C_15
REMARK    5  A    between atoms: C_23  and  C_24
REMARK    6  A    between atoms: C_26  and  O_27
REMARK                            x       y       z     vdW  Elec       q    Type
REMARK                         _______ _______ _______ _____ _____    ______ ____
ROOT
ATOM      1  C   UNL     1       0.709  11.645  18.658  0.00  0.00    +0.000 C 
ATOM      2  C   UNL     1       0.640  10.485  19.622  0.00  0.00    +0.000 A 
ATOM      3  C   UNL     1      -0.036  10.517  20.792  0.00  0.00    +0.000 A 
ATOM      4  C   UNL     1      -0.058   9.340  21.713  0.00  0.00    +0.000 A 
ATOM      5  O   UNL     1      -0.663   9.349  22.780  0.00  0.00    +0.000 OA
ATOM      6  O   UNL     1       0.638   8.212  21.309  0.00  0.00    +0.000 OA
ATOM      7  C   UNL     1       1.356   8.152  20.098  0.00  0.00    +0.000 A 
ATOM      8  C   UNL     1       2.045   6.967  19.794  0.00  0.00    +0.000 A 
ATOM      9  C   UNL     1       2.763   6.885  18.602  0.00  0.00    +0.000 A 
ATOM     10  C   UNL     1       2.798   7.971  17.735  0.00  0.00    +0.000 A 
ATOM     11  C   UNL     1       2.108   9.143  18.053  0.00  0.00    +0.000 A 
ATOM     12  C   UNL     1       1.374   9.257  19.246  0.00  0.00    +0.000 A 
ENDROOT
BRANCH   3  13
ATOM     13  C   UNL     1      -0.785  11.721  21.210  0.00  0.00    +0.000 A 
ATOM     14  C   UNL     1      -0.160  12.743  21.929  0.00  0.00    +0.000 A 
ATOM     15  C   UNL     1      -0.889  13.846  22.383  0.00  0.00    +0.000 A 
ATOM     16  C   UNL     1      -2.254  13.943  22.115  0.00  0.00    +0.000 A 
ATOM     17  C   UNL     1      -2.881  12.939  21.374  0.00  0.00    +0.000 A 
ATOM     18  C   UNL     1      -2.137  11.853  20.892  0.00  0.00    +0.000 A 
BRANCH  17  19
ATOM     19  C   UNL     1      -4.326  13.069  21.052  0.00  0.00    +0.000 C 
ATOM     20  O   UNL     1      -4.638  13.411  19.914  0.00  0.00    +0.000 OA
ATOM     21  N   UNL     1      -5.262  12.757  22.044  0.00  0.00    +0.000 N 
ATOM     22  C   UNL     1      -6.666  12.837  21.637  0.00  0.00    +0.000 C 
ATOM     23  C   UNL     1      -7.617  12.167  22.646  0.00  0.00    +0.000 C 
ATOM     24  N   UNL     1      -7.421  12.571  24.056  0.00  0.00    +0.000 NA
ATOM     25  C   UNL     1      -7.870  13.942  24.289  0.00  0.00    +0.000 C 
ATOM     26  C   UNL     1      -6.003  12.402  24.414  0.00  0.00    +0.000 C 
ATOM     27  C   UNL     1      -5.017  13.088  23.457  0.00  0.00    +0.000 C 
ENDBRANCH  17  19
ENDBRANCH   3  13
BRANCH   8  28
ATOM     28  C   UNL     1       2.000   5.824  20.721  0.00  0.00    +0.000 C 
ATOM     29  O   UNL     1       1.510   4.743  20.369  0.00  0.00    +0.000 OA
ENDBRANCH   8  28
BRANCH   9  30
ATOM     30  O   UNL     1       3.461   5.777  18.216  0.00  0.00    +0.000 OA
ATOM     31  H   UNL     1       2.833   5.138  17.812  0.00  0.00    +0.000 HD
ENDBRANCH   9  30
TORSDOF 4
ENDMDL
MODEL 9
REMARK VINA RESULT:      -7.6      3.247      4.179
REMARK  Name = 
REMARK  6 active torsions:
REMARK  status: ('A' for Active; 'I' for Inactive)
REMARK    1  A    between atoms: C_1  and  C_2
REMARK    2  A    between atoms: C_3  and  C_4
REMARK    3  A    between atoms: C_8  and  C_9
REMARK    4  A    between atoms: N_14  and  C_15
REMARK    5  A    between atoms: C_23  and  C_24
REMARK    6  A    between atoms: C_26  and  O_27
REMARK                            x       y       z     vdW  Elec       q    Type
REMARK                         _______ _______ _______ _____ _____    ______ ____
ROOT
ATOM      1  C   UNL     1       1.903   9.977  17.857  0.00  0.00    +0.000 C 
ATOM      2  C   UNL     1       1.580   9.049  19.003  0.00  0.00    +0.000 A 
ATOM      3  C   UNL     1       0.740   9.363  20.014  0.00  0.00    +0.000 A 
ATOM      4  C   UNL     1       0.470   8.406  21.129  0.00  0.00    +0.000 A 
ATOM      5  O   UNL     1      -0.287   8.673  22.058  0.00  0.00    +0.000 OA
ATOM      6  O   UNL     1       1.110   7.179  21.076  0.00  0.00    +0.000 OA
ATOM      7  C   UNL     1       1.995   6.825  20.038  0.00  0.00    +0.000 A 
ATOM      8  C   UNL     1       2.607   5.563  20.089  0.00  0.00    +0.000 A 
ATOM      9  C   UNL     1       3.487   5.193  19.073  0.00  0.00    +0.000 A 
ATOM     10  C   UNL     1       3.755   6.071  18.030  0.00  0.00    +0.000 A 
ATOM     11  C   UNL     1       3.137   7.324  17.993  0.00  0.00    +0.000 A 
ATOM     12  C   UNL     1       2.244   7.726  19.001  0.00  0.00    +0.000 A 
ENDROOT
BRANCH   3  13
ATOM     13  C   UNL     1       0.054  10.671  20.058  0.00  0.00    +0.000 A 
ATOM     14  C   UNL     1      -1.117  10.894  19.330  0.00  0.00    +0.000 A 
ATOM     15  C   UNL     1      -1.723  12.154  19.319  0.00  0.00    +0.000 A 
ATOM     16  C   UNL     1      -1.167  13.206  20.045  0.00  0.00    +0.000 A 
ATOM     17  C   UNL     1      -0.012  12.985  20.798  0.00  0.00    +0.000 A 
ATOM     18  C   UNL     1       0.571  11.710  20.833  0.00  0.00    +0.000 A 
BRANCH  17  19
ATOM     19  C   UNL     1       0.552  14.097  21.607  0.00  0.00    +0.000 C 
ATOM     20  O   UNL     1       1.734  14.392  21.443  0.00  0.00    +0.000 OA
ATOM     21  N   UNL     1      -0.295  14.781  22.485  0.00  0.00    +0.000 N 
ATOM     22  C   UNL     1       0.309  15.910  23.196  0.00  0.00    +0.000 C 
ATOM     23  C   UNL     1      -0.738  16.814  23.873  0.00  0.00    +0.000 C 
ATOM     24  N   UNL     1      -1.739  16.105  24.699  0.00  0.00    +0.000 NA
ATOM     25  C   UNL     1      -1.148  15.585  25.930  0.00  0.00    +0.000 C 
ATOM     26  C   UNL     1      -2.350  15.028  23.901  0.00  0.00    +0.000 C 
ATOM     27  C   UNL     1      -1.344  14.077  23.238  0.00  0.00    +0.000 C 
ENDBRANCH  17  19
ENDBRANCH   3  13
BRANCH   8  28
ATOM     28  C   UNL     1       2.315   4.642  21.201  0.00  0.00    +0.000 C 
ATOM     29  O   UNL     1       1.962   3.477  20.979  0.00  0.00    +0.000 OA
ENDBRANCH   8  28
BRANCH   9  30
ATOM     30  O   UNL     1       4.128   3.988  19.033  0.00  0.00    +0.000 OA
ATOM     31  H   UNL     1       3.718   3.439  18.329  0.00  0.00    +0.000 HD
ENDBRANCH   9  30
TORSDOF 4
ENDMDL
