MODEL 1
REMARK VINA RESULT:      -8.5      0.000      0.000
REMARK  Name = 
REMARK  10 active torsions:
REMARK  status: ('A' for Active; 'I' for Inactive)
REMARK    1  A    between atoms: C_1  and  O_2
REMARK    2  A    between atoms: O_2  and  C_3
REMARK    3  A    between atoms: C_3  and  C_5
REMARK    4  A    between atoms: C_5  and  C_6
REMARK    5  A    between atoms: C_5  and  C_23
REMARK    6  A    between atoms: C_6  and  C_8
REMARK    7  A    between atoms: N_10  and  C_11
REMARK    8  A    between atoms: C_14  and  N_15
REMARK    9  A    between atoms: C_19  and  N_20
REMARK   10  A    between atoms: C_33  and  O_34
REMARK                            x       y       z     vdW  Elec       q    Type
REMARK                         _______ _______ _______ _____ _____    ______ ____
ROOT
ATOM      1  C   UNL     1       3.232   3.432  19.734  0.00  0.00    +0.000 C 
ENDROOT
BRANCH   1   2
ATOM      2  C   UNL     1       2.571   4.771  19.831  0.00  0.00    +0.000 A 
ATOM      3  N   UNL     1       2.963   5.760  18.999  0.00  0.00    +0.000 NA
ATOM      4  C   UNL     1       2.373   6.956  19.201  0.00  0.00    +0.000 A 
ATOM      5  C   UNL     1       2.316   7.895  18.190  0.00  0.00    +0.000 A 
ATOM      6  C   UNL     1       1.712   9.132  18.407  0.00  0.00    +0.000 A 
ATOM      7  C   UNL     1       1.314   9.479  19.695  0.00  0.00    +0.000 A 
ATOM      8 CL   UNL     1       0.726  11.061  20.013  0.00  0.00    +0.000 Cl
ATOM      9  C   UNL     1       1.314   8.524  20.701  0.00  0.00    +0.000 A 
ATOM     10  C   UNL     1       1.668   7.224  20.393  0.00  0.00    +0.000 A 
ATOM     11  N   UNL     1       1.201   6.209  21.131  0.00  0.00    +0.000 NA
ATOM     12  C   UNL     1       1.500   4.987  20.672  0.00  0.00    +0.000 A 
BRANCH  12  13
ATOM     13  O   UNL     1       0.389   4.203  20.405  0.00  0.00    +0.000 OA
ATOM     14  H   UNL     1      -0.371   4.665  20.819  0.00  0.00    +0.000 HD
ENDBRANCH  12  13
ENDBRANCH   1   2
BRANCH   1  15
ATOM     15  C   UNL     1       3.067   2.582  20.974  0.00  0.00    +0.000 C 
ATOM     16  O   UNL     1       1.989   2.303  21.482  0.00  0.00    +0.000 OA
BRANCH  15  18
ATOM     17  C   UNL     1       4.981   1.252  20.634  0.00  0.00    +0.000 C 
ATOM     18  O   UNL     1       4.280   2.191  21.456  0.00  0.00    +0.000 OA
ENDBRANCH  15  18
ENDBRANCH   1  15
BRANCH   1  19
ATOM     19  C   UNL     1       2.752   2.691  18.521  0.00  0.00    +0.000 C 
ATOM     20  O   UNL     1       1.965   1.750  18.510  0.00  0.00    +0.000 OA
BRANCH  19  21
ATOM     21  C   UNL     1       3.370   3.180  17.227  0.00  0.00    +0.000 C 
ATOM     22  O   UNL     1       2.623   3.338  16.272  0.00  0.00    +0.000 OA
ATOM     23  N   UNL     1       4.740   3.344  17.262  0.00  0.00    +0.000 N 
ATOM     24  H   UNL     1       5.211   2.993  18.122  0.00  0.00    +0.000 HD
BRANCH  23  25
ATOM     25  C   UNL     1       5.549   3.822  16.194  0.00  0.00    +0.000 A 
ATOM     26  C   UNL     1       5.214   3.513  14.866  0.00  0.00    +0.000 A 
ATOM     27  C   UNL     1       5.979   3.964  13.783  0.00  0.00    +0.000 A 
ATOM     28  C   UNL     1       7.094   4.765  14.028  0.00  0.00    +0.000 A 
ATOM     29  C   UNL     1       7.455   5.108  15.335  0.00  0.00    +0.000 A 
ATOM     30  C   UNL     1       6.686   4.641  16.414  0.00  0.00    +0.000 A 
BRANCH  28  31
ATOM     31  N   UNL     1       7.886   5.234  12.882  0.00  0.00    +0.000 N 
ATOM     32  O   UNL     1       8.811   6.017  13.105  0.00  0.00    +0.000 OA
ATOM     33  O   UNL     1       7.566   4.806  11.768  0.00  0.00    +0.000 OA
ENDBRANCH  28  31
BRANCH  30  34
ATOM     34  N   UNL     1       7.134   5.003  17.774  0.00  0.00    +0.000 N 
ATOM     35  O   UNL     1       8.132   4.432  18.235  0.00  0.00    +0.000 OA
ATOM     36  O   UNL     1       6.480   5.862  18.381  0.00  0.00    +0.000 OA
ENDBRANCH  30  34
ENDBRANCH  23  25
ENDBRANCH  19  21
ENDBRANCH   1  19
TORSDOF 9
ENDMDL
MODEL 2
REMARK VINA RESULT:      -8.2      4.601      6.824
REMARK  Name = 
REMARK  10 active torsions:
REMARK  status: ('A' for Active; 'I' for Inactive)
REMARK    1  A    between atoms: C_1  and  O_2
REMARK    2  A    between atoms: O_2  and  C_3
REMARK    3  A    between atoms: C_3  and  C_5
REMARK    4  A    between atoms: C_5  and  C_6
REMARK    5  A    between atoms: C_5  and  C_23
REMARK    6  A    between atoms: C_6  and  C_8
REMARK    7  A    between atoms: N_10  and  C_11
REMARK    8  A    between atoms: C_14  and  N_15
REMARK    9  A    between atoms: C_19  and  N_20
REMARK   10  A    between atoms: C_33  and  O_34
REMARK                            x       y       z     vdW  Elec       q    Type
REMARK                         _______ _______ _______ _____ _____    ______ ____
ROOT
ATOM      1  C   UNL     1       0.743  10.897  19.061  0.00  0.00    +0.000 C 
ENDROOT
BRANCH   1   2
ATOM      2  C   UNL     1      -0.734  11.118  19.139  0.00  0.00    +0.000 A 
ATOM      3  N   UNL     1      -1.524  10.646  18.150  0.00  0.00    +0.000 NA
ATOM      4  C   UNL     1      -2.833  10.952  18.256  0.00  0.00    +0.000 A 
ATOM      5  C   UNL     1      -3.791  10.189  17.618  0.00  0.00    +0.000 A 
ATOM      6  C   UNL     1      -5.141  10.516  17.725  0.00  0.00    +0.000 A 
ATOM      7  C   UNL     1      -5.506  11.710  18.339  0.00  0.00    +0.000 A 
ATOM      8 CL   UNL     1      -7.149  12.211  18.329  0.00  0.00    +0.000 Cl
ATOM      9  C   UNL     1      -4.560  12.452  19.031  0.00  0.00    +0.000 A 
ATOM     10  C   UNL     1      -3.271  11.963  19.137  0.00  0.00    +0.000 A 
ATOM     11  N   UNL     1      -2.500  12.324  20.170  0.00  0.00    +0.000 NA
ATOM     12  C   UNL     1      -1.320  11.696  20.246  0.00  0.00    +0.000 A 
BRANCH  12  13
ATOM     13  O   UNL     1      -1.130  10.999  21.428  0.00  0.00    +0.000 OA
ATOM     14  H   UNL     1      -0.652  11.613  22.027  0.00  0.00    +0.000 HD
ENDBRANCH  12  13
ENDBRANCH   1   2
BRANCH   1  15
ATOM     15  C   UNL     1       1.547  11.850  19.917  0.00  0.00    +0.000 C 
ATOM     16  O   UNL     1       1.593  11.809  21.140  0.00  0.00    +0.000 OA
BRANCH  15  18
ATOM     17  C   UNL     1       2.687  13.910  19.854  0.00  0.00    +0.000 C 
ATOM     18  O   UNL     1       2.190  12.770  19.145  0.00  0.00    +0.000 OA
ENDBRANCH  15  18
ENDBRANCH   1  15
BRANCH   1  19
ATOM     19  C   UNL     1       1.084   9.475  19.395  0.00  0.00    +0.000 C 
ATOM     20  O   UNL     1       0.721   8.857  20.390  0.00  0.00    +0.000 OA
BRANCH  19  21
ATOM     21  C   UNL     1       1.999   8.816  18.383  0.00  0.00    +0.000 C 
ATOM     22  O   UNL     1       2.174   9.398  17.322  0.00  0.00    +0.000 OA
ATOM     23  N   UNL     1       2.498   7.587  18.763  0.00  0.00    +0.000 N 
ATOM     24  H   UNL     1       2.093   7.190  19.637  0.00  0.00    +0.000 HD
BRANCH  23  25
ATOM     25  C   UNL     1       3.401   6.786  18.010  0.00  0.00    +0.000 A 
ATOM     26  C   UNL     1       4.584   7.348  17.504  0.00  0.00    +0.000 A 
ATOM     27  C   UNL     1       5.504   6.597  16.760  0.00  0.00    +0.000 A 
ATOM     28  C   UNL     1       5.250   5.244  16.535  0.00  0.00    +0.000 A 
ATOM     29  C   UNL     1       4.090   4.642  17.034  0.00  0.00    +0.000 A 
ATOM     30  C   UNL     1       3.170   5.407  17.770  0.00  0.00    +0.000 A 
BRANCH  28  31
ATOM     31  N   UNL     1       6.225   4.468  15.756  0.00  0.00    +0.000 N 
ATOM     32  O   UNL     1       5.941   3.300  15.481  0.00  0.00    +0.000 OA
ATOM     33  O   UNL     1       7.268   5.044  15.430  0.00  0.00    +0.000 OA
ENDBRANCH  28  31
BRANCH  30  34
ATOM     34  N   UNL     1       1.945   4.729  18.240  0.00  0.00    +0.000 N 
ATOM     35  O   UNL     1       1.694   4.744  19.453  0.00  0.00    +0.000 OA
ATOM     36  O   UNL     1       1.236   4.177  17.389  0.00  0.00    +0.000 OA
ENDBRANCH  30  34
ENDBRANCH  23  25
ENDBRANCH  19  21
ENDBRANCH   1  19
TORSDOF 9
ENDMDL
MODEL 3
REMARK VINA RESULT:      -8.2      3.753      8.089
REMARK  Name = 
REMARK  10 active torsions:
REMARK  status: ('A' for Active; 'I' for Inactive)
REMARK    1  A    between atoms: C_1  and  O_2
REMARK    2  A    between atoms: O_2  and  C_3
REMARK    3  A    between atoms: C_3  and  C_5
REMARK    4  A    between atoms: C_5  and  C_6
REMARK    5  A    between atoms: C_5  and  C_23
REMARK    6  A    between atoms: C_6  and  C_8
REMARK    7  A    between atoms: N_10  and  C_11
REMARK    8  A    between atoms: C_14  and  N_15
REMARK    9  A    between atoms: C_19  and  N_20
REMARK   10  A    between atoms: C_33  and  O_34
REMARK                            x       y       z     vdW  Elec       q    Type
REMARK                         _______ _______ _______ _____ _____    ______ ____
ROOT
ATOM      1  C   UNL     1       2.862   4.617  18.254  0.00  0.00    +0.000 C 
ENDROOT
BRANCH   1   2
ATOM      2  C   UNL     1       3.925   4.981  17.266  0.00  0.00    +0.000 A 
ATOM      3  N   UNL     1       4.210   4.124  16.262  0.00  0.00    +0.000 NA
ATOM      4  C   UNL     1       5.231   4.490  15.460  0.00  0.00    +0.000 A 
ATOM      5  C   UNL     1       5.337   3.988  14.177  0.00  0.00    +0.000 A 
ATOM      6  C   UNL     1       6.398   4.364  13.356  0.00  0.00    +0.000 A 
ATOM      7  C   UNL     1       7.440   5.115  13.892  0.00  0.00    +0.000 A 
ATOM      8 CL   UNL     1       8.835   5.441  12.944  0.00  0.00    +0.000 Cl
ATOM      9  C   UNL     1       7.316   5.670  15.156  0.00  0.00    +0.000 A 
ATOM     10  C   UNL     1       6.131   5.503  15.849  0.00  0.00    +0.000 A 
ATOM     11  N   UNL     1       5.763   6.400  16.773  0.00  0.00    +0.000 NA
ATOM     12  C   UNL     1       4.542   6.213  17.292  0.00  0.00    +0.000 A 
BRANCH  12  13
ATOM     13  O   UNL     1       3.688   7.290  17.115  0.00  0.00    +0.000 OA
ATOM     14  H   UNL     1       4.091   7.838  16.407  0.00  0.00    +0.000 HD
ENDBRANCH  12  13
ENDBRANCH   1   2
BRANCH   1  15
ATOM     15  C   UNL     1       2.585   3.133  18.331  0.00  0.00    +0.000 C 
ATOM     16  O   UNL     1       3.415   2.290  18.643  0.00  0.00    +0.000 OA
BRANCH  15  18
ATOM     17  C   UNL     1       0.491   2.310  19.030  0.00  0.00    +0.000 C 
ATOM     18  O   UNL     1       1.295   2.863  17.982  0.00  0.00    +0.000 OA
ENDBRANCH  15  18
ENDBRANCH   1  15
BRANCH   1  19
ATOM     19  C   UNL     1       3.193   5.161  19.612  0.00  0.00    +0.000 C 
ATOM     20  O   UNL     1       4.215   4.939  20.253  0.00  0.00    +0.000 OA
BRANCH  19  21
ATOM     21  C   UNL     1       2.099   6.026  20.203  0.00  0.00    +0.000 C 
ATOM     22  O   UNL     1       1.134   5.456  20.692  0.00  0.00    +0.000 OA
ATOM     23  N   UNL     1       2.296   7.385  20.072  0.00  0.00    +0.000 N 
ATOM     24  H   UNL     1       3.102   7.665  19.474  0.00  0.00    +0.000 HD
BRANCH  23  25
ATOM     25  C   UNL     1       1.437   8.404  20.570  0.00  0.00    +0.000 A 
ATOM     26  C   UNL     1       1.128   8.454  21.939  0.00  0.00    +0.000 A 
ATOM     27  C   UNL     1       0.289   9.440  22.475  0.00  0.00    +0.000 A 
ATOM     28  C   UNL     1      -0.235  10.417  21.629  0.00  0.00    +0.000 A 
ATOM     29  C   UNL     1       0.059  10.411  20.261  0.00  0.00    +0.000 A 
ATOM     30  C   UNL     1       0.893   9.412  19.734  0.00  0.00    +0.000 A 
BRANCH  28  31
ATOM     31  N   UNL     1      -1.111  11.448  22.205  0.00  0.00    +0.000 N 
ATOM     32  O   UNL     1      -1.018  11.670  23.413  0.00  0.00    +0.000 OA
ATOM     33  O   UNL     1      -1.884  12.022  21.430  0.00  0.00    +0.000 OA
ENDBRANCH  28  31
BRANCH  30  34
ATOM     34  N   UNL     1       1.140   9.432  18.278  0.00  0.00    +0.000 N 
ATOM     35  O   UNL     1       2.311   9.517  17.881  0.00  0.00    +0.000 OA
ATOM     36  O   UNL     1       0.155   9.367  17.531  0.00  0.00    +0.000 OA
ENDBRANCH  30  34
ENDBRANCH  23  25
ENDBRANCH  19  21
ENDBRANCH   1  19
TORSDOF 9
ENDMDL
MODEL 4
REMARK VINA RESULT:      -8.1      0.805      1.650
REMARK  Name = 
REMARK  10 active torsions:
REMARK  status: ('A' for Active; 'I' for Inactive)
REMARK    1  A    between atoms: C_1  and  O_2
REMARK    2  A    between atoms: O_2  and  C_3
REMARK    3  A    between atoms: C_3  and  C_5
REMARK    4  A    between atoms: C_5  and  C_6
REMARK    5  A    between atoms: C_5  and  C_23
REMARK    6  A    between atoms: C_6  and  C_8
REMARK    7  A    between atoms: N_10  and  C_11
REMARK    8  A    between atoms: C_14  and  N_15
REMARK    9  A    between atoms: C_19  and  N_20
REMARK   10  A    between atoms: C_33  and  O_34
REMARK                            x       y       z     vdW  Elec       q    Type
REMARK                         _______ _______ _______ _____ _____    ______ ____
ROOT
ATOM      1  C   UNL     1       3.237   3.587  19.939  0.00  0.00    +0.000 C 
ENDROOT
BRANCH   1   2
ATOM      2  C   UNL     1       2.906   5.046  19.912  0.00  0.00    +0.000 A 
ATOM      3  N   UNL     1       1.857   5.497  20.632  0.00  0.00    +0.000 NA
ATOM      4  C   UNL     1       1.580   6.809  20.494  0.00  0.00    +0.000 A 
ATOM      5  C   UNL     1       0.875   7.489  21.468  0.00  0.00    +0.000 A 
ATOM      6  C   UNL     1       0.585   8.844  21.315  0.00  0.00    +0.000 A 
ATOM      7  C   UNL     1       0.863   9.467  20.102  0.00  0.00    +0.000 A 
ATOM      8 CL   UNL     1       0.356  11.086  19.836  0.00  0.00    +0.000 Cl
ATOM      9  C   UNL     1       1.618   8.811  19.142  0.00  0.00    +0.000 A 
ATOM     10  C   UNL     1       2.125   7.557  19.430  0.00  0.00    +0.000 A 
ATOM     11  N   UNL     1       3.234   7.125  18.814  0.00  0.00    +0.000 NA
ATOM     12  C   UNL     1       3.710   5.954  19.256  0.00  0.00    +0.000 A 
BRANCH  12  13
ATOM     13  O   UNL     1       5.010   6.023  19.732  0.00  0.00    +0.000 OA
ATOM     14  H   UNL     1       5.478   6.654  19.144  0.00  0.00    +0.000 HD
ENDBRANCH  12  13
ENDBRANCH   1   2
BRANCH   1  15
ATOM     15  C   UNL     1       2.851   2.900  21.231  0.00  0.00    +0.000 C 
ATOM     16  O   UNL     1       1.904   3.231  21.932  0.00  0.00    +0.000 OA
BRANCH  15  18
ATOM     17  C   UNL     1       4.933   1.903  20.765  0.00  0.00    +0.000 C 
ATOM     18  O   UNL     1       3.714   1.885  21.515  0.00  0.00    +0.000 OA
ENDBRANCH  15  18
ENDBRANCH   1  15
BRANCH   1  19
ATOM     19  C   UNL     1       2.622   2.882  18.766  0.00  0.00    +0.000 C 
ATOM     20  O   UNL     1       1.733   2.039  18.811  0.00  0.00    +0.000 OA
BRANCH  19  21
ATOM     21  C   UNL     1       3.237   3.269  17.436  0.00  0.00    +0.000 C 
ATOM     22  O   UNL     1       2.498   3.295  16.462  0.00  0.00    +0.000 OA
ATOM     23  N   UNL     1       4.596   3.502  17.469  0.00  0.00    +0.000 N 
ATOM     24  H   UNL     1       5.070   3.261  18.365  0.00  0.00    +0.000 HD
BRANCH  23  25
ATOM     25  C   UNL     1       5.399   3.910  16.367  0.00  0.00    +0.000 A 
ATOM     26  C   UNL     1       5.061   3.505  15.066  0.00  0.00    +0.000 A 
ATOM     27  C   UNL     1       5.820   3.884  13.950  0.00  0.00    +0.000 A 
ATOM     28  C   UNL     1       6.930   4.709  14.134  0.00  0.00    +0.000 A 
ATOM     29  C   UNL     1       7.292   5.146  15.413  0.00  0.00    +0.000 A 
ATOM     30  C   UNL     1       6.530   4.751  16.525  0.00  0.00    +0.000 A 
BRANCH  28  31
ATOM     31  N   UNL     1       7.714   5.103  12.955  0.00  0.00    +0.000 N 
ATOM     32  O   UNL     1       7.403   4.613  11.868  0.00  0.00    +0.000 OA
ATOM     33  O   UNL     1       8.638   5.903  13.139  0.00  0.00    +0.000 OA
ENDBRANCH  28  31
BRANCH  30  34
ATOM     34  N   UNL     1       6.980   5.211  17.854  0.00  0.00    +0.000 N 
ATOM     35  O   UNL     1       7.014   4.388  18.780  0.00  0.00    +0.000 OA
ATOM     36  O   UNL     1       7.296   6.402  17.969  0.00  0.00    +0.000 OA
ENDBRANCH  30  34
ENDBRANCH  23  25
ENDBRANCH  19  21
ENDBRANCH   1  19
TORSDOF 9
ENDMDL
MODEL 5
REMARK VINA RESULT:      -7.9      4.378      7.172
REMARK  Name = 
REMARK  10 active torsions:
REMARK  status: ('A' for Active; 'I' for Inactive)
REMARK    1  A    between atoms: C_1  and  O_2
REMARK    2  A    between atoms: O_2  and  C_3
REMARK    3  A    between atoms: C_3  and  C_5
REMARK    4  A    between atoms: C_5  and  C_6
REMARK    5  A    between atoms: C_5  and  C_23
REMARK    6  A    between atoms: C_6  and  C_8
REMARK    7  A    between atoms: N_10  and  C_11
REMARK    8  A    between atoms: C_14  and  N_15
REMARK    9  A    between atoms: C_19  and  N_20
REMARK   10  A    between atoms: C_33  and  O_34
REMARK                            x       y       z     vdW  Elec       q    Type
REMARK                         _______ _______ _______ _____ _____    ______ ____
ROOT
ATOM      1  C   UNL     1       0.355  10.303  19.187  0.00  0.00    +0.000 C 
ENDROOT
BRANCH   1   2
ATOM      2  C   UNL     1       0.751  11.682  19.613  0.00  0.00    +0.000 A 
ATOM      3  N   UNL     1       0.490  12.724  18.794  0.00  0.00    +0.000 NA
ATOM      4  C   UNL     1       0.946  13.921  19.216  0.00  0.00    +0.000 A 
ATOM      5  C   UNL     1       0.381  15.095  18.754  0.00  0.00    +0.000 A 
ATOM      6  C   UNL     1       0.863  16.329  19.188  0.00  0.00    +0.000 A 
ATOM      7  C   UNL     1       2.021  16.376  19.958  0.00  0.00    +0.000 A 
ATOM      8 CL   UNL     1       2.723  17.892  20.356  0.00  0.00    +0.000 Cl
ATOM      9  C   UNL     1       2.559  15.206  20.472  0.00  0.00    +0.000 A 
ATOM     10  C   UNL     1       1.904  14.010  20.247  0.00  0.00    +0.000 A 
ATOM     11  N   UNL     1       2.053  12.992  21.104  0.00  0.00    +0.000 NA
ATOM     12  C   UNL     1       1.277  11.927  20.864  0.00  0.00    +0.000 A 
BRANCH  12  13
ATOM     13  O   UNL     1       0.440  11.594  21.916  0.00  0.00    +0.000 OA
ATOM     14  H   UNL     1       0.676  10.674  22.165  0.00  0.00    +0.000 HD
ENDBRANCH  12  13
ENDBRANCH   1   2
BRANCH   1  15
ATOM     15  C   UNL     1      -0.922  10.260  18.378  0.00  0.00    +0.000 C 
ATOM     16  O   UNL     1      -1.021   9.747  17.271  0.00  0.00    +0.000 OA
BRANCH  15  18
ATOM     17  C   UNL     1      -2.952  11.440  18.196  0.00  0.00    +0.000 C 
ATOM     18  O   UNL     1      -1.934  10.889  19.039  0.00  0.00    +0.000 OA
ENDBRANCH  15  18
ENDBRANCH   1  15
BRANCH   1  19
ATOM     19  C   UNL     1       1.473   9.638  18.441  0.00  0.00    +0.000 C 
ATOM     20  O   UNL     1       2.025  10.063  17.431  0.00  0.00    +0.000 OA
BRANCH  19  21
ATOM     21  C   UNL     1       1.879   8.299  19.023  0.00  0.00    +0.000 C 
ATOM     22  O   UNL     1       1.665   8.116  20.213  0.00  0.00    +0.000 OA
ATOM     23  N   UNL     1       2.503   7.445  18.137  0.00  0.00    +0.000 N 
ATOM     24  H   UNL     1       2.743   7.857  17.211  0.00  0.00    +0.000 HD
BRANCH  23  25
ATOM     25  C   UNL     1       2.948   6.125  18.426  0.00  0.00    +0.000 A 
ATOM     26  C   UNL     1       2.125   5.252  19.157  0.00  0.00    +0.000 A 
ATOM     27  C   UNL     1       2.519   3.942  19.463  0.00  0.00    +0.000 A 
ATOM     28  C   UNL     1       3.755   3.483  19.007  0.00  0.00    +0.000 A 
ATOM     29  C   UNL     1       4.598   4.316  18.264  0.00  0.00    +0.000 A 
ATOM     30  C   UNL     1       4.197   5.630  17.973  0.00  0.00    +0.000 A 
BRANCH  28  31
ATOM     31  N   UNL     1       4.155   2.106  19.332  0.00  0.00    +0.000 N 
ATOM     32  O   UNL     1       3.752   1.203  18.597  0.00  0.00    +0.000 OA
ATOM     33  O   UNL     1       4.871   1.951  20.327  0.00  0.00    +0.000 OA
ENDBRANCH  28  31
BRANCH  30  34
ATOM     34  N   UNL     1       5.143   6.477  17.218  0.00  0.00    +0.000 N 
ATOM     35  O   UNL     1       6.266   6.677  17.700  0.00  0.00    +0.000 OA
ATOM     36  O   UNL     1       4.755   6.944  16.139  0.00  0.00    +0.000 OA
ENDBRANCH  30  34
ENDBRANCH  23  25
ENDBRANCH  19  21
ENDBRANCH   1  19
TORSDOF 9
ENDMDL
MODEL 6
REMARK VINA RESULT:      -7.9      4.991      7.386
REMARK  Name = 
REMARK  10 active torsions:
REMARK  status: ('A' for Active; 'I' for Inactive)
REMARK    1  A    between atoms: C_1  and  O_2
REMARK    2  A    between atoms: O_2  and  C_3
REMARK    3  A    between atoms: C_3  and  C_5
REMARK    4  A    between atoms: C_5  and  C_6
REMARK    5  A    between atoms: C_5  and  C_23
REMARK    6  A    between atoms: C_6  and  C_8
REMARK    7  A    between atoms: N_10  and  C_11
REMARK    8  A    between atoms: C_14  and  N_15
REMARK    9  A    between atoms: C_19  and  N_20
REMARK   10  A    between atoms: C_33  and  O_34
REMARK                            x       y       z     vdW  Elec       q    Type
REMARK                         _______ _______ _______ _____ _____    ______ ____
ROOT
ATOM      1  C   UNL     1       0.416  11.338  19.263  0.00  0.00    +0.000 C 
ENDROOT
BRANCH   1   2
ATOM      2  C   UNL     1      -1.033  11.688  19.142  0.00  0.00    +0.000 A 
ATOM      3  N   UNL     1      -1.719  12.048  20.249  0.00  0.00    +0.000 NA
ATOM      4  C   UNL     1      -3.036  12.274  20.068  0.00  0.00    +0.000 A 
ATOM      5  C   UNL     1      -3.745  13.064  20.951  0.00  0.00    +0.000 A 
ATOM      6  C   UNL     1      -5.108  13.287  20.763  0.00  0.00    +0.000 A 
ATOM      7  C   UNL     1      -5.784  12.576  19.776  0.00  0.00    +0.000 A 
ATOM      8 CL   UNL     1      -7.491  12.710  19.643  0.00  0.00    +0.000 Cl
ATOM      9  C   UNL     1      -5.074  11.827  18.851  0.00  0.00    +0.000 A 
ATOM     10  C   UNL     1      -3.692  11.838  18.898  0.00  0.00    +0.000 A 
ATOM     11  N   UNL     1      -2.981  11.598  17.788  0.00  0.00    +0.000 NA
ATOM     12  C   UNL     1      -1.658  11.758  17.914  0.00  0.00    +0.000 A 
BRANCH  12  13
ATOM     13  O   UNL     1      -1.122  12.697  17.048  0.00  0.00    +0.000 OA
ATOM     14  H   UNL     1      -1.298  13.572  17.458  0.00  0.00    +0.000 HD
ENDBRANCH  12  13
ENDBRANCH   1   2
BRANCH   1  15
ATOM     15  C   UNL     1       1.170  12.201  20.251  0.00  0.00    +0.000 C 
ATOM     16  O   UNL     1       1.463  11.855  21.387  0.00  0.00    +0.000 OA
BRANCH  15  18
ATOM     17  C   UNL     1       2.797  13.870  19.916  0.00  0.00    +0.000 C 
ATOM     18  O   UNL     1       1.454  13.419  19.710  0.00  0.00    +0.000 OA
ENDBRANCH  15  18
ENDBRANCH   1  15
BRANCH   1  19
ATOM     19  C   UNL     1       0.583   9.886  19.600  0.00  0.00    +0.000 C 
ATOM     20  O   UNL     1       0.120   9.310  20.578  0.00  0.00    +0.000 OA
BRANCH  19  21
ATOM     21  C   UNL     1       1.451   9.131  18.614  0.00  0.00    +0.000 C 
ATOM     22  O   UNL     1       1.545   9.587  17.483  0.00  0.00    +0.000 OA
ATOM     23  N   UNL     1       2.006   7.965  19.100  0.00  0.00    +0.000 N 
ATOM     24  H   UNL     1       1.666   7.665  20.038  0.00  0.00    +0.000 HD
BRANCH  23  25
ATOM     25  C   UNL     1       2.881   7.098  18.389  0.00  0.00    +0.000 A 
ATOM     26  C   UNL     1       3.830   7.632  17.502  0.00  0.00    +0.000 A 
ATOM     27  C   UNL     1       4.714   6.818  16.782  0.00  0.00    +0.000 A 
ATOM     28  C   UNL     1       4.669   5.437  16.969  0.00  0.00    +0.000 A 
ATOM     29  C   UNL     1       3.748   4.865  17.854  0.00  0.00    +0.000 A 
ATOM     30  C   UNL     1       2.859   5.691  18.562  0.00  0.00    +0.000 A 
BRANCH  28  31
ATOM     31  N   UNL     1       5.604   4.595  16.210  0.00  0.00    +0.000 N 
ATOM     32  O   UNL     1       5.412   3.378  16.210  0.00  0.00    +0.000 OA
ATOM     33  O   UNL     1       6.525   5.172  15.622  0.00  0.00    +0.000 OA
ENDBRANCH  28  31
BRANCH  30  34
ATOM     34  N   UNL     1       1.884   5.031  19.454  0.00  0.00    +0.000 N 
ATOM     35  O   UNL     1       1.282   4.034  19.030  0.00  0.00    +0.000 OA
ATOM     36  O   UNL     1       1.721   5.516  20.581  0.00  0.00    +0.000 OA
ENDBRANCH  30  34
ENDBRANCH  23  25
ENDBRANCH  19  21
ENDBRANCH   1  19
TORSDOF 9
ENDMDL
MODEL 7
REMARK VINA RESULT:      -7.9      6.362     10.738
REMARK  Name = 
REMARK  10 active torsions:
REMARK  status: ('A' for Active; 'I' for Inactive)
REMARK    1  A    between atoms: C_1  and  O_2
REMARK    2  A    between atoms: O_2  and  C_3
REMARK    3  A    between atoms: C_3  and  C_5
REMARK    4  A    between atoms: C_5  and  C_6
REMARK    5  A    between atoms: C_5  and  C_23
REMARK    6  A    between atoms: C_6  and  C_8
REMARK    7  A    between atoms: N_10  and  C_11
REMARK    8  A    between atoms: C_14  and  N_15
REMARK    9  A    between atoms: C_19  and  N_20
REMARK   10  A    between atoms: C_33  and  O_34
REMARK                            x       y       z     vdW  Elec       q    Type
REMARK                         _______ _______ _______ _____ _____    ______ ____
ROOT
ATOM      1  C   UNL     1       0.267  10.131  20.318  0.00  0.00    +0.000 C 
ENDROOT
BRANCH   1   2
ATOM      2  C   UNL     1       1.085   9.227  19.451  0.00  0.00    +0.000 A 
ATOM      3  N   UNL     1       1.569   8.078  19.970  0.00  0.00    +0.000 NA
ATOM      4  C   UNL     1       2.359   7.357  19.147  0.00  0.00    +0.000 A 
ATOM      5  C   UNL     1       2.539   6.003  19.349  0.00  0.00    +0.000 A 
ATOM      6  C   UNL     1       3.363   5.266  18.500  0.00  0.00    +0.000 A 
ATOM      7  C   UNL     1       4.133   5.931  17.551  0.00  0.00    +0.000 A 
ATOM      8 CL   UNL     1       5.279   5.060  16.614  0.00  0.00    +0.000 Cl
ATOM      9  C   UNL     1       3.917   7.278  17.304  0.00  0.00    +0.000 A 
ATOM     10  C   UNL     1       2.900   7.930  17.978  0.00  0.00    +0.000 A 
ATOM     11  N   UNL     1       2.320   9.008  17.435  0.00  0.00    +0.000 NA
ATOM     12  C   UNL     1       1.265   9.484  18.108  0.00  0.00    +0.000 A 
BRANCH  12  13
ATOM     13  O   UNL     1       0.095   9.517  17.366  0.00  0.00    +0.000 OA
ATOM     14  H   UNL     1      -0.597   9.859  17.972  0.00  0.00    +0.000 HD
ENDBRANCH  12  13
ENDBRANCH   1   2
BRANCH   1  15
ATOM     15  C   UNL     1       0.525   9.951  21.797  0.00  0.00    +0.000 C 
ATOM     16  O   UNL     1       1.629  10.026  22.320  0.00  0.00    +0.000 OA
BRANCH  15  18
ATOM     17  C   UNL     1      -1.188  10.772  23.190  0.00  0.00    +0.000 C 
ATOM     18  O   UNL     1      -0.633   9.673  22.460  0.00  0.00    +0.000 OA
ENDBRANCH  15  18
ENDBRANCH   1  15
BRANCH   1  19
ATOM     19  C   UNL     1       0.461  11.564  19.921  0.00  0.00    +0.000 C 
ATOM     20  O   UNL     1       1.534  12.149  19.818  0.00  0.00    +0.000 OA
BRANCH  19  21
ATOM     21  C   UNL     1      -0.837  12.308  19.678  0.00  0.00    +0.000 C 
ATOM     22  O   UNL     1      -0.795  13.530  19.693  0.00  0.00    +0.000 OA
ATOM     23  N   UNL     1      -1.946  11.504  19.516  0.00  0.00    +0.000 N 
ATOM     24  H   UNL     1      -1.797  10.491  19.706  0.00  0.00    +0.000 HD
BRANCH  23  25
ATOM     25  C   UNL     1      -3.268  11.954  19.244  0.00  0.00    +0.000 A 
ATOM     26  C   UNL     1      -3.989  12.652  20.227  0.00  0.00    +0.000 A 
ATOM     27  C   UNL     1      -5.292  13.116  20.003  0.00  0.00    +0.000 A 
ATOM     28  C   UNL     1      -5.883  12.901  18.758  0.00  0.00    +0.000 A 
ATOM     29  C   UNL     1      -5.194  12.223  17.747  0.00  0.00    +0.000 A 
ATOM     30  C   UNL     1      -3.893  11.753  17.987  0.00  0.00    +0.000 A 
BRANCH  28  31
ATOM     31  N   UNL     1      -7.249  13.397  18.536  0.00  0.00    +0.000 N 
ATOM     32  O   UNL     1      -7.638  13.506  17.372  0.00  0.00    +0.000 OA
ATOM     33  O   UNL     1      -7.915  13.670  19.540  0.00  0.00    +0.000 OA
ENDBRANCH  28  31
BRANCH  30  34
ATOM     34  N   UNL     1      -3.227  11.011  16.896  0.00  0.00    +0.000 N 
ATOM     35  O   UNL     1      -3.904  10.219  16.226  0.00  0.00    +0.000 OA
ATOM     36  O   UNL     1      -2.021  11.223  16.715  0.00  0.00    +0.000 OA
ENDBRANCH  30  34
ENDBRANCH  23  25
ENDBRANCH  19  21
ENDBRANCH   1  19
TORSDOF 9
ENDMDL
MODEL 8
REMARK VINA RESULT:      -7.8      5.023      8.208
REMARK  Name = 
REMARK  10 active torsions:
REMARK  status: ('A' for Active; 'I' for Inactive)
REMARK    1  A    between atoms: C_1  and  O_2
REMARK    2  A    between atoms: O_2  and  C_3
REMARK    3  A    between atoms: C_3  and  C_5
REMARK    4  A    between atoms: C_5  and  C_6
REMARK    5  A    between atoms: C_5  and  C_23
REMARK    6  A    between atoms: C_6  and  C_8
REMARK    7  A    between atoms: N_10  and  C_11
REMARK    8  A    between atoms: C_14  and  N_15
REMARK    9  A    between atoms: C_19  and  N_20
REMARK   10  A    between atoms: C_33  and  O_34
REMARK                            x       y       z     vdW  Elec       q    Type
REMARK                         _______ _______ _______ _____ _____    ______ ____
ROOT
ATOM      1  C   UNL     1       0.364  11.146  19.207  0.00  0.00    +0.000 C 
ENDROOT
BRANCH   1   2
ATOM      2  C   UNL     1      -1.063  11.594  19.154  0.00  0.00    +0.000 A 
ATOM      3  N   UNL     1      -1.672  11.987  20.293  0.00  0.00    +0.000 NA
ATOM      4  C   UNL     1      -2.978  12.303  20.173  0.00  0.00    +0.000 A 
ATOM      5  C   UNL     1      -3.592  13.130  21.094  0.00  0.00    +0.000 A 
ATOM      6  C   UNL     1      -4.944  13.446  20.968  0.00  0.00    +0.000 A 
ATOM      7  C   UNL     1      -5.710  12.792  20.008  0.00  0.00    +0.000 A 
ATOM      8 CL   UNL     1      -7.408  13.042  19.953  0.00  0.00    +0.000 Cl
ATOM      9  C   UNL     1      -5.093  12.007  19.047  0.00  0.00    +0.000 A 
ATOM     10  C   UNL     1      -3.713  11.924  19.031  0.00  0.00    +0.000 A 
ATOM     11  N   UNL     1      -3.071  11.648  17.889  0.00  0.00    +0.000 NA
ATOM     12  C   UNL     1      -1.735  11.718  17.956  0.00  0.00    +0.000 A 
BRANCH  12  13
ATOM     13  O   UNL     1      -1.176  12.627  17.073  0.00  0.00    +0.000 OA
ATOM     14  H   UNL     1      -1.790  12.669  16.308  0.00  0.00    +0.000 HD
ENDBRANCH  12  13
ENDBRANCH   1   2
BRANCH   1  15
ATOM     15  C   UNL     1       1.353  12.218  18.810  0.00  0.00    +0.000 C 
ATOM     16  O   UNL     1       2.423  12.000  18.257  0.00  0.00    +0.000 OA
BRANCH  15  18
ATOM     17  C   UNL     1       1.853  14.258  19.876  0.00  0.00    +0.000 C 
ATOM     18  O   UNL     1       0.901  13.452  19.173  0.00  0.00    +0.000 OA
ENDBRANCH  15  18
ENDBRANCH   1  15
BRANCH   1  19
ATOM     19  C   UNL     1       0.697  10.600  20.564  0.00  0.00    +0.000 C 
ATOM     20  O   UNL     1       0.951  11.257  21.568  0.00  0.00    +0.000 OA
BRANCH  19  21
ATOM     21  C   UNL     1       0.745   9.086  20.614  0.00  0.00    +0.000 C 
ATOM     22  O   UNL     1      -0.122   8.517  21.262  0.00  0.00    +0.000 OA
ATOM     23  N   UNL     1       1.813   8.516  19.952  0.00  0.00    +0.000 N 
ATOM     24  H   UNL     1       2.533   9.184  19.606  0.00  0.00    +0.000 HD
BRANCH  23  25
ATOM     25  C   UNL     1       2.065   7.122  19.823  0.00  0.00    +0.000 A 
ATOM     26  C   UNL     1       1.611   6.232  20.810  0.00  0.00    +0.000 A 
ATOM     27  C   UNL     1       1.833   4.851  20.724  0.00  0.00    +0.000 A 
ATOM     28  C   UNL     1       2.503   4.341  19.612  0.00  0.00    +0.000 A 
ATOM     29  C   UNL     1       2.960   5.191  18.600  0.00  0.00    +0.000 A 
ATOM     30  C   UNL     1       2.740   6.575  18.702  0.00  0.00    +0.000 A 
BRANCH  28  31
ATOM     31  N   UNL     1       2.726   2.890  19.533  0.00  0.00    +0.000 N 
ATOM     32  O   UNL     1       1.746   2.151  19.644  0.00  0.00    +0.000 OA
ATOM     33  O   UNL     1       3.889   2.511  19.359  0.00  0.00    +0.000 OA
ENDBRANCH  28  31
BRANCH  30  34
ATOM     34  N   UNL     1       3.277   7.429  17.623  0.00  0.00    +0.000 N 
ATOM     35  O   UNL     1       2.615   8.415  17.271  0.00  0.00    +0.000 OA
ATOM     36  O   UNL     1       4.364   7.106  17.126  0.00  0.00    +0.000 OA
ENDBRANCH  30  34
ENDBRANCH  23  25
ENDBRANCH  19  21
ENDBRANCH   1  19
TORSDOF 9
ENDMDL
MODEL 9
REMARK VINA RESULT:      -7.8      3.378      7.015
REMARK  Name = 
REMARK  10 active torsions:
REMARK  status: ('A' for Active; 'I' for Inactive)
REMARK    1  A    between atoms: C_1  and  O_2
REMARK    2  A    between atoms: O_2  and  C_3
REMARK    3  A    between atoms: C_3  and  C_5
REMARK    4  A    between atoms: C_5  and  C_6
REMARK    5  A    between atoms: C_5  and  C_23
REMARK    6  A    between atoms: C_6  and  C_8
REMARK    7  A    between atoms: N_10  and  C_11
REMARK    8  A    between atoms: C_14  and  N_15
REMARK    9  A    between atoms: C_19  and  N_20
REMARK   10  A    between atoms: C_33  and  O_34
REMARK                            x       y       z     vdW  Elec       q    Type
REMARK                         _______ _______ _______ _____ _____    ______ ____
ROOT
ATOM      1  C   UNL     1       2.850   3.607  19.131  0.00  0.00    +0.000 C 
ENDROOT
BRANCH   1   2
ATOM      2  C   UNL     1       3.943   4.474  18.590  0.00  0.00    +0.000 A 
ATOM      3  N   UNL     1       4.958   4.838  19.404  0.00  0.00    +0.000 NA
ATOM      4  C   UNL     1       5.862   5.680  18.864  0.00  0.00    +0.000 A 
ATOM      5  C   UNL     1       7.141   5.768  19.378  0.00  0.00    +0.000 A 
ATOM      6  C   UNL     1       8.068   6.647  18.819  0.00  0.00    +0.000 A 
ATOM      7  C   UNL     1       7.649   7.553  17.850  0.00  0.00    +0.000 A 
ATOM      8 CL   UNL     1       8.734   8.755  17.276  0.00  0.00    +0.000 Cl
ATOM      9  C   UNL     1       6.387   7.435  17.289  0.00  0.00    +0.000 A 
ATOM     10  C   UNL     1       5.578   6.381  17.673  0.00  0.00    +0.000 A 
ATOM     11  N   UNL     1       4.636   5.921  16.840  0.00  0.00    +0.000 NA
ATOM     12  C   UNL     1       3.997   4.820  17.257  0.00  0.00    +0.000 A 
BRANCH  12  13
ATOM     13  O   UNL     1       4.104   3.747  16.387  0.00  0.00    +0.000 OA
ATOM     14  H   UNL     1       3.729   2.976  16.865  0.00  0.00    +0.000 HD
ENDBRANCH  12  13
ENDBRANCH   1   2
BRANCH   1  15
ATOM     15  C   UNL     1       3.180   2.132  19.115  0.00  0.00    +0.000 C 
ATOM     16  O   UNL     1       4.284   1.668  19.366  0.00  0.00    +0.000 OA
BRANCH  15  18
ATOM     17  C   UNL     1       0.876   2.145  18.627  0.00  0.00    +0.000 C 
ATOM     18  O   UNL     1       2.089   1.396  18.761  0.00  0.00    +0.000 OA
ENDBRANCH  15  18
ENDBRANCH   1  15
BRANCH   1  19
ATOM     19  C   UNL     1       2.461   4.045  20.512  0.00  0.00    +0.000 C 
ATOM     20  O   UNL     1       2.749   3.477  21.560  0.00  0.00    +0.000 OA
BRANCH  19  21
ATOM     21  C   UNL     1       1.599   5.290  20.534  0.00  0.00    +0.000 C 
ATOM     22  O   UNL     1       0.386   5.134  20.534  0.00  0.00    +0.000 OA
ATOM     23  N   UNL     1       2.296   6.481  20.498  0.00  0.00    +0.000 N 
ATOM     24  H   UNL     1       3.320   6.395  20.330  0.00  0.00    +0.000 HD
BRANCH  23  25
ATOM     25  C   UNL     1       1.723   7.783  20.544  0.00  0.00    +0.000 A 
ATOM     26  C   UNL     1       1.278   8.311  21.766  0.00  0.00    +0.000 A 
ATOM     27  C   UNL     1       0.711   9.589  21.860  0.00  0.00    +0.000 A 
ATOM     28  C   UNL     1       0.607  10.370  20.709  0.00  0.00    +0.000 A 
ATOM     29  C   UNL     1       1.051   9.887  19.474  0.00  0.00    +0.000 A 
ATOM     30  C   UNL     1       1.609   8.600  19.391  0.00  0.00    +0.000 A 
BRANCH  28  31
ATOM     31  N   UNL     1       0.013  11.710  20.822  0.00  0.00    +0.000 N 
ATOM     32  O   UNL     1      -0.917  11.992  20.065  0.00  0.00    +0.000 OA
ATOM     33  O   UNL     1       0.492  12.464  21.676  0.00  0.00    +0.000 OA
ENDBRANCH  28  31
BRANCH  30  34
ATOM     34  N   UNL     1       2.026   8.127  18.055  0.00  0.00    +0.000 N 
ATOM     35  O   UNL     1       1.586   7.041  17.653  0.00  0.00    +0.000 OA
ATOM     36  O   UNL     1       2.801   8.846  17.411  0.00  0.00    +0.000 OA
ENDBRANCH  30  34
ENDBRANCH  23  25
ENDBRANCH  19  21
ENDBRANCH   1  19
TORSDOF 9
ENDMDL
