MODEL 1
REMARK VINA RESULT:      -8.1      0.000      0.000
REMARK  Name = 
REMARK  3 active torsions:
REMARK  status: ('A' for Active; 'I' for Inactive)
REMARK    1  A    between atoms: C_1  and  C_2
REMARK    2  A    between atoms: C_5  and  C_6
REMARK    3  A    between atoms: C_22  and  N_23
REMARK                            x       y       z     vdW  Elec       q    Type
REMARK                         _______ _______ _______ _____ _____    ______ ____
ROOT
ATOM      1  C   UNL     1       0.139  11.580  19.177  0.00  0.00    +0.000 C 
ATOM      2  C   UNL     1      -0.297  12.307  20.428  0.00  0.00    +0.000 A 
ATOM      3  C   UNL     1       0.372  13.145  21.316  0.00  0.00    +0.000 A 
ATOM      4  C   UNL     1      -0.313  13.594  22.478  0.00  0.00    +0.000 A 
ATOM      5  C   UNL     1      -1.697  13.351  22.550  0.00  0.00    +0.000 A 
ATOM      6  C   UNL     1      -2.591  14.167  23.269  0.00  0.00    +0.000 A 
ATOM      7  C   UNL     1      -3.905  14.245  22.838  0.00  0.00    +0.000 A 
ATOM      8  C   UNL     1      -4.289  13.456  21.777  0.00  0.00    +0.000 A 
ATOM      9  N   UNL     1      -3.509  12.478  21.269  0.00  0.00    +0.000 NA
ATOM     10  C   UNL     1      -2.220  12.380  21.713  0.00  0.00    +0.000 A 
ATOM     11  C   UNL     1      -1.296  11.611  21.046  0.00  0.00    +0.000 A 
ATOM     12  O   UNL     1      -0.770  10.376  21.564  0.00  0.00    +0.000 OA
ATOM     13  C   UNL     1       0.358   9.794  20.877  0.00  0.00    +0.000 A 
ATOM     14  N   UNL     1       0.734   8.570  21.286  0.00  0.00    +0.000 NA
ATOM     15  C   UNL     1       1.511   7.836  20.427  0.00  0.00    +0.000 A 
ATOM     16  C   UNL     1       1.937   8.277  19.152  0.00  0.00    +0.000 A 
ATOM     17  C   UNL     1       1.566   9.554  18.757  0.00  0.00    +0.000 A 
ATOM     18  C   UNL     1       0.831  10.339  19.656  0.00  0.00    +0.000 A 
ATOM     19  C   UNL     1       2.539   7.319  18.151  0.00  0.00    +0.000 C 
ATOM     20  C   UNL     1       3.174   6.092  18.779  0.00  0.00    +0.000 C 
ATOM     21  C   UNL     1       2.220   5.478  19.792  0.00  0.00    +0.000 C 
ATOM     22  C   UNL     1       1.918   6.466  20.913  0.00  0.00    +0.000 C 
ENDROOT
BRANCH   1  27
ATOM     23  C   UNL     1      -3.212  10.116  14.734  0.00  0.00    +0.000 C 
ATOM     24  C   UNL     1      -2.666  10.402  16.095  0.00  0.00    +0.000 A 
ATOM     25  C   UNL     1      -2.090   9.413  16.906  0.00  0.00    +0.000 A 
ATOM     26  C   UNL     1      -1.293   9.750  18.012  0.00  0.00    +0.000 A 
ATOM     27  C   UNL     1      -1.102  11.093  18.325  0.00  0.00    +0.000 A 
ATOM     28  C   UNL     1      -1.929  12.043  17.648  0.00  0.00    +0.000 A 
ATOM     29  C   UNL     1      -2.650  11.717  16.523  0.00  0.00    +0.000 A 
ENDBRANCH   1  27
BRANCH  17  30
ATOM     30  N   UNL     1       1.946  10.083  17.502  0.00  0.00    +0.000 N 
ATOM     31  H   UNL     1       2.283   9.395  16.838  0.00  0.00    +0.000 HD
ATOM     32  H   UNL     1       1.206  10.625  17.059  0.00  0.00    +0.000 HD
ENDBRANCH  17  30
TORSDOF 2
ENDMDL
MODEL 2
REMARK VINA RESULT:      -7.6      3.032      5.127
REMARK  Name = 
REMARK  3 active torsions:
REMARK  status: ('A' for Active; 'I' for Inactive)
REMARK    1  A    between atoms: C_1  and  C_2
REMARK    2  A    between atoms: C_5  and  C_6
REMARK    3  A    between atoms: C_22  and  N_23
REMARK                            x       y       z     vdW  Elec       q    Type
REMARK                         _______ _______ _______ _____ _____    ______ ____
ROOT
ATOM      1  C   UNL     1      -1.017  11.984  21.190  0.00  0.00    +0.000 C 
ATOM      2  C   UNL     1      -1.868  12.598  22.278  0.00  0.00    +0.000 A 
ATOM      3  C   UNL     1      -2.630  12.049  23.306  0.00  0.00    +0.000 A 
ATOM      4  C   UNL     1      -3.412  12.918  24.114  0.00  0.00    +0.000 A 
ATOM      5  C   UNL     1      -3.198  14.301  23.975  0.00  0.00    +0.000 A 
ATOM      6  C   UNL     1      -3.417  15.229  25.012  0.00  0.00    +0.000 A 
ATOM      7  C   UNL     1      -2.665  16.392  25.026  0.00  0.00    +0.000 A 
ATOM      8  C   UNL     1      -1.801  16.621  23.979  0.00  0.00    +0.000 A 
ATOM      9  N   UNL     1      -1.795  15.871  22.855  0.00  0.00    +0.000 NA
ATOM     10  C   UNL     1      -2.557  14.738  22.827  0.00  0.00    +0.000 A 
ATOM     11  C   UNL     1      -2.382  13.788  21.849  0.00  0.00    +0.000 A 
ATOM     12  O   UNL     1      -3.336  13.547  20.797  0.00  0.00    +0.000 OA
ATOM     13  C   UNL     1      -3.141  12.373  19.981  0.00  0.00    +0.000 A 
ATOM     14  N   UNL     1      -3.953  12.252  18.916  0.00  0.00    +0.000 NA
ATOM     15  C   UNL     1      -3.553  11.396  17.922  0.00  0.00    +0.000 A 
ATOM     16  C   UNL     1      -2.356  10.644  17.942  0.00  0.00    +0.000 A 
ATOM     17  C   UNL     1      -1.544  10.757  19.061  0.00  0.00    +0.000 A 
ATOM     18  C   UNL     1      -1.978  11.575  20.114  0.00  0.00    +0.000 A 
ATOM     19  C   UNL     1      -1.842   9.953  16.700  0.00  0.00    +0.000 C 
ATOM     20  C   UNL     1      -2.922   9.631  15.684  0.00  0.00    +0.000 C 
ATOM     21  C   UNL     1      -3.792  10.856  15.448  0.00  0.00    +0.000 C 
ATOM     22  C   UNL     1      -4.484  11.280  16.739  0.00  0.00    +0.000 C 
ENDROOT
BRANCH   1  27
ATOM     23  C   UNL     1       3.360  14.360  18.307  0.00  0.00    +0.000 C 
ATOM     24  C   UNL     1       2.124  14.123  19.112  0.00  0.00    +0.000 A 
ATOM     25  C   UNL     1       0.844  14.067  18.542  0.00  0.00    +0.000 A 
ATOM     26  C   UNL     1      -0.244  13.518  19.240  0.00  0.00    +0.000 A 
ATOM     27  C   UNL     1      -0.049  13.051  20.536  0.00  0.00    +0.000 A 
ATOM     28  C   UNL     1       1.189  13.383  21.169  0.00  0.00    +0.000 A 
ATOM     29  C   UNL     1       2.271  13.855  20.461  0.00  0.00    +0.000 A 
ENDBRANCH   1  27
BRANCH  17  30
ATOM     30  N   UNL     1      -0.329  10.043  19.173  0.00  0.00    +0.000 N 
ATOM     31  H   UNL     1       0.501  10.583  18.953  0.00  0.00    +0.000 HD
ATOM     32  H   UNL     1      -0.203   9.615  20.089  0.00  0.00    +0.000 HD
ENDBRANCH  17  30
TORSDOF 2
ENDMDL
MODEL 3
REMARK VINA RESULT:      -7.4      3.062      5.208
REMARK  Name = 
REMARK  3 active torsions:
REMARK  status: ('A' for Active; 'I' for Inactive)
REMARK    1  A    between atoms: C_1  and  C_2
REMARK    2  A    between atoms: C_5  and  C_6
REMARK    3  A    between atoms: C_22  and  N_23
REMARK                            x       y       z     vdW  Elec       q    Type
REMARK                         _______ _______ _______ _____ _____    ______ ____
ROOT
ATOM      1  C   UNL     1      -0.995  12.132  21.138  0.00  0.00    +0.000 C 
ATOM      2  C   UNL     1      -1.841  12.732  22.238  0.00  0.00    +0.000 A 
ATOM      3  C   UNL     1      -2.557  12.171  23.293  0.00  0.00    +0.000 A 
ATOM      4  C   UNL     1      -3.350  13.023  24.108  0.00  0.00    +0.000 A 
ATOM      5  C   UNL     1      -3.192  14.411  23.944  0.00  0.00    +0.000 A 
ATOM      6  C   UNL     1      -3.418  15.345  24.973  0.00  0.00    +0.000 A 
ATOM      7  C   UNL     1      -2.710  16.535  24.952  0.00  0.00    +0.000 A 
ATOM      8  C   UNL     1      -1.881  16.780  23.880  0.00  0.00    +0.000 A 
ATOM      9  N   UNL     1      -1.875  16.014  22.767  0.00  0.00    +0.000 NA
ATOM     10  C   UNL     1      -2.595  14.853  22.774  0.00  0.00    +0.000 A 
ATOM     11  C   UNL     1      -2.409  13.896  21.805  0.00  0.00    +0.000 A 
ATOM     12  O   UNL     1      -3.379  13.604  20.782  0.00  0.00    +0.000 OA
ATOM     13  C   UNL     1      -3.162  12.426  19.978  0.00  0.00    +0.000 A 
ATOM     14  N   UNL     1      -3.994  12.259  18.935  0.00  0.00    +0.000 NA
ATOM     15  C   UNL     1      -3.588  11.404  17.943  0.00  0.00    +0.000 A 
ATOM     16  C   UNL     1      -2.363  10.696  17.944  0.00  0.00    +0.000 A 
ATOM     17  C   UNL     1      -1.529  10.856  19.041  0.00  0.00    +0.000 A 
ATOM     18  C   UNL     1      -1.966  11.672  20.092  0.00  0.00    +0.000 A 
ATOM     19  C   UNL     1      -1.854  10.006  16.700  0.00  0.00    +0.000 C 
ATOM     20  C   UNL     1      -2.947   9.629  15.715  0.00  0.00    +0.000 C 
ATOM     21  C   UNL     1      -3.866  10.818  15.484  0.00  0.00    +0.000 C 
ATOM     22  C   UNL     1      -4.542  11.235  16.786  0.00  0.00    +0.000 C 
ENDROOT
BRANCH   1  27
ATOM     23  C   UNL     1       0.980  17.172  19.184  0.00  0.00    +0.000 C 
ATOM     24  C   UNL     1       0.800  15.729  19.525  0.00  0.00    +0.000 A 
ATOM     25  C   UNL     1       1.358  15.143  20.671  0.00  0.00    +0.000 A 
ATOM     26  C   UNL     1       0.910  13.900  21.147  0.00  0.00    +0.000 A 
ATOM     27  C   UNL     1      -0.084  13.225  20.446  0.00  0.00    +0.000 A 
ATOM     28  C   UNL     1      -0.416  13.721  19.147  0.00  0.00    +0.000 A 
ATOM     29  C   UNL     1      -0.030  14.971  18.719  0.00  0.00    +0.000 A 
ENDBRANCH   1  27
BRANCH  17  30
ATOM     30  N   UNL     1      -0.286  10.188  19.133  0.00  0.00    +0.000 N 
ATOM     31  H   UNL     1      -0.347   9.176  19.119  0.00  0.00    +0.000 HD
ATOM     32  H   UNL     1       0.377  10.482  18.417  0.00  0.00    +0.000 HD
ENDBRANCH  17  30
TORSDOF 2
ENDMDL
MODEL 4
REMARK VINA RESULT:      -7.2      3.698      9.322
REMARK  Name = 
REMARK  3 active torsions:
REMARK  status: ('A' for Active; 'I' for Inactive)
REMARK    1  A    between atoms: C_1  and  C_2
REMARK    2  A    between atoms: C_5  and  C_6
REMARK    3  A    between atoms: C_22  and  N_23
REMARK                            x       y       z     vdW  Elec       q    Type
REMARK                         _______ _______ _______ _____ _____    ______ ____
ROOT
ATOM      1  C   UNL     1       4.236   5.616  18.818  0.00  0.00    +0.000 C 
ATOM      2  C   UNL     1       5.318   5.853  17.790  0.00  0.00    +0.000 A 
ATOM      3  C   UNL     1       6.562   6.477  17.852  0.00  0.00    +0.000 A 
ATOM      4  C   UNL     1       7.311   6.625  16.654  0.00  0.00    +0.000 A 
ATOM      5  C   UNL     1       6.858   5.934  15.515  0.00  0.00    +0.000 A 
ATOM      6  C   UNL     1       7.709   5.502  14.480  0.00  0.00    +0.000 A 
ATOM      7  C   UNL     1       7.346   4.381  13.752  0.00  0.00    +0.000 A 
ATOM      8  C   UNL     1       6.129   3.795  14.023  0.00  0.00    +0.000 A 
ATOM      9  N   UNL     1       5.200   4.369  14.817  0.00  0.00    +0.000 NA
ATOM     10  C   UNL     1       5.545   5.491  15.516  0.00  0.00    +0.000 A 
ATOM     11  C   UNL     1       4.763   5.955  16.546  0.00  0.00    +0.000 A 
ATOM     12  O   UNL     1       3.982   7.162  16.468  0.00  0.00    +0.000 OA
ATOM     13  C   UNL     1       3.398   7.655  17.692  0.00  0.00    +0.000 A 
ATOM     14  N   UNL     1       2.553   8.693  17.568  0.00  0.00    +0.000 NA
ATOM     15  C   UNL     1       1.694   8.926  18.612  0.00  0.00    +0.000 A 
ATOM     16  C   UNL     1       1.638   8.153  19.795  0.00  0.00    +0.000 A 
ATOM     17  C   UNL     1       2.537   7.104  19.921  0.00  0.00    +0.000 A 
ATOM     18  C   UNL     1       3.466   6.901  18.891  0.00  0.00    +0.000 A 
ATOM     19  C   UNL     1       0.486   8.284  20.764  0.00  0.00    +0.000 C 
ATOM     20  C   UNL     1      -0.221   9.626  20.702  0.00  0.00    +0.000 C 
ATOM     21  C   UNL     1      -0.530   9.980  19.256  0.00  0.00    +0.000 C 
ATOM     22  C   UNL     1       0.756  10.098  18.446  0.00  0.00    +0.000 C 
ENDROOT
BRANCH   1  27
ATOM     23  C   UNL     1       0.406   1.322  18.852  0.00  0.00    +0.000 C 
ATOM     24  C   UNL     1       1.347   2.410  18.452  0.00  0.00    +0.000 A 
ATOM     25  C   UNL     1       0.931   3.731  18.229  0.00  0.00    +0.000 A 
ATOM     26  C   UNL     1       1.853   4.789  18.188  0.00  0.00    +0.000 A 
ATOM     27  C   UNL     1       3.209   4.512  18.338  0.00  0.00    +0.000 A 
ATOM     28  C   UNL     1       3.603   3.139  18.279  0.00  0.00    +0.000 A 
ATOM     29  C   UNL     1       2.696   2.111  18.391  0.00  0.00    +0.000 A 
ENDBRANCH   1  27
BRANCH  17  30
ATOM     30  N   UNL     1       2.558   6.277  21.067  0.00  0.00    +0.000 N 
ATOM     31  H   UNL     1       3.445   6.259  21.558  0.00  0.00    +0.000 HD
ATOM     32  H   UNL     1       1.824   6.505  21.735  0.00  0.00    +0.000 HD
ENDBRANCH  17  30
TORSDOF 2
ENDMDL
MODEL 5
REMARK VINA RESULT:      -7.2      0.839      1.261
REMARK  Name = 
REMARK  3 active torsions:
REMARK  status: ('A' for Active; 'I' for Inactive)
REMARK    1  A    between atoms: C_1  and  C_2
REMARK    2  A    between atoms: C_5  and  C_6
REMARK    3  A    between atoms: C_22  and  N_23
REMARK                            x       y       z     vdW  Elec       q    Type
REMARK                         _______ _______ _______ _____ _____    ______ ____
ROOT
ATOM      1  C   UNL     1       0.035  11.851  19.347  0.00  0.00    +0.000 C 
ATOM      2  C   UNL     1      -0.395  12.499  20.643  0.00  0.00    +0.000 A 
ATOM      3  C   UNL     1       0.275  13.289  21.573  0.00  0.00    +0.000 A 
ATOM      4  C   UNL     1      -0.402  13.662  22.766  0.00  0.00    +0.000 A 
ATOM      5  C   UNL     1      -1.783  13.401  22.837  0.00  0.00    +0.000 A 
ATOM      6  C   UNL     1      -2.677  14.163  23.613  0.00  0.00    +0.000 A 
ATOM      7  C   UNL     1      -3.997  14.253  23.200  0.00  0.00    +0.000 A 
ATOM      8  C   UNL     1      -4.384  13.525  22.097  0.00  0.00    +0.000 A 
ATOM      9  N   UNL     1      -3.600  12.587  21.525  0.00  0.00    +0.000 NA
ATOM     10  C   UNL     1      -2.306  12.475  21.949  0.00  0.00    +0.000 A 
ATOM     11  C   UNL     1      -1.382  11.757  21.228  0.00  0.00    +0.000 A 
ATOM     12  O   UNL     1      -0.838  10.498  21.667  0.00  0.00    +0.000 OA
ATOM     13  C   UNL     1       0.288   9.970  20.936  0.00  0.00    +0.000 A 
ATOM     14  N   UNL     1       0.680   8.728  21.268  0.00  0.00    +0.000 NA
ATOM     15  C   UNL     1       1.455   8.054  20.360  0.00  0.00    +0.000 A 
ATOM     16  C   UNL     1       1.863   8.574  19.109  0.00  0.00    +0.000 A 
ATOM     17  C   UNL     1       1.476   9.868  18.794  0.00  0.00    +0.000 A 
ATOM     18  C   UNL     1       0.743  10.591  19.745  0.00  0.00    +0.000 A 
ATOM     19  C   UNL     1       2.464   7.683  18.047  0.00  0.00    +0.000 C 
ATOM     20  C   UNL     1       3.118   6.427  18.595  0.00  0.00    +0.000 C 
ATOM     21  C   UNL     1       2.180   5.745  19.579  0.00  0.00    +0.000 C 
ATOM     22  C   UNL     1       1.881   6.662  20.759  0.00  0.00    +0.000 C 
ENDROOT
BRANCH   1  27
ATOM     23  C   UNL     1      -5.194   9.978  17.840  0.00  0.00    +0.000 C 
ATOM     24  C   UNL     1      -3.786  10.477  17.839  0.00  0.00    +0.000 A 
ATOM     25  C   UNL     1      -3.461  11.838  17.736  0.00  0.00    +0.000 A 
ATOM     26  C   UNL     1      -2.183  12.311  18.072  0.00  0.00    +0.000 A 
ATOM     27  C   UNL     1      -1.211  11.402  18.480  0.00  0.00    +0.000 A 
ATOM     28  C   UNL     1      -1.500  10.014  18.299  0.00  0.00    +0.000 A 
ATOM     29  C   UNL     1      -2.772   9.558  18.040  0.00  0.00    +0.000 A 
ENDBRANCH   1  27
BRANCH  17  30
ATOM     30  N   UNL     1       1.838  10.475  17.569  0.00  0.00    +0.000 N 
ATOM     31  H   UNL     1       2.647  10.063  17.116  0.00  0.00    +0.000 HD
ATOM     32  H   UNL     1       1.072  10.503  16.898  0.00  0.00    +0.000 HD
ENDBRANCH  17  30
TORSDOF 2
ENDMDL
MODEL 6
REMARK VINA RESULT:      -7.1      8.189     11.488
REMARK  Name = 
REMARK  3 active torsions:
REMARK  status: ('A' for Active; 'I' for Inactive)
REMARK    1  A    between atoms: C_1  and  C_2
REMARK    2  A    between atoms: C_5  and  C_6
REMARK    3  A    between atoms: C_22  and  N_23
REMARK                            x       y       z     vdW  Elec       q    Type
REMARK                         _______ _______ _______ _____ _____    ______ ____
ROOT
ATOM      1  C   UNL     1       8.225  16.112  19.963  0.00  0.00    +0.000 C 
ATOM      2  C   UNL     1       9.193  15.361  19.078  0.00  0.00    +0.000 A 
ATOM      3  C   UNL     1       9.926  15.729  17.953  0.00  0.00    +0.000 A 
ATOM      4  C   UNL     1      10.683  14.734  17.277  0.00  0.00    +0.000 A 
ATOM      5  C   UNL     1      10.829  13.487  17.911  0.00  0.00    +0.000 A 
ATOM      6  C   UNL     1      11.937  12.641  17.713  0.00  0.00    +0.000 A 
ATOM      7  C   UNL     1      12.309  11.789  18.740  0.00  0.00    +0.000 A 
ATOM      8  C   UNL     1      11.526  11.754  19.872  0.00  0.00    +0.000 A 
ATOM      9  N   UNL     1      10.319  12.356  19.948  0.00  0.00    +0.000 NA
ATOM     10  C   UNL     1       9.936  13.175  18.923  0.00  0.00    +0.000 A 
ATOM     11  C   UNL     1       8.872  14.034  19.060  0.00  0.00    +0.000 A 
ATOM     12  O   UNL     1       7.615  13.854  18.381  0.00  0.00    +0.000 OA
ATOM     13  C   UNL     1       6.673  14.946  18.429  0.00  0.00    +0.000 A 
ATOM     14  N   UNL     1       5.454  14.698  17.919  0.00  0.00    +0.000 NA
ATOM     15  C   UNL     1       4.438  15.539  18.294  0.00  0.00    +0.000 A 
ATOM     16  C   UNL     1       4.586  16.636  19.175  0.00  0.00    +0.000 A 
ATOM     17  C   UNL     1       5.856  16.897  19.669  0.00  0.00    +0.000 A 
ATOM     18  C   UNL     1       6.914  16.086  19.236  0.00  0.00    +0.000 A 
ATOM     19  C   UNL     1       3.385  17.336  19.767  0.00  0.00    +0.000 C 
ATOM     20  C   UNL     1       2.121  17.195  18.938  0.00  0.00    +0.000 C 
ATOM     21  C   UNL     1       1.915  15.738  18.553  0.00  0.00    +0.000 C 
ATOM     22  C   UNL     1       3.080  15.237  17.707  0.00  0.00    +0.000 C 
ENDROOT
BRANCH   1  27
ATOM     23  C   UNL     1       7.765  11.950  23.911  0.00  0.00    +0.000 C 
ATOM     24  C   UNL     1       7.781  13.260  23.192  0.00  0.00    +0.000 A 
ATOM     25  C   UNL     1       8.900  14.106  23.179  0.00  0.00    +0.000 A 
ATOM     26  C   UNL     1       9.017  15.146  22.243  0.00  0.00    +0.000 A 
ATOM     27  C   UNL     1       7.985  15.358  21.334  0.00  0.00    +0.000 A 
ATOM     28  C   UNL     1       6.758  14.661  21.567  0.00  0.00    +0.000 A 
ATOM     29  C   UNL     1       6.674  13.597  22.436  0.00  0.00    +0.000 A 
ENDBRANCH   1  27
BRANCH  17  30
ATOM     30  N   UNL     1       6.104  17.973  20.552  0.00  0.00    +0.000 N 
ATOM     31  H   UNL     1       6.491  17.702  21.449  0.00  0.00    +0.000 HD
ATOM     32  H   UNL     1       6.700  18.691  20.145  0.00  0.00    +0.000 HD
ENDBRANCH  17  30
TORSDOF 2
ENDMDL
MODEL 7
REMARK VINA RESULT:      -6.8      2.632      7.677
REMARK  Name = 
REMARK  3 active torsions:
REMARK  status: ('A' for Active; 'I' for Inactive)
REMARK    1  A    between atoms: C_1  and  C_2
REMARK    2  A    between atoms: C_5  and  C_6
REMARK    3  A    between atoms: C_22  and  N_23
REMARK                            x       y       z     vdW  Elec       q    Type
REMARK                         _______ _______ _______ _____ _____    ______ ____
ROOT
ATOM      1  C   UNL     1      -2.623  12.759  23.010  0.00  0.00    +0.000 C 
ATOM      2  C   UNL     1      -1.693  11.905  22.179  0.00  0.00    +0.000 A 
ATOM      3  C   UNL     1      -0.795  10.892  22.505  0.00  0.00    +0.000 A 
ATOM      4  C   UNL     1       0.022  10.348  21.477  0.00  0.00    +0.000 A 
ATOM      5  C   UNL     1      -0.281  10.704  20.150  0.00  0.00    +0.000 A 
ATOM      6  C   UNL     1      -0.002   9.881  19.042  0.00  0.00    +0.000 A 
ATOM      7  C   UNL     1      -0.809   9.986  17.922  0.00  0.00    +0.000 A 
ATOM      8  C   UNL     1      -1.794  10.949  17.918  0.00  0.00    +0.000 A 
ATOM      9  N   UNL     1      -1.881  11.913  18.860  0.00  0.00    +0.000 NA
ATOM     10  C   UNL     1      -1.066  11.829  19.953  0.00  0.00    +0.000 A 
ATOM     11  C   UNL     1      -1.295  12.596  21.070  0.00  0.00    +0.000 A 
ATOM     12  O   UNL     1      -0.450  13.692  21.467  0.00  0.00    +0.000 OA
ATOM     13  C   UNL     1      -0.668  14.258  22.776  0.00  0.00    +0.000 A 
ATOM     14  N   UNL     1       0.028  15.372  23.062  0.00  0.00    +0.000 NA
ATOM     15  C   UNL     1      -0.430  16.145  24.098  0.00  0.00    +0.000 A 
ATOM     16  C   UNL     1      -1.576  15.852  24.874  0.00  0.00    +0.000 A 
ATOM     17  C   UNL     1      -2.266  14.683  24.586  0.00  0.00    +0.000 A 
ATOM     18  C   UNL     1      -1.765  13.851  23.576  0.00  0.00    +0.000 A 
ATOM     19  C   UNL     1      -2.184  16.882  25.797  0.00  0.00    +0.000 C 
ATOM     20  C   UNL     1      -1.205  17.945  26.263  0.00  0.00    +0.000 C 
ATOM     21  C   UNL     1      -0.434  18.495  25.073  0.00  0.00    +0.000 C 
ATOM     22  C   UNL     1       0.370  17.390  24.397  0.00  0.00    +0.000 C 
ENDROOT
BRANCH   1  27
ATOM     23  C   UNL     1      -7.471  15.361  21.323  0.00  0.00    +0.000 C 
ATOM     24  C   UNL     1      -6.116  14.734  21.380  0.00  0.00    +0.000 A 
ATOM     25  C   UNL     1      -4.942  15.476  21.576  0.00  0.00    +0.000 A 
ATOM     26  C   UNL     1      -3.742  14.857  21.960  0.00  0.00    +0.000 A 
ATOM     27  C   UNL     1      -3.713  13.474  22.113  0.00  0.00    +0.000 A 
ATOM     28  C   UNL     1      -4.844  12.742  21.634  0.00  0.00    +0.000 A 
ATOM     29  C   UNL     1      -6.038  13.354  21.328  0.00  0.00    +0.000 A 
ENDBRANCH   1  27
BRANCH  17  30
ATOM     30  N   UNL     1      -3.420  14.304  25.309  0.00  0.00    +0.000 N 
ATOM     31  H   UNL     1      -3.238  13.949  26.241  0.00  0.00    +0.000 HD
ATOM     32  H   UNL     1      -4.110  15.051  25.376  0.00  0.00    +0.000 HD
ENDBRANCH  17  30
TORSDOF 2
ENDMDL
MODEL 8
REMARK VINA RESULT:      -6.8      7.954     11.401
REMARK  Name = 
REMARK  3 active torsions:
REMARK  status: ('A' for Active; 'I' for Inactive)
REMARK    1  A    between atoms: C_1  and  C_2
REMARK    2  A    between atoms: C_5  and  C_6
REMARK    3  A    between atoms: C_22  and  N_23
REMARK                            x       y       z     vdW  Elec       q    Type
REMARK                         _______ _______ _______ _____ _____    ______ ____
ROOT
ATOM      1  C   UNL     1       7.999  15.877  20.292  0.00  0.00    +0.000 C 
ATOM      2  C   UNL     1       8.981  15.316  19.288  0.00  0.00    +0.000 A 
ATOM      3  C   UNL     1       9.787  15.910  18.320  0.00  0.00    +0.000 A 
ATOM      4  C   UNL     1      10.537  15.074  17.450  0.00  0.00    +0.000 A 
ATOM      5  C   UNL     1      10.597  13.703  17.759  0.00  0.00    +0.000 A 
ATOM      6  C   UNL     1      11.678  12.874  17.402  0.00  0.00    +0.000 A 
ATOM      7  C   UNL     1      11.959  11.776  18.199  0.00  0.00    +0.000 A 
ATOM      8  C   UNL     1      11.116  11.506  19.254  0.00  0.00    +0.000 A 
ATOM      9  N   UNL     1       9.933  12.134  19.428  0.00  0.00    +0.000 NA
ATOM     10  C   UNL     1       9.640  13.199  18.625  0.00  0.00    +0.000 A 
ATOM     11  C   UNL     1       8.606  14.053  18.927  0.00  0.00    +0.000 A 
ATOM     12  O   UNL     1       7.381  14.114  18.173  0.00  0.00    +0.000 OA
ATOM     13  C   UNL     1       6.484  15.209  18.453  0.00  0.00    +0.000 A 
ATOM     14  N   UNL     1       5.284  15.160  17.848  0.00  0.00    +0.000 NA
ATOM     15  C   UNL     1       4.285  15.936  18.378  0.00  0.00    +0.000 A 
ATOM     16  C   UNL     1       4.432  16.773  19.509  0.00  0.00    +0.000 A 
ATOM     17  C   UNL     1       5.684  16.835  20.104  0.00  0.00    +0.000 A 
ATOM     18  C   UNL     1       6.729  16.101  19.527  0.00  0.00    +0.000 A 
ATOM     19  C   UNL     1       3.232  17.368  20.207  0.00  0.00    +0.000 C 
ATOM     20  C   UNL     1       2.009  17.504  19.318  0.00  0.00    +0.000 C 
ATOM     21  C   UNL     1       1.763  16.200  18.575  0.00  0.00    +0.000 C 
ATOM     22  C   UNL     1       2.950  15.862  17.679  0.00  0.00    +0.000 C 
ENDROOT
BRANCH   1  27
ATOM     23  C   UNL     1       6.454  13.558  25.327  0.00  0.00    +0.000 C 
ATOM     24  C   UNL     1       6.893  13.779  23.916  0.00  0.00    +0.000 A 
ATOM     25  C   UNL     1       5.999  13.791  22.835  0.00  0.00    +0.000 A 
ATOM     26  C   UNL     1       6.367  14.326  21.590  0.00  0.00    +0.000 A 
ATOM     27  C   UNL     1       7.656  14.822  21.420  0.00  0.00    +0.000 A 
ATOM     28  C   UNL     1       8.605  14.534  22.449  0.00  0.00    +0.000 A 
ATOM     29  C   UNL     1       8.225  14.076  23.690  0.00  0.00    +0.000 A 
ENDBRANCH   1  27
BRANCH  17  30
ATOM     30  N   UNL     1       5.929  17.645  21.237  0.00  0.00    +0.000 N 
ATOM     31  H   UNL     1       5.441  17.356  22.077  0.00  0.00    +0.000 HD
ATOM     32  H   UNL     1       6.920  17.736  21.453  0.00  0.00    +0.000 HD
ENDBRANCH  17  30
TORSDOF 2
ENDMDL
MODEL 9
REMARK VINA RESULT:      -6.7      2.966      4.848
REMARK  Name = 
REMARK  3 active torsions:
REMARK  status: ('A' for Active; 'I' for Inactive)
REMARK    1  A    between atoms: C_1  and  C_2
REMARK    2  A    between atoms: C_5  and  C_6
REMARK    3  A    between atoms: C_22  and  N_23
REMARK                            x       y       z     vdW  Elec       q    Type
REMARK                         _______ _______ _______ _____ _____    ______ ____
ROOT
ATOM      1  C   UNL     1      -2.499  14.788  21.060  0.00  0.00    +0.000 C 
ATOM      2  C   UNL     1      -2.338  15.759  22.207  0.00  0.00    +0.000 A 
ATOM      3  C   UNL     1      -1.363  16.704  22.517  0.00  0.00    +0.000 A 
ATOM      4  C   UNL     1      -1.456  17.400  23.752  0.00  0.00    +0.000 A 
ATOM      5  C   UNL     1      -2.646  17.259  24.489  0.00  0.00    +0.000 A 
ATOM      6  C   UNL     1      -3.139  18.246  25.364  0.00  0.00    +0.000 A 
ATOM      7  C   UNL     1      -4.506  18.323  25.570  0.00  0.00    +0.000 A 
ATOM      8  C   UNL     1      -5.308  17.377  24.971  0.00  0.00    +0.000 A 
ATOM      9  N   UNL     1      -4.816  16.276  24.363  0.00  0.00    +0.000 NA
ATOM     10  C   UNL     1      -3.464  16.183  24.183  0.00  0.00    +0.000 A 
ATOM     11  C   UNL     1      -2.924  15.250  23.331  0.00  0.00    +0.000 A 
ATOM     12  O   UNL     1      -2.181  14.102  23.780  0.00  0.00    +0.000 OA
ATOM     13  C   UNL     1      -1.474  13.337  22.782  0.00  0.00    +0.000 A 
ATOM     14  N   UNL     1      -0.915  12.188  23.203  0.00  0.00    +0.000 NA
ATOM     15  C   UNL     1      -0.593  11.263  22.243  0.00  0.00    +0.000 A 
ATOM     16  C   UNL     1      -0.810  11.435  20.856  0.00  0.00    +0.000 A 
ATOM     17  C   UNL     1      -1.359  12.637  20.435  0.00  0.00    +0.000 A 
ATOM     18  C   UNL     1      -1.627  13.617  21.401  0.00  0.00    +0.000 A 
ATOM     19  C   UNL     1      -0.702  10.274  19.895  0.00  0.00    +0.000 C 
ATOM     20  C   UNL     1       0.188   9.147  20.389  0.00  0.00    +0.000 C 
ATOM     21  C   UNL     1      -0.180   8.789  21.820  0.00  0.00    +0.000 C 
ATOM     22  C   UNL     1       0.033   9.984  22.744  0.00  0.00    +0.000 C 
ENDROOT
BRANCH   1  27
ATOM     23  C   UNL     1      -7.402  12.576  19.016  0.00  0.00    +0.000 C 
ATOM     24  C   UNL     1      -6.332  13.148  19.887  0.00  0.00    +0.000 A 
ATOM     25  C   UNL     1      -5.447  12.350  20.627  0.00  0.00    +0.000 A 
ATOM     26  C   UNL     1      -4.259  12.878  21.159  0.00  0.00    +0.000 A 
ATOM     27  C   UNL     1      -3.976  14.228  20.974  0.00  0.00    +0.000 A 
ATOM     28  C   UNL     1      -5.030  15.051  20.465  0.00  0.00    +0.000 A 
ATOM     29  C   UNL     1      -6.157  14.520  19.882  0.00  0.00    +0.000 A 
ENDBRANCH   1  27
BRANCH  17  30
ATOM     30  N   UNL     1      -1.610  12.902  19.069  0.00  0.00    +0.000 N 
ATOM     31  H   UNL     1      -2.591  13.001  18.831  0.00  0.00    +0.000 HD
ATOM     32  H   UNL     1      -1.110  13.719  18.725  0.00  0.00    +0.000 HD
ENDBRANCH  17  30
TORSDOF 2
ENDMDL
