MODEL 1
REMARK VINA RESULT:      -7.3      0.000      0.000
REMARK  Name = 
REMARK  11 active torsions:
REMARK  status: ('A' for Active; 'I' for Inactive)
REMARK    1  A    between atoms: C_2  and  C_3
REMARK    2  A    between atoms: C_3  and  N_4
REMARK    3  A    between atoms: C_5  and  C_6
REMARK    4  A    between atoms: C_6  and  O_7
REMARK    5  A    between atoms: O_7  and  C_8
REMARK    6  A    between atoms: C_15  and  C_16
REMARK    7  A    between atoms: C_21  and  S_22
REMARK    8  A    between atoms: S_22  and  C_23
REMARK    9  A    between atoms: C_23  and  C_24
REMARK   10  A    between atoms: C_24  and  O_26
REMARK   11  A    between atoms: O_26  and  C_27
REMARK                            x       y       z     vdW  Elec       q    Type
REMARK                         _______ _______ _______ _____ _____    ______ ____
ROOT
ATOM      1  N   UNL     1       3.183   5.571  19.097  0.00  0.00    +0.000 N 
ATOM      2  C   UNL     1       2.720   6.871  19.161  0.00  0.00    +0.000 A 
ATOM      3  N   UNL     1       3.167   7.528  18.105  0.00  0.00    +0.000 NA
ATOM      4  N   UNL     1       3.914   6.665  17.340  0.00  0.00    +0.000 NA
ATOM      5  C   UNL     1       3.911   5.498  17.937  0.00  0.00    +0.000 A 
ENDROOT
BRANCH   1   6
ATOM      6  C   UNL     1       3.020   4.530  20.099  0.00  0.00    +0.000 C 
BRANCH   6   8
ATOM      7  C   UNL     1       1.195   2.964  21.003  0.00  0.00    +0.000 C 
ATOM      8  C   UNL     1       1.735   3.746  20.059  0.00  0.00    +0.000 C 
ENDBRANCH   6   8
ENDBRANCH   1   6
BRANCH   2   9
ATOM      9  C   UNL     1       1.726   7.387  20.156  0.00  0.00    +0.000 C 
BRANCH   9  10
ATOM     10  O   UNL     1       1.554   8.797  19.964  0.00  0.00    +0.000 OA
BRANCH  10  11
ATOM     11  C   UNL     1       0.794   9.461  20.919  0.00  0.00    +0.000 A 
ATOM     12  C   UNL     1       0.782   8.819  22.166  0.00  0.00    +0.000 A 
ATOM     13  C   UNL     1       0.028   9.325  23.224  0.00  0.00    +0.000 A 
ATOM     14  C   UNL     1      -0.735  10.472  23.036  0.00  0.00    +0.000 A 
ATOM     15  C   UNL     1      -0.739  11.124  21.794  0.00  0.00    +0.000 A 
ATOM     16  C   UNL     1      -1.516  12.277  21.595  0.00  0.00    +0.000 A 
ATOM     17  C   UNL     1      -1.512  12.920  20.364  0.00  0.00    +0.000 A 
ATOM     18  C   UNL     1      -0.729  12.390  19.357  0.00  0.00    +0.000 A 
ATOM     19  C   UNL     1      -0.643  13.017  18.001  0.00  0.00    +0.000 C 
ATOM     20  N   UNL     1       0.015  11.274  19.532  0.00  0.00    +0.000 NA
ATOM     21  C   UNL     1       0.037  10.630  20.714  0.00  0.00    +0.000 A 
ENDBRANCH  10  11
ENDBRANCH   9  10
ENDBRANCH   2   9
BRANCH   5  22
ATOM     22  S   UNL     1       4.665   4.056  17.347  0.00  0.00    +0.000 S 
BRANCH  22  23
ATOM     23  C   UNL     1       5.741   4.732  16.048  0.00  0.00    +0.000 C 
BRANCH  23  24
ATOM     24  C   UNL     1       7.127   5.058  16.568  0.00  0.00    +0.000 C 
ATOM     25  O   UNL     1       7.952   4.245  16.975  0.00  0.00    +0.000 OA
BRANCH  24  26
ATOM     26  O   UNL     1       7.363   6.397  16.426  0.00  0.00    +0.000 OA
ATOM     27  C   UNL     1       7.602   7.079  17.659  0.00  0.00    +0.000 C 
ENDBRANCH  24  26
ENDBRANCH  23  24
ENDBRANCH  22  23
ENDBRANCH   5  22
TORSDOF 9
ENDMDL
MODEL 2
REMARK VINA RESULT:      -7.1      1.748      2.247
REMARK  Name = 
REMARK  11 active torsions:
REMARK  status: ('A' for Active; 'I' for Inactive)
REMARK    1  A    between atoms: C_2  and  C_3
REMARK    2  A    between atoms: C_3  and  N_4
REMARK    3  A    between atoms: C_5  and  C_6
REMARK    4  A    between atoms: C_6  and  O_7
REMARK    5  A    between atoms: O_7  and  C_8
REMARK    6  A    between atoms: C_15  and  C_16
REMARK    7  A    between atoms: C_21  and  S_22
REMARK    8  A    between atoms: S_22  and  C_23
REMARK    9  A    between atoms: C_23  and  C_24
REMARK   10  A    between atoms: C_24  and  O_26
REMARK   11  A    between atoms: O_26  and  C_27
REMARK                            x       y       z     vdW  Elec       q    Type
REMARK                         _______ _______ _______ _____ _____    ______ ____
ROOT
ATOM      1  N   UNL     1       3.245   6.055  19.095  0.00  0.00    +0.000 N 
ATOM      2  C   UNL     1       2.787   7.308  18.735  0.00  0.00    +0.000 A 
ATOM      3  N   UNL     1       3.396   7.672  17.619  0.00  0.00    +0.000 NA
ATOM      4  N   UNL     1       4.245   6.661  17.237  0.00  0.00    +0.000 NA
ATOM      5  C   UNL     1       4.142   5.699  18.122  0.00  0.00    +0.000 A 
ENDROOT
BRANCH   1   6
ATOM      6  C   UNL     1       2.922   5.318  20.306  0.00  0.00    +0.000 C 
BRANCH   6   8
ATOM      7  C   UNL     1       1.179   3.787  19.204  0.00  0.00    +0.000 C 
ATOM      8  C   UNL     1       2.094   4.072  20.140  0.00  0.00    +0.000 C 
ENDBRANCH   6   8
ENDBRANCH   1   6
BRANCH   2   9
ATOM      9  C   UNL     1       1.656   8.038  19.392  0.00  0.00    +0.000 C 
BRANCH   9  10
ATOM     10  O   UNL     1       1.270   9.148  18.571  0.00  0.00    +0.000 OA
BRANCH  10  11
ATOM     11  C   UNL     1       0.376  10.049  19.135  0.00  0.00    +0.000 A 
ATOM     12  C   UNL     1       0.769  10.506  20.401  0.00  0.00    +0.000 A 
ATOM     13  C   UNL     1      -0.039  11.379  21.129  0.00  0.00    +0.000 A 
ATOM     14  C   UNL     1      -1.258  11.789  20.600  0.00  0.00    +0.000 A 
ATOM     15  C   UNL     1      -1.669  11.338  19.338  0.00  0.00    +0.000 A 
ATOM     16  C   UNL     1      -2.904  11.740  18.803  0.00  0.00    +0.000 A 
ATOM     17  C   UNL     1      -3.304  11.292  17.551  0.00  0.00    +0.000 A 
ATOM     18  C   UNL     1      -2.456  10.449  16.861  0.00  0.00    +0.000 A 
ATOM     19  C   UNL     1      -2.786   9.924  15.499  0.00  0.00    +0.000 C 
ATOM     20  N   UNL     1      -1.269  10.044  17.369  0.00  0.00    +0.000 NA
ATOM     21  C   UNL     1      -0.850  10.463  18.578  0.00  0.00    +0.000 A 
ENDBRANCH  10  11
ENDBRANCH   9  10
ENDBRANCH   2   9
BRANCH   5  22
ATOM     22  S   UNL     1       4.966   4.178  18.064  0.00  0.00    +0.000 S 
BRANCH  22  23
ATOM     23  C   UNL     1       5.673   4.228  16.391  0.00  0.00    +0.000 C 
BRANCH  23  24
ATOM     24  C   UNL     1       7.132   4.639  16.400  0.00  0.00    +0.000 C 
ATOM     25  O   UNL     1       7.933   4.431  17.306  0.00  0.00    +0.000 OA
BRANCH  24  26
ATOM     26  O   UNL     1       7.454   5.199  15.195  0.00  0.00    +0.000 OA
ATOM     27  C   UNL     1       6.721   4.666  14.090  0.00  0.00    +0.000 C 
ENDBRANCH  24  26
ENDBRANCH  23  24
ENDBRANCH  22  23
ENDBRANCH   5  22
TORSDOF 9
ENDMDL
MODEL 3
REMARK VINA RESULT:      -7.1      2.702      4.097
REMARK  Name = 
REMARK  11 active torsions:
REMARK  status: ('A' for Active; 'I' for Inactive)
REMARK    1  A    between atoms: C_2  and  C_3
REMARK    2  A    between atoms: C_3  and  N_4
REMARK    3  A    between atoms: C_5  and  C_6
REMARK    4  A    between atoms: C_6  and  O_7
REMARK    5  A    between atoms: O_7  and  C_8
REMARK    6  A    between atoms: C_15  and  C_16
REMARK    7  A    between atoms: C_21  and  S_22
REMARK    8  A    between atoms: S_22  and  C_23
REMARK    9  A    between atoms: C_23  and  C_24
REMARK   10  A    between atoms: C_24  and  O_26
REMARK   11  A    between atoms: O_26  and  C_27
REMARK                            x       y       z     vdW  Elec       q    Type
REMARK                         _______ _______ _______ _____ _____    ______ ____
ROOT
ATOM      1  N   UNL     1       3.812   6.493  18.087  0.00  0.00    +0.000 N 
ATOM      2  C   UNL     1       2.802   7.317  18.544  0.00  0.00    +0.000 A 
ATOM      3  N   UNL     1       2.227   6.737  19.584  0.00  0.00    +0.000 NA
ATOM      4  N   UNL     1       2.860   5.541  19.821  0.00  0.00    +0.000 NA
ATOM      5  C   UNL     1       3.808   5.408  18.925  0.00  0.00    +0.000 A 
ENDROOT
BRANCH   1   6
ATOM      6  C   UNL     1       4.634   6.686  16.903  0.00  0.00    +0.000 C 
BRANCH   6   8
ATOM      7  C   UNL     1       7.172   6.606  17.291  0.00  0.00    +0.000 C 
ATOM      8  C   UNL     1       6.012   7.254  17.120  0.00  0.00    +0.000 C 
ENDBRANCH   6   8
ENDBRANCH   1   6
BRANCH   2   9
ATOM      9  C   UNL     1       2.536   8.710  18.061  0.00  0.00    +0.000 C 
BRANCH   9  10
ATOM     10  O   UNL     1       1.152   8.831  17.708  0.00  0.00    +0.000 OA
BRANCH  10  11
ATOM     11  C   UNL     1       0.415   9.769  18.420  0.00  0.00    +0.000 A 
ATOM     12  C   UNL     1       1.029  10.169  19.616  0.00  0.00    +0.000 A 
ATOM     13  C   UNL     1       0.401  11.069  20.476  0.00  0.00    +0.000 A 
ATOM     14  C   UNL     1      -0.858  11.563  20.153  0.00  0.00    +0.000 A 
ATOM     15  C   UNL     1      -1.489  11.170  18.964  0.00  0.00    +0.000 A 
ATOM     16  C   UNL     1      -2.765  11.657  18.638  0.00  0.00    +0.000 A 
ATOM     17  C   UNL     1      -3.383  11.266  17.457  0.00  0.00    +0.000 A 
ATOM     18  C   UNL     1      -2.707  10.392  16.629  0.00  0.00    +0.000 A 
ATOM     19  C   UNL     1      -3.279   9.923  15.328  0.00  0.00    +0.000 C 
ATOM     20  N   UNL     1      -1.483   9.906  16.936  0.00  0.00    +0.000 NA
ATOM     21  C   UNL     1      -0.855  10.268  18.071  0.00  0.00    +0.000 A 
ENDBRANCH  10  11
ENDBRANCH   9  10
ENDBRANCH   2   9
BRANCH   5  22
ATOM     22  S   UNL     1       4.931   4.094  18.826  0.00  0.00    +0.000 S 
BRANCH  22  23
ATOM     23  C   UNL     1       4.216   3.128  17.463  0.00  0.00    +0.000 C 
BRANCH  23  24
ATOM     24  C   UNL     1       3.197   2.119  17.952  0.00  0.00    +0.000 C 
ATOM     25  O   UNL     1       3.442   1.102  18.595  0.00  0.00    +0.000 OA
BRANCH  24  26
ATOM     26  O   UNL     1       1.939   2.561  17.651  0.00  0.00    +0.000 OA
ATOM     27  C   UNL     1       1.028   2.516  18.751  0.00  0.00    +0.000 C 
ENDBRANCH  24  26
ENDBRANCH  23  24
ENDBRANCH  22  23
ENDBRANCH   5  22
TORSDOF 9
ENDMDL
MODEL 4
REMARK VINA RESULT:      -7.0      2.118      3.462
REMARK  Name = 
REMARK  11 active torsions:
REMARK  status: ('A' for Active; 'I' for Inactive)
REMARK    1  A    between atoms: C_2  and  C_3
REMARK    2  A    between atoms: C_3  and  N_4
REMARK    3  A    between atoms: C_5  and  C_6
REMARK    4  A    between atoms: C_6  and  O_7
REMARK    5  A    between atoms: O_7  and  C_8
REMARK    6  A    between atoms: C_15  and  C_16
REMARK    7  A    between atoms: C_21  and  S_22
REMARK    8  A    between atoms: S_22  and  C_23
REMARK    9  A    between atoms: C_23  and  C_24
REMARK   10  A    between atoms: C_24  and  O_26
REMARK   11  A    between atoms: O_26  and  C_27
REMARK                            x       y       z     vdW  Elec       q    Type
REMARK                         _______ _______ _______ _____ _____    ______ ____
ROOT
ATOM      1  N   UNL     1       3.702   4.294  18.038  0.00  0.00    +0.000 N 
ATOM      2  C   UNL     1       3.666   4.980  19.237  0.00  0.00    +0.000 A 
ATOM      3  N   UNL     1       4.893   5.377  19.529  0.00  0.00    +0.000 NA
ATOM      4  N   UNL     1       5.734   4.966  18.524  0.00  0.00    +0.000 NA
ATOM      5  C   UNL     1       5.012   4.327  17.636  0.00  0.00    +0.000 A 
ENDROOT
BRANCH   1   6
ATOM      6  C   UNL     1       2.601   3.596  17.394  0.00  0.00    +0.000 C 
BRANCH   6   8
ATOM      7  C   UNL     1       0.823   2.278  18.697  0.00  0.00    +0.000 C 
ATOM      8  C   UNL     1       2.028   2.413  18.127  0.00  0.00    +0.000 C 
ENDBRANCH   6   8
ENDBRANCH   1   6
BRANCH   2   9
ATOM      9  C   UNL     1       2.422   5.369  19.974  0.00  0.00    +0.000 C 
BRANCH   9  10
ATOM     10  O   UNL     1       2.581   6.690  20.507  0.00  0.00    +0.000 OA
BRANCH  10  11
ATOM     11  C   UNL     1       2.034   7.726  19.760  0.00  0.00    +0.000 A 
ATOM     12  C   UNL     1       2.452   7.728  18.421  0.00  0.00    +0.000 A 
ATOM     13  C   UNL     1       2.035   8.728  17.544  0.00  0.00    +0.000 A 
ATOM     14  C   UNL     1       1.209   9.747  18.006  0.00  0.00    +0.000 A 
ATOM     15  C   UNL     1       0.786   9.763  19.342  0.00  0.00    +0.000 A 
ATOM     16  C   UNL     1      -0.040  10.795  19.818  0.00  0.00    +0.000 A 
ATOM     17  C   UNL     1      -0.459  10.803  21.141  0.00  0.00    +0.000 A 
ATOM     18  C   UNL     1      -0.038   9.776  21.962  0.00  0.00    +0.000 A 
ATOM     19  C   UNL     1      -0.446   9.684  23.399  0.00  0.00    +0.000 C 
ATOM     20  N   UNL     1       0.767   8.782  21.521  0.00  0.00    +0.000 NA
ATOM     21  C   UNL     1       1.187   8.743  20.242  0.00  0.00    +0.000 A 
ENDBRANCH  10  11
ENDBRANCH   9  10
ENDBRANCH   2   9
BRANCH   5  22
ATOM     22  S   UNL     1       5.593   3.657  16.149  0.00  0.00    +0.000 S 
BRANCH  22  23
ATOM     23  C   UNL     1       6.097   5.162  15.264  0.00  0.00    +0.000 C 
BRANCH  23  24
ATOM     24  C   UNL     1       6.984   4.855  14.075  0.00  0.00    +0.000 C 
ATOM     25  O   UNL     1       7.882   5.572  13.641  0.00  0.00    +0.000 OA
BRANCH  24  26
ATOM     26  O   UNL     1       6.700   3.602  13.607  0.00  0.00    +0.000 OA
ATOM     27  C   UNL     1       6.030   3.590  12.345  0.00  0.00    +0.000 C 
ENDBRANCH  24  26
ENDBRANCH  23  24
ENDBRANCH  22  23
ENDBRANCH   5  22
TORSDOF 9
ENDMDL
MODEL 5
REMARK VINA RESULT:      -7.0      0.918      1.381
REMARK  Name = 
REMARK  11 active torsions:
REMARK  status: ('A' for Active; 'I' for Inactive)
REMARK    1  A    between atoms: C_2  and  C_3
REMARK    2  A    between atoms: C_3  and  N_4
REMARK    3  A    between atoms: C_5  and  C_6
REMARK    4  A    between atoms: C_6  and  O_7
REMARK    5  A    between atoms: O_7  and  C_8
REMARK    6  A    between atoms: C_15  and  C_16
REMARK    7  A    between atoms: C_21  and  S_22
REMARK    8  A    between atoms: S_22  and  C_23
REMARK    9  A    between atoms: C_23  and  C_24
REMARK   10  A    between atoms: C_24  and  O_26
REMARK   11  A    between atoms: O_26  and  C_27
REMARK                            x       y       z     vdW  Elec       q    Type
REMARK                         _______ _______ _______ _____ _____    ______ ____
ROOT
ATOM      1  N   UNL     1       3.298   5.818  19.030  0.00  0.00    +0.000 N 
ATOM      2  C   UNL     1       2.768   7.092  19.104  0.00  0.00    +0.000 A 
ATOM      3  N   UNL     1       3.160   7.771  18.039  0.00  0.00    +0.000 NA
ATOM      4  N   UNL     1       3.936   6.948  17.259  0.00  0.00    +0.000 NA
ATOM      5  C   UNL     1       4.006   5.784  17.857  0.00  0.00    +0.000 A 
ENDROOT
BRANCH   1   6
ATOM      6  C   UNL     1       3.210   4.772  20.035  0.00  0.00    +0.000 C 
BRANCH   6   8
ATOM      7  C   UNL     1       1.008   3.590  20.631  0.00  0.00    +0.000 C 
ATOM      8  C   UNL     1       2.098   3.769  19.874  0.00  0.00    +0.000 C 
ENDBRANCH   6   8
ENDBRANCH   1   6
BRANCH   2   9
ATOM      9  C   UNL     1       1.768   7.555  20.118  0.00  0.00    +0.000 C 
BRANCH   9  10
ATOM     10  O   UNL     1       1.469   8.938  19.889  0.00  0.00    +0.000 OA
BRANCH  10  11
ATOM     11  C   UNL     1       0.731   9.581  20.875  0.00  0.00    +0.000 A 
ATOM     12  C   UNL     1       0.672   8.868  22.080  0.00  0.00    +0.000 A 
ATOM     13  C   UNL     1      -0.068   9.347  23.160  0.00  0.00    +0.000 A 
ATOM     14  C   UNL     1      -0.773  10.540  23.034  0.00  0.00    +0.000 A 
ATOM     15  C   UNL     1      -0.729  11.263  21.834  0.00  0.00    +0.000 A 
ATOM     16  C   UNL     1      -1.447  12.463  21.697  0.00  0.00    +0.000 A 
ATOM     17  C   UNL     1      -1.397  13.177  20.507  0.00  0.00    +0.000 A 
ATOM     18  C   UNL     1      -0.629  12.670  19.478  0.00  0.00    +0.000 A 
ATOM     19  C   UNL     1      -0.496  13.371  18.162  0.00  0.00    +0.000 C 
ATOM     20  N   UNL     1       0.058  11.510  19.591  0.00  0.00    +0.000 NA
ATOM     21  C   UNL     1       0.034  10.797  20.733  0.00  0.00    +0.000 A 
ENDBRANCH  10  11
ENDBRANCH   9  10
ENDBRANCH   2   9
BRANCH   5  22
ATOM     22  S   UNL     1       4.824   4.382  17.252  0.00  0.00    +0.000 S 
BRANCH  22  23
ATOM     23  C   UNL     1       6.468   5.068  16.891  0.00  0.00    +0.000 C 
BRANCH  23  24
ATOM     24  C   UNL     1       6.866   4.865  15.443  0.00  0.00    +0.000 C 
ATOM     25  O   UNL     1       7.754   5.470  14.849  0.00  0.00    +0.000 OA
BRANCH  24  26
ATOM     26  O   UNL     1       6.145   3.831  14.913  0.00  0.00    +0.000 OA
ATOM     27  C   UNL     1       6.163   3.781  13.485  0.00  0.00    +0.000 C 
ENDBRANCH  24  26
ENDBRANCH  23  24
ENDBRANCH  22  23
ENDBRANCH   5  22
TORSDOF 9
ENDMDL
MODEL 6
REMARK VINA RESULT:      -6.9      1.207      1.557
REMARK  Name = 
REMARK  11 active torsions:
REMARK  status: ('A' for Active; 'I' for Inactive)
REMARK    1  A    between atoms: C_2  and  C_3
REMARK    2  A    between atoms: C_3  and  N_4
REMARK    3  A    between atoms: C_5  and  C_6
REMARK    4  A    between atoms: C_6  and  O_7
REMARK    5  A    between atoms: O_7  and  C_8
REMARK    6  A    between atoms: C_15  and  C_16
REMARK    7  A    between atoms: C_21  and  S_22
REMARK    8  A    between atoms: S_22  and  C_23
REMARK    9  A    between atoms: C_23  and  C_24
REMARK   10  A    between atoms: C_24  and  O_26
REMARK   11  A    between atoms: O_26  and  C_27
REMARK                            x       y       z     vdW  Elec       q    Type
REMARK                         _______ _______ _______ _____ _____    ______ ____
ROOT
ATOM      1  N   UNL     1       2.779   5.967  19.759  0.00  0.00    +0.000 N 
ATOM      2  C   UNL     1       2.136   7.190  19.775  0.00  0.00    +0.000 A 
ATOM      3  N   UNL     1       2.463   7.850  18.677  0.00  0.00    +0.000 NA
ATOM      4  N   UNL     1       3.310   7.065  17.933  0.00  0.00    +0.000 NA
ATOM      5  C   UNL     1       3.487   5.942  18.585  0.00  0.00    +0.000 A 
ENDROOT
BRANCH   1   6
ATOM      6  C   UNL     1       2.787   4.966  20.813  0.00  0.00    +0.000 C 
BRANCH   6   8
ATOM      7  C   UNL     1       0.812   3.683  19.788  0.00  0.00    +0.000 C 
ATOM      8  C   UNL     1       1.728   3.898  20.741  0.00  0.00    +0.000 C 
ENDBRANCH   6   8
ENDBRANCH   1   6
BRANCH   2   9
ATOM      9  C   UNL     1       1.098   7.609  20.771  0.00  0.00    +0.000 C 
BRANCH   9  10
ATOM     10  O   UNL     1       1.612   8.687  21.563  0.00  0.00    +0.000 OA
BRANCH  10  11
ATOM     11  C   UNL     1       0.738   9.736  21.817  0.00  0.00    +0.000 A 
ATOM     12  C   UNL     1      -0.135   9.487  22.887  0.00  0.00    +0.000 A 
ATOM     13  C   UNL     1      -1.110  10.416  23.245  0.00  0.00    +0.000 A 
ATOM     14  C   UNL     1      -1.232  11.598  22.522  0.00  0.00    +0.000 A 
ATOM     15  C   UNL     1      -0.371  11.861  21.447  0.00  0.00    +0.000 A 
ATOM     16  C   UNL     1      -0.496  13.048  20.706  0.00  0.00    +0.000 A 
ATOM     17  C   UNL     1       0.362  13.304  19.645  0.00  0.00    +0.000 A 
ATOM     18  C   UNL     1       1.326  12.362  19.347  0.00  0.00    +0.000 A 
ATOM     19  C   UNL     1       2.309  12.551  18.234  0.00  0.00    +0.000 C 
ATOM     20  N   UNL     1       1.450  11.210  20.044  0.00  0.00    +0.000 NA
ATOM     21  C   UNL     1       0.637  10.933  21.081  0.00  0.00    +0.000 A 
ENDBRANCH  10  11
ENDBRANCH   9  10
ENDBRANCH   2   9
BRANCH   5  22
ATOM     22  S   UNL     1       4.427   4.593  18.043  0.00  0.00    +0.000 S 
BRANCH  22  23
ATOM     23  C   UNL     1       5.627   5.420  16.956  0.00  0.00    +0.000 C 
BRANCH  23  24
ATOM     24  C   UNL     1       7.003   4.793  17.044  0.00  0.00    +0.000 C 
ATOM     25  O   UNL     1       7.522   4.334  18.058  0.00  0.00    +0.000 OA
BRANCH  24  26
ATOM     26  O   UNL     1       7.553   4.725  15.794  0.00  0.00    +0.000 OA
ATOM     27  C   UNL     1       6.644   4.290  14.781  0.00  0.00    +0.000 C 
ENDBRANCH  24  26
ENDBRANCH  23  24
ENDBRANCH  22  23
ENDBRANCH   5  22
TORSDOF 9
ENDMDL
MODEL 7
REMARK VINA RESULT:      -6.9      1.665      2.931
REMARK  Name = 
REMARK  11 active torsions:
REMARK  status: ('A' for Active; 'I' for Inactive)
REMARK    1  A    between atoms: C_2  and  C_3
REMARK    2  A    between atoms: C_3  and  N_4
REMARK    3  A    between atoms: C_5  and  C_6
REMARK    4  A    between atoms: C_6  and  O_7
REMARK    5  A    between atoms: O_7  and  C_8
REMARK    6  A    between atoms: C_15  and  C_16
REMARK    7  A    between atoms: C_21  and  S_22
REMARK    8  A    between atoms: S_22  and  C_23
REMARK    9  A    between atoms: C_23  and  C_24
REMARK   10  A    between atoms: C_24  and  O_26
REMARK   11  A    between atoms: O_26  and  C_27
REMARK                            x       y       z     vdW  Elec       q    Type
REMARK                         _______ _______ _______ _____ _____    ______ ____
ROOT
ATOM      1  N   UNL     1       3.370   4.456  18.387  0.00  0.00    +0.000 N 
ATOM      2  C   UNL     1       3.307   5.111  19.602  0.00  0.00    +0.000 A 
ATOM      3  N   UNL     1       4.538   5.287  20.048  0.00  0.00    +0.000 NA
ATOM      4  N   UNL     1       5.414   4.761  19.128  0.00  0.00    +0.000 NA
ATOM      5  C   UNL     1       4.706   4.274  18.139  0.00  0.00    +0.000 A 
ENDROOT
BRANCH   1   6
ATOM      6  C   UNL     1       2.254   3.969  17.593  0.00  0.00    +0.000 C 
BRANCH   6   8
ATOM      7  C   UNL     1       0.860   2.433  19.108  0.00  0.00    +0.000 C 
ATOM      8  C   UNL     1       1.622   2.675  18.033  0.00  0.00    +0.000 C 
ENDBRANCH   6   8
ENDBRANCH   1   6
BRANCH   2   9
ATOM      9  C   UNL     1       2.065   5.689  20.209  0.00  0.00    +0.000 C 
BRANCH   9  10
ATOM     10  O   UNL     1       2.331   7.028  20.643  0.00  0.00    +0.000 OA
BRANCH  10  11
ATOM     11  C   UNL     1       1.841   8.047  19.836  0.00  0.00    +0.000 A 
ATOM     12  C   UNL     1       2.337   8.007  18.525  0.00  0.00    +0.000 A 
ATOM     13  C   UNL     1       1.985   8.985  17.597  0.00  0.00    +0.000 A 
ATOM     14  C   UNL     1       1.144  10.024  17.979  0.00  0.00    +0.000 A 
ATOM     15  C   UNL     1       0.642  10.083  19.287  0.00  0.00    +0.000 A 
ATOM     16  C   UNL     1      -0.199  11.136  19.683  0.00  0.00    +0.000 A 
ATOM     17  C   UNL     1      -0.695  11.186  20.979  0.00  0.00    +0.000 A 
ATOM     18  C   UNL     1      -0.335  10.179  21.852  0.00  0.00    +0.000 A 
ATOM     19  C   UNL     1      -0.828  10.133  23.265  0.00  0.00    +0.000 C 
ATOM     20  N   UNL     1       0.484   9.166  21.488  0.00  0.00    +0.000 NA
ATOM     21  C   UNL     1       0.978   9.085  20.238  0.00  0.00    +0.000 A 
ENDBRANCH  10  11
ENDBRANCH   9  10
ENDBRANCH   2   9
BRANCH   5  22
ATOM     22  S   UNL     1       5.341   3.548  16.700  0.00  0.00    +0.000 S 
BRANCH  22  23
ATOM     23  C   UNL     1       6.887   4.482  16.494  0.00  0.00    +0.000 C 
BRANCH  23  24
ATOM     24  C   UNL     1       6.650   5.852  15.892  0.00  0.00    +0.000 C 
ATOM     25  O   UNL     1       5.712   6.167  15.166  0.00  0.00    +0.000 OA
BRANCH  24  26
ATOM     26  O   UNL     1       7.594   6.724  16.360  0.00  0.00    +0.000 OA
ATOM     27  C   UNL     1       7.476   7.017  17.754  0.00  0.00    +0.000 C 
ENDBRANCH  24  26
ENDBRANCH  23  24
ENDBRANCH  22  23
ENDBRANCH   5  22
TORSDOF 9
ENDMDL
MODEL 8
REMARK VINA RESULT:      -6.7      2.032      2.427
REMARK  Name = 
REMARK  11 active torsions:
REMARK  status: ('A' for Active; 'I' for Inactive)
REMARK    1  A    between atoms: C_2  and  C_3
REMARK    2  A    between atoms: C_3  and  N_4
REMARK    3  A    between atoms: C_5  and  C_6
REMARK    4  A    between atoms: C_6  and  O_7
REMARK    5  A    between atoms: O_7  and  C_8
REMARK    6  A    between atoms: C_15  and  C_16
REMARK    7  A    between atoms: C_21  and  S_22
REMARK    8  A    between atoms: S_22  and  C_23
REMARK    9  A    between atoms: C_23  and  C_24
REMARK   10  A    between atoms: C_24  and  O_26
REMARK   11  A    between atoms: O_26  and  C_27
REMARK                            x       y       z     vdW  Elec       q    Type
REMARK                         _______ _______ _______ _____ _____    ______ ____
ROOT
ATOM      1  N   UNL     1       2.902   6.030  18.225  0.00  0.00    +0.000 N 
ATOM      2  C   UNL     1       2.784   7.402  18.334  0.00  0.00    +0.000 A 
ATOM      3  N   UNL     1       3.690   7.965  17.553  0.00  0.00    +0.000 NA
ATOM      4  N   UNL     1       4.397   6.971  16.921  0.00  0.00    +0.000 NA
ATOM      5  C   UNL     1       3.915   5.821  17.325  0.00  0.00    +0.000 A 
ENDROOT
BRANCH   1   6
ATOM      6  C   UNL     1       2.178   5.024  18.984  0.00  0.00    +0.000 C 
BRANCH   6   8
ATOM      7  C   UNL     1       2.186   3.947  21.316  0.00  0.00    +0.000 C 
ATOM      8  C   UNL     1       2.500   4.920  20.451  0.00  0.00    +0.000 C 
ENDBRANCH   6   8
ENDBRANCH   1   6
BRANCH   2   9
ATOM      9  C   UNL     1       1.690   8.120  19.064  0.00  0.00    +0.000 C 
BRANCH   9  10
ATOM     10  O   UNL     1       1.213   9.202  18.253  0.00  0.00    +0.000 OA
BRANCH  10  11
ATOM     11  C   UNL     1       0.315  10.074  18.856  0.00  0.00    +0.000 A 
ATOM     12  C   UNL     1       0.743  10.536  20.109  0.00  0.00    +0.000 A 
ATOM     13  C   UNL     1      -0.061  11.381  20.872  0.00  0.00    +0.000 A 
ATOM     14  C   UNL     1      -1.312  11.758  20.393  0.00  0.00    +0.000 A 
ATOM     15  C   UNL     1      -1.757  11.301  19.145  0.00  0.00    +0.000 A 
ATOM     16  C   UNL     1      -3.023  11.669  18.660  0.00  0.00    +0.000 A 
ATOM     17  C   UNL     1      -3.457  11.216  17.421  0.00  0.00    +0.000 A 
ATOM     18  C   UNL     1      -2.611  10.401  16.695  0.00  0.00    +0.000 A 
ATOM     19  C   UNL     1      -2.978   9.874  15.342  0.00  0.00    +0.000 C 
ATOM     20  N   UNL     1      -1.395  10.029  17.154  0.00  0.00    +0.000 NA
ATOM     21  C   UNL     1      -0.943  10.455  18.349  0.00  0.00    +0.000 A 
ENDBRANCH  10  11
ENDBRANCH   9  10
ENDBRANCH   2   9
BRANCH   5  22
ATOM     22  S   UNL     1       4.429   4.259  16.781  0.00  0.00    +0.000 S 
BRANCH  22  23
ATOM     23  C   UNL     1       6.214   4.344  17.117  0.00  0.00    +0.000 C 
BRANCH  23  24
ATOM     24  C   UNL     1       6.509   4.478  18.597  0.00  0.00    +0.000 C 
ATOM     25  O   UNL     1       5.836   4.011  19.512  0.00  0.00    +0.000 OA
BRANCH  24  26
ATOM     26  O   UNL     1       7.704   5.121  18.766  0.00  0.00    +0.000 OA
ATOM     27  C   UNL     1       7.693   6.488  18.348  0.00  0.00    +0.000 C 
ENDBRANCH  24  26
ENDBRANCH  23  24
ENDBRANCH  22  23
ENDBRANCH   5  22
TORSDOF 9
ENDMDL
MODEL 9
REMARK VINA RESULT:      -6.7      3.892      9.303
REMARK  Name = 
REMARK  11 active torsions:
REMARK  status: ('A' for Active; 'I' for Inactive)
REMARK    1  A    between atoms: C_2  and  C_3
REMARK    2  A    between atoms: C_3  and  N_4
REMARK    3  A    between atoms: C_5  and  C_6
REMARK    4  A    between atoms: C_6  and  O_7
REMARK    5  A    between atoms: O_7  and  C_8
REMARK    6  A    between atoms: C_15  and  C_16
REMARK    7  A    between atoms: C_21  and  S_22
REMARK    8  A    between atoms: S_22  and  C_23
REMARK    9  A    between atoms: C_23  and  C_24
REMARK   10  A    between atoms: C_24  and  O_26
REMARK   11  A    between atoms: O_26  and  C_27
REMARK                            x       y       z     vdW  Elec       q    Type
REMARK                         _______ _______ _______ _____ _____    ______ ____
ROOT
ATOM      1  N   UNL     1      -0.583  10.818  21.190  0.00  0.00    +0.000 N 
ATOM      2  C   UNL     1      -0.281   9.691  21.928  0.00  0.00    +0.000 A 
ATOM      3  N   UNL     1      -0.427   9.978  23.211  0.00  0.00    +0.000 NA
ATOM      4  N   UNL     1      -0.834  11.286  23.320  0.00  0.00    +0.000 NA
ATOM      5  C   UNL     1      -0.930  11.775  22.108  0.00  0.00    +0.000 A 
ENDROOT
BRANCH   1   6
ATOM      6  C   UNL     1      -0.457  10.984  19.751  0.00  0.00    +0.000 C 
BRANCH   6   8
ATOM      7  C   UNL     1      -2.074  10.881  17.757  0.00  0.00    +0.000 C 
ATOM      8  C   UNL     1      -1.563  10.413  18.903  0.00  0.00    +0.000 C 
ENDBRANCH   6   8
ENDBRANCH   1   6
BRANCH   2   9
ATOM      9  C   UNL     1      -0.021   8.329  21.361  0.00  0.00    +0.000 C 
BRANCH   9  10
ATOM     10  O   UNL     1       1.392   8.094  21.325  0.00  0.00    +0.000 OA
BRANCH  10  11
ATOM     11  C   UNL     1       1.902   7.582  20.138  0.00  0.00    +0.000 A 
ATOM     12  C   UNL     1       2.042   8.546  19.131  0.00  0.00    +0.000 A 
ATOM     13  C   UNL     1       2.494   8.193  17.860  0.00  0.00    +0.000 A 
ATOM     14  C   UNL     1       2.794   6.863  17.583  0.00  0.00    +0.000 A 
ATOM     15  C   UNL     1       2.655   5.885  18.577  0.00  0.00    +0.000 A 
ATOM     16  C   UNL     1       2.945   4.539  18.301  0.00  0.00    +0.000 A 
ATOM     17  C   UNL     1       2.809   3.575  19.291  0.00  0.00    +0.000 A 
ATOM     18  C   UNL     1       2.380   3.983  20.539  0.00  0.00    +0.000 A 
ATOM     19  C   UNL     1       2.217   3.025  21.678  0.00  0.00    +0.000 C 
ATOM     20  N   UNL     1       2.086   5.273  20.816  0.00  0.00    +0.000 NA
ATOM     21  C   UNL     1       2.212   6.232  19.880  0.00  0.00    +0.000 A 
ENDBRANCH  10  11
ENDBRANCH   9  10
ENDBRANCH   2   9
BRANCH   5  22
ATOM     22  S   UNL     1      -1.460  13.372  21.699  0.00  0.00    +0.000 S 
BRANCH  22  23
ATOM     23  C   UNL     1      -3.138  13.035  21.088  0.00  0.00    +0.000 C 
BRANCH  23  24
ATOM     24  C   UNL     1      -4.127  12.830  22.218  0.00  0.00    +0.000 C 
ATOM     25  O   UNL     1      -5.233  12.308  22.121  0.00  0.00    +0.000 OA
BRANCH  24  26
ATOM     26  O   UNL     1      -3.560  13.230  23.396  0.00  0.00    +0.000 OA
ATOM     27  C   UNL     1      -4.206  12.707  24.559  0.00  0.00    +0.000 C 
ENDBRANCH  24  26
ENDBRANCH  23  24
ENDBRANCH  22  23
ENDBRANCH   5  22
TORSDOF 9
ENDMDL
