MODEL 1
REMARK VINA RESULT:      -6.9      0.000      0.000
REMARK  Name = 
REMARK  5 active torsions:
REMARK  status: ('A' for Active; 'I' for Inactive)
REMARK    1  A    between atoms: C_9  and  C_10
REMARK    2  A    between atoms: C_10  and  O_11
REMARK    3  A    between atoms: C_12  and  O_13
REMARK    4  A    between atoms: C_14  and  O_15
REMARK    5  A    between atoms: C_16  and  O_17
REMARK                            x       y       z     vdW  Elec       q    Type
REMARK                         _______ _______ _______ _____ _____    ______ ____
ROOT
ATOM      1  O   UNL     1       7.461   4.478  15.883  0.00  0.00    +0.000 OA
ATOM      2  C   UNL     1       6.556   4.358  16.677  0.00  0.00    +0.000 C 
ATOM      3  N   UNL     1       6.666   4.423  18.022  0.00  0.00    +0.000 N 
ATOM      4  C   UNL     1       5.509   3.997  18.581  0.00  0.00    +0.000 C 
ATOM      5  O   UNL     1       5.364   3.661  19.750  0.00  0.00    +0.000 OA
ATOM      6  C   UNL     1       4.386   4.032  17.509  0.00  0.00    +0.000 C 
ATOM      7  N   UNL     1       5.247   4.081  16.358  0.00  0.00    +0.000 N 
ATOM      8  O   UNL     1       3.656   5.243  17.441  0.00  0.00    +0.000 OA
ATOM      9  C   UNL     1       2.597   5.443  18.399  0.00  0.00    +0.000 C 
ATOM     10  C   UNL     1       1.636   4.243  18.417  0.00  0.00    +0.000 C 
ATOM     11  C   UNL     1       2.361   2.901  18.569  0.00  0.00    +0.000 C 
ATOM     12  C   UNL     1       3.508   2.771  17.551  0.00  0.00    +0.000 C 
ATOM     13  H   UNL     1       7.556   4.452  18.489  0.00  0.00    +0.000 HD
ATOM     14  H   UNL     1       4.951   4.027  15.394  0.00  0.00    +0.000 HD
ENDROOT
BRANCH  10  15
ATOM     15  O   UNL     1       0.912   4.216  17.173  0.00  0.00    +0.000 OA
ATOM     16  H   UNL     1       0.061   4.677  17.289  0.00  0.00    +0.000 HD
ENDBRANCH  10  15
BRANCH  11  17
ATOM     17  O   UNL     1       2.790   2.671  19.915  0.00  0.00    +0.000 OA
ATOM     18  H   UNL     1       3.408   3.359  20.232  0.00  0.00    +0.000 HD
ENDBRANCH  11  17
BRANCH  12  19
ATOM     19  O   UNL     1       4.264   1.576  17.791  0.00  0.00    +0.000 OA
ATOM     20  H   UNL     1       3.933   0.887  17.180  0.00  0.00    +0.000 HD
ENDBRANCH  12  19
BRANCH   9  21
ATOM     21  C   UNL     1       3.100   5.880  19.785  0.00  0.00    +0.000 C 
BRANCH  21  22
ATOM     22  O   UNL     1       2.142   5.550  20.791  0.00  0.00    +0.000 OA
ATOM     23  H   UNL     1       1.981   4.591  20.751  0.00  0.00    +0.000 HD
ENDBRANCH  21  22
ENDBRANCH   9  21
TORSDOF 5
ENDMDL
MODEL 2
REMARK VINA RESULT:      -6.8      2.543      4.444
REMARK  Name = 
REMARK  5 active torsions:
REMARK  status: ('A' for Active; 'I' for Inactive)
REMARK    1  A    between atoms: C_9  and  C_10
REMARK    2  A    between atoms: C_10  and  O_11
REMARK    3  A    between atoms: C_12  and  O_13
REMARK    4  A    between atoms: C_14  and  O_15
REMARK    5  A    between atoms: C_16  and  O_17
REMARK                            x       y       z     vdW  Elec       q    Type
REMARK                         _______ _______ _______ _____ _____    ______ ____
ROOT
ATOM      1  O   UNL     1       1.113   2.361  22.537  0.00  0.00    +0.000 OA
ATOM      2  C   UNL     1       1.535   2.809  21.495  0.00  0.00    +0.000 C 
ATOM      3  N   UNL     1       0.812   3.464  20.561  0.00  0.00    +0.000 N 
ATOM      4  C   UNL     1       1.554   3.590  19.436  0.00  0.00    +0.000 C 
ATOM      5  O   UNL     1       1.121   3.870  18.325  0.00  0.00    +0.000 OA
ATOM      6  C   UNL     1       3.049   3.354  19.786  0.00  0.00    +0.000 C 
ATOM      7  N   UNL     1       2.829   2.689  21.042  0.00  0.00    +0.000 N 
ATOM      8  O   UNL     1       3.776   4.516  20.138  0.00  0.00    +0.000 OA
ATOM      9  C   UNL     1       4.271   5.347  19.069  0.00  0.00    +0.000 C 
ATOM     10  C   UNL     1       5.061   4.515  18.045  0.00  0.00    +0.000 C 
ATOM     11  C   UNL     1       4.293   3.279  17.562  0.00  0.00    +0.000 C 
ATOM     12  C   UNL     1       3.751   2.463  18.747  0.00  0.00    +0.000 C 
ATOM     13  H   UNL     1      -0.191   3.524  20.601  0.00  0.00    +0.000 HD
ATOM     14  H   UNL     1       3.538   2.256  21.616  0.00  0.00    +0.000 HD
ENDROOT
BRANCH  10  15
ATOM     15  O   UNL     1       6.281   4.064  18.662  0.00  0.00    +0.000 OA
ATOM     16  H   UNL     1       6.089   3.775  19.574  0.00  0.00    +0.000 HD
ENDBRANCH  10  15
BRANCH  11  17
ATOM     17  O   UNL     1       3.275   3.616  16.614  0.00  0.00    +0.000 OA
ATOM     18  H   UNL     1       3.034   2.862  16.040  0.00  0.00    +0.000 HD
ENDBRANCH  11  17
BRANCH  12  19
ATOM     19  O   UNL     1       2.921   1.389  18.285  0.00  0.00    +0.000 OA
ATOM     20  H   UNL     1       3.485   0.778  17.771  0.00  0.00    +0.000 HD
ENDBRANCH  12  19
BRANCH   9  21
ATOM     21  C   UNL     1       3.198   6.262  18.457  0.00  0.00    +0.000 C 
BRANCH  21  22
ATOM     22  O   UNL     1       2.521   6.992  19.480  0.00  0.00    +0.000 OA
ATOM     23  H   UNL     1       2.853   7.906  19.469  0.00  0.00    +0.000 HD
ENDBRANCH  21  22
ENDBRANCH   9  21
TORSDOF 5
ENDMDL
MODEL 3
REMARK VINA RESULT:      -6.7      1.708      3.114
REMARK  Name = 
REMARK  5 active torsions:
REMARK  status: ('A' for Active; 'I' for Inactive)
REMARK    1  A    between atoms: C_9  and  C_10
REMARK    2  A    between atoms: C_10  and  O_11
REMARK    3  A    between atoms: C_12  and  O_13
REMARK    4  A    between atoms: C_14  and  O_15
REMARK    5  A    between atoms: C_16  and  O_17
REMARK                            x       y       z     vdW  Elec       q    Type
REMARK                         _______ _______ _______ _____ _____    ______ ____
ROOT
ATOM      1  O   UNL     1       7.543   5.196  14.359  0.00  0.00    +0.000 OA
ATOM      2  C   UNL     1       6.734   5.162  15.258  0.00  0.00    +0.000 C 
ATOM      3  N   UNL     1       5.659   5.970  15.391  0.00  0.00    +0.000 N 
ATOM      4  C   UNL     1       5.136   5.808  16.629  0.00  0.00    +0.000 C 
ATOM      5  O   UNL     1       4.350   6.574  17.175  0.00  0.00    +0.000 OA
ATOM      6  C   UNL     1       5.667   4.481  17.235  0.00  0.00    +0.000 C 
ATOM      7  N   UNL     1       6.787   4.321  16.346  0.00  0.00    +0.000 N 
ATOM      8  O   UNL     1       4.866   3.341  16.983  0.00  0.00    +0.000 OA
ATOM      9  C   UNL     1       3.712   3.134  17.821  0.00  0.00    +0.000 C 
ATOM     10  C   UNL     1       4.092   3.198  19.310  0.00  0.00    +0.000 C 
ATOM     11  C   UNL     1       4.896   4.455  19.665  0.00  0.00    +0.000 C 
ATOM     12  C   UNL     1       6.083   4.644  18.706  0.00  0.00    +0.000 C 
ATOM     13  H   UNL     1       5.511   6.770  14.801  0.00  0.00    +0.000 HD
ATOM     14  H   UNL     1       7.503   3.613  16.417  0.00  0.00    +0.000 HD
ENDROOT
BRANCH  10  15
ATOM     15  O   UNL     1       4.902   2.051  19.627  0.00  0.00    +0.000 OA
ATOM     16  H   UNL     1       5.136   2.079  20.573  0.00  0.00    +0.000 HD
ENDBRANCH  10  15
BRANCH  11  17
ATOM     17  O   UNL     1       4.066   5.617  19.751  0.00  0.00    +0.000 OA
ATOM     18  H   UNL     1       3.425   5.674  19.015  0.00  0.00    +0.000 HD
ENDBRANCH  11  17
BRANCH  12  19
ATOM     19  O   UNL     1       6.746   5.890  18.961  0.00  0.00    +0.000 OA
ATOM     20  H   UNL     1       6.463   6.202  19.844  0.00  0.00    +0.000 HD
ENDBRANCH  12  19
BRANCH   9  21
ATOM     21  C   UNL     1       2.507   4.006  17.431  0.00  0.00    +0.000 C 
BRANCH  21  22
ATOM     22  O   UNL     1       1.646   4.200  18.553  0.00  0.00    +0.000 OA
ATOM     23  H   UNL     1       1.147   5.023  18.411  0.00  0.00    +0.000 HD
ENDBRANCH  21  22
ENDBRANCH   9  21
TORSDOF 5
ENDMDL
MODEL 4
REMARK VINA RESULT:      -6.7      1.038      1.060
REMARK  Name = 
REMARK  5 active torsions:
REMARK  status: ('A' for Active; 'I' for Inactive)
REMARK    1  A    between atoms: C_9  and  C_10
REMARK    2  A    between atoms: C_10  and  O_11
REMARK    3  A    between atoms: C_12  and  O_13
REMARK    4  A    between atoms: C_14  and  O_15
REMARK    5  A    between atoms: C_16  and  O_17
REMARK                            x       y       z     vdW  Elec       q    Type
REMARK                         _______ _______ _______ _____ _____    ______ ____
ROOT
ATOM      1  O   UNL     1       7.830   4.445  16.136  0.00  0.00    +0.000 OA
ATOM      2  C   UNL     1       6.898   4.572  16.897  0.00  0.00    +0.000 C 
ATOM      3  N   UNL     1       6.886   5.322  18.021  0.00  0.00    +0.000 N 
ATOM      4  C   UNL     1       5.778   5.024  18.739  0.00  0.00    +0.000 C 
ATOM      5  O   UNL     1       5.599   5.300  19.919  0.00  0.00    +0.000 OA
ATOM      6  C   UNL     1       4.756   4.303  17.819  0.00  0.00    +0.000 C 
ATOM      7  N   UNL     1       5.686   3.930  16.787  0.00  0.00    +0.000 N 
ATOM      8  O   UNL     1       3.837   5.153  17.158  0.00  0.00    +0.000 OA
ATOM      9  C   UNL     1       2.685   5.602  17.900  0.00  0.00    +0.000 C 
ATOM     10  C   UNL     1       1.946   4.416  18.543  0.00  0.00    +0.000 C 
ATOM     11  C   UNL     1       2.878   3.497  19.343  0.00  0.00    +0.000 C 
ATOM     12  C   UNL     1       4.108   3.094  18.512  0.00  0.00    +0.000 C 
ATOM     13  H   UNL     1       7.716   5.750  18.391  0.00  0.00    +0.000 HD
ATOM     14  H   UNL     1       5.483   3.344  15.990  0.00  0.00    +0.000 HD
ENDROOT
BRANCH  10  15
ATOM     15  O   UNL     1       1.341   3.632  17.499  0.00  0.00    +0.000 OA
ATOM     16  H   UNL     1       2.023   3.392  16.844  0.00  0.00    +0.000 HD
ENDBRANCH  10  15
BRANCH  11  17
ATOM     17  O   UNL     1       3.229   4.061  20.611  0.00  0.00    +0.000 OA
ATOM     18  H   UNL     1       3.958   3.576  21.046  0.00  0.00    +0.000 HD
ENDBRANCH  11  17
BRANCH  12  19
ATOM     19  O   UNL     1       5.036   2.349  19.312  0.00  0.00    +0.000 OA
ATOM     20  H   UNL     1       4.968   1.409  19.050  0.00  0.00    +0.000 HD
ENDBRANCH  12  19
BRANCH   9  21
ATOM     21  C   UNL     1       2.991   6.762  18.862  0.00  0.00    +0.000 C 
BRANCH  21  22
ATOM     22  O   UNL     1       2.261   6.607  20.079  0.00  0.00    +0.000 OA
ATOM     23  H   UNL     1       1.715   5.806  20.004  0.00  0.00    +0.000 HD
ENDBRANCH  21  22
ENDBRANCH   9  21
TORSDOF 5
ENDMDL
MODEL 5
REMARK VINA RESULT:      -6.6      1.400      3.264
REMARK  Name = 
REMARK  5 active torsions:
REMARK  status: ('A' for Active; 'I' for Inactive)
REMARK    1  A    between atoms: C_9  and  C_10
REMARK    2  A    between atoms: C_10  and  O_11
REMARK    3  A    between atoms: C_12  and  O_13
REMARK    4  A    between atoms: C_14  and  O_15
REMARK    5  A    between atoms: C_16  and  O_17
REMARK                            x       y       z     vdW  Elec       q    Type
REMARK                         _______ _______ _______ _____ _____    ______ ____
ROOT
ATOM      1  O   UNL     1       8.198   4.758  18.121  0.00  0.00    +0.000 OA
ATOM      2  C   UNL     1       7.015   4.505  18.136  0.00  0.00    +0.000 C 
ATOM      3  N   UNL     1       6.301   3.985  17.113  0.00  0.00    +0.000 N 
ATOM      4  C   UNL     1       4.982   4.076  17.404  0.00  0.00    +0.000 C 
ATOM      5  O   UNL     1       4.067   3.965  16.598  0.00  0.00    +0.000 OA
ATOM      6  C   UNL     1       4.814   4.311  18.929  0.00  0.00    +0.000 C 
ATOM      7  N   UNL     1       6.160   4.751  19.185  0.00  0.00    +0.000 N 
ATOM      8  O   UNL     1       4.685   3.137  19.709  0.00  0.00    +0.000 OA
ATOM      9  C   UNL     1       3.386   2.514  19.774  0.00  0.00    +0.000 C 
ATOM     10  C   UNL     1       2.304   3.534  20.164  0.00  0.00    +0.000 C 
ATOM     11  C   UNL     1       2.340   4.801  19.301  0.00  0.00    +0.000 C 
ATOM     12  C   UNL     1       3.760   5.388  19.234  0.00  0.00    +0.000 C 
ATOM     13  H   UNL     1       6.683   3.878  16.190  0.00  0.00    +0.000 HD
ATOM     14  H   UNL     1       6.509   5.110  20.062  0.00  0.00    +0.000 HD
ENDROOT
BRANCH  10  15
ATOM     15  O   UNL     1       2.516   3.927  21.533  0.00  0.00    +0.000 OA
ATOM     16  H   UNL     1       2.708   4.882  21.565  0.00  0.00    +0.000 HD
ENDBRANCH  10  15
BRANCH  11  17
ATOM     17  O   UNL     1       1.772   4.584  18.006  0.00  0.00    +0.000 OA
ATOM     18  H   UNL     1       2.381   4.110  17.406  0.00  0.00    +0.000 HD
ENDBRANCH  11  17
BRANCH  12  19
ATOM     19  O   UNL     1       3.810   6.490  18.317  0.00  0.00    +0.000 OA
ATOM     20  H   UNL     1       4.341   6.210  17.545  0.00  0.00    +0.000 HD
ENDBRANCH  12  19
BRANCH   9  21
ATOM     21  C   UNL     1       3.050   1.669  18.534  0.00  0.00    +0.000 C 
BRANCH  21  22
ATOM     22  O   UNL     1       4.080   0.713  18.285  0.00  0.00    +0.000 OA
ATOM     23  H   UNL     1       4.243   0.224  19.110  0.00  0.00    +0.000 HD
ENDBRANCH  21  22
ENDBRANCH   9  21
TORSDOF 5
ENDMDL
MODEL 6
REMARK VINA RESULT:      -6.5      2.142      4.750
REMARK  Name = 
REMARK  5 active torsions:
REMARK  status: ('A' for Active; 'I' for Inactive)
REMARK    1  A    between atoms: C_9  and  C_10
REMARK    2  A    between atoms: C_10  and  O_11
REMARK    3  A    between atoms: C_12  and  O_13
REMARK    4  A    between atoms: C_14  and  O_15
REMARK    5  A    between atoms: C_16  and  O_17
REMARK                            x       y       z     vdW  Elec       q    Type
REMARK                         _______ _______ _______ _____ _____    ______ ____
ROOT
ATOM      1  O   UNL     1       1.551   5.493  20.470  0.00  0.00    +0.000 OA
ATOM      2  C   UNL     1       2.430   5.353  19.649  0.00  0.00    +0.000 C 
ATOM      3  N   UNL     1       2.284   4.837  18.409  0.00  0.00    +0.000 N 
ATOM      4  C   UNL     1       3.507   4.605  17.880  0.00  0.00    +0.000 C 
ATOM      5  O   UNL     1       3.741   3.893  16.910  0.00  0.00    +0.000 OA
ATOM      6  C   UNL     1       4.567   5.411  18.679  0.00  0.00    +0.000 C 
ATOM      7  N   UNL     1       3.759   5.646  19.847  0.00  0.00    +0.000 N 
ATOM      8  O   UNL     1       4.835   6.709  18.183  0.00  0.00    +0.000 OA
ATOM      9  C   UNL     1       5.746   6.828  17.071  0.00  0.00    +0.000 C 
ATOM     10  C   UNL     1       7.061   6.083  17.354  0.00  0.00    +0.000 C 
ATOM     11  C   UNL     1       6.840   4.639  17.821  0.00  0.00    +0.000 C 
ATOM     12  C   UNL     1       5.824   4.578  18.974  0.00  0.00    +0.000 C 
ATOM     13  H   UNL     1       1.431   4.401  18.105  0.00  0.00    +0.000 HD
ATOM     14  H   UNL     1       4.070   6.076  20.706  0.00  0.00    +0.000 HD
ENDROOT
BRANCH  10  15
ATOM     15  O   UNL     1       7.769   6.780  18.395  0.00  0.00    +0.000 OA
ATOM     16  H   UNL     1       7.444   7.698  18.443  0.00  0.00    +0.000 HD
ENDBRANCH  10  15
BRANCH  11  17
ATOM     17  O   UNL     1       6.495   3.771  16.737  0.00  0.00    +0.000 OA
ATOM     18  H   UNL     1       5.529   3.657  16.642  0.00  0.00    +0.000 HD
ENDBRANCH  11  17
BRANCH  12  19
ATOM     19  O   UNL     1       5.522   3.217  19.311  0.00  0.00    +0.000 OA
ATOM     20  H   UNL     1       5.394   3.171  20.280  0.00  0.00    +0.000 HD
ENDBRANCH  12  19
BRANCH   9  21
ATOM     21  C   UNL     1       5.102   6.496  15.715  0.00  0.00    +0.000 C 
BRANCH  21  22
ATOM     22  O   UNL     1       6.057   5.894  14.842  0.00  0.00    +0.000 OA
ATOM     23  H   UNL     1       6.941   6.207  15.100  0.00  0.00    +0.000 HD
ENDBRANCH  21  22
ENDBRANCH   9  21
TORSDOF 5
ENDMDL
MODEL 7
REMARK VINA RESULT:      -6.5      2.016      3.372
REMARK  Name = 
REMARK  5 active torsions:
REMARK  status: ('A' for Active; 'I' for Inactive)
REMARK    1  A    between atoms: C_9  and  C_10
REMARK    2  A    between atoms: C_10  and  O_11
REMARK    3  A    between atoms: C_12  and  O_13
REMARK    4  A    between atoms: C_14  and  O_15
REMARK    5  A    between atoms: C_16  and  O_17
REMARK                            x       y       z     vdW  Elec       q    Type
REMARK                         _______ _______ _______ _____ _____    ______ ____
ROOT
ATOM      1  O   UNL     1       4.077   7.592  17.655  0.00  0.00    +0.000 OA
ATOM      2  C   UNL     1       3.835   6.431  17.894  0.00  0.00    +0.000 C 
ATOM      3  N   UNL     1       4.498   5.363  17.399  0.00  0.00    +0.000 N 
ATOM      4  C   UNL     1       3.798   4.239  17.680  0.00  0.00    +0.000 C 
ATOM      5  O   UNL     1       3.957   3.149  17.146  0.00  0.00    +0.000 OA
ATOM      6  C   UNL     1       2.781   4.546  18.812  0.00  0.00    +0.000 C 
ATOM      7  N   UNL     1       2.799   5.978  18.678  0.00  0.00    +0.000 N 
ATOM      8  O   UNL     1       3.255   4.320  20.126  0.00  0.00    +0.000 OA
ATOM      9  C   UNL     1       3.234   2.967  20.625  0.00  0.00    +0.000 C 
ATOM     10  C   UNL     1       1.844   2.335  20.445  0.00  0.00    +0.000 C 
ATOM     11  C   UNL     1       1.305   2.477  19.017  0.00  0.00    +0.000 C 
ATOM     12  C   UNL     1       1.399   3.932  18.529  0.00  0.00    +0.000 C 
ATOM     13  H   UNL     1       5.188   5.447  16.673  0.00  0.00    +0.000 HD
ATOM     14  H   UNL     1       2.202   6.627  19.169  0.00  0.00    +0.000 HD
ENDROOT
BRANCH  10  15
ATOM     15  O   UNL     1       0.922   2.995  21.333  0.00  0.00    +0.000 OA
ATOM     16  H   UNL     1       1.178   2.808  22.255  0.00  0.00    +0.000 HD
ENDBRANCH  10  15
BRANCH  11  17
ATOM     17  O   UNL     1       1.922   1.552  18.116  0.00  0.00    +0.000 OA
ATOM     18  H   UNL     1       2.269   1.989  17.313  0.00  0.00    +0.000 HD
ENDBRANCH  11  17
BRANCH  12  19
ATOM     19  O   UNL     1       1.021   4.029  17.149  0.00  0.00    +0.000 OA
ATOM     20  H   UNL     1       0.381   4.764  17.067  0.00  0.00    +0.000 HD
ENDBRANCH  12  19
BRANCH   9  21
ATOM     21  C   UNL     1       4.399   2.106  20.108  0.00  0.00    +0.000 C 
BRANCH  21  22
ATOM     22  O   UNL     1       5.210   1.659  21.193  0.00  0.00    +0.000 OA
ATOM     23  H   UNL     1       6.141   1.824  20.963  0.00  0.00    +0.000 HD
ENDBRANCH  21  22
ENDBRANCH   9  21
TORSDOF 5
ENDMDL
MODEL 8
REMARK VINA RESULT:      -6.4      1.571      1.652
REMARK  Name = 
REMARK  5 active torsions:
REMARK  status: ('A' for Active; 'I' for Inactive)
REMARK    1  A    between atoms: C_9  and  C_10
REMARK    2  A    between atoms: C_10  and  O_11
REMARK    3  A    between atoms: C_12  and  O_13
REMARK    4  A    between atoms: C_14  and  O_15
REMARK    5  A    between atoms: C_16  and  O_17
REMARK                            x       y       z     vdW  Elec       q    Type
REMARK                         _______ _______ _______ _____ _____    ______ ____
ROOT
ATOM      1  O   UNL     1       7.037   6.498  18.130  0.00  0.00    +0.000 OA
ATOM      2  C   UNL     1       6.165   5.699  18.386  0.00  0.00    +0.000 C 
ATOM      3  N   UNL     1       6.159   4.835  19.424  0.00  0.00    +0.000 N 
ATOM      4  C   UNL     1       5.160   3.939  19.247  0.00  0.00    +0.000 C 
ATOM      5  O   UNL     1       5.051   2.869  19.835  0.00  0.00    +0.000 OA
ATOM      6  C   UNL     1       4.157   4.497  18.202  0.00  0.00    +0.000 C 
ATOM      7  N   UNL     1       5.034   5.485  17.632  0.00  0.00    +0.000 N 
ATOM      8  O   UNL     1       3.090   5.257  18.738  0.00  0.00    +0.000 OA
ATOM      9  C   UNL     1       1.960   4.541  19.276  0.00  0.00    +0.000 C 
ATOM     10  C   UNL     1       1.427   3.512  18.264  0.00  0.00    +0.000 C 
ATOM     11  C   UNL     1       2.526   2.602  17.704  0.00  0.00    +0.000 C 
ATOM     12  C   UNL     1       3.720   3.425  17.191  0.00  0.00    +0.000 C 
ATOM     13  H   UNL     1       6.961   4.697  20.014  0.00  0.00    +0.000 HD
ATOM     14  H   UNL     1       4.836   6.059  16.825  0.00  0.00    +0.000 HD
ENDROOT
BRANCH  10  15
ATOM     15  O   UNL     1       0.833   4.220  17.160  0.00  0.00    +0.000 OA
ATOM     16  H   UNL     1      -0.135   4.101  17.189  0.00  0.00    +0.000 HD
ENDBRANCH  10  15
BRANCH  11  17
ATOM     17  O   UNL     1       2.914   1.591  18.639  0.00  0.00    +0.000 OA
ATOM     18  H   UNL     1       3.353   1.962  19.430  0.00  0.00    +0.000 HD
ENDBRANCH  11  17
BRANCH  12  19
ATOM     19  O   UNL     1       4.796   2.562  16.796  0.00  0.00    +0.000 OA
ATOM     20  H   UNL     1       4.424   1.870  16.213  0.00  0.00    +0.000 HD
ENDBRANCH  12  19
BRANCH   9  21
ATOM     21  C   UNL     1       2.206   3.981  20.686  0.00  0.00    +0.000 C 
BRANCH  21  22
ATOM     22  O   UNL     1       1.324   2.890  20.952  0.00  0.00    +0.000 OA
ATOM     23  H   UNL     1       1.859   2.135  21.252  0.00  0.00    +0.000 HD
ENDBRANCH  21  22
ENDBRANCH   9  21
TORSDOF 5
ENDMDL
MODEL 9
REMARK VINA RESULT:      -6.4      1.541      1.702
REMARK  Name = 
REMARK  5 active torsions:
REMARK  status: ('A' for Active; 'I' for Inactive)
REMARK    1  A    between atoms: C_9  and  C_10
REMARK    2  A    between atoms: C_10  and  O_11
REMARK    3  A    between atoms: C_12  and  O_13
REMARK    4  A    between atoms: C_14  and  O_15
REMARK    5  A    between atoms: C_16  and  O_17
REMARK                            x       y       z     vdW  Elec       q    Type
REMARK                         _______ _______ _______ _____ _____    ______ ____
ROOT
ATOM      1  O   UNL     1       6.887   7.601  16.900  0.00  0.00    +0.000 OA
ATOM      2  C   UNL     1       6.236   6.698  17.375  0.00  0.00    +0.000 C 
ATOM      3  N   UNL     1       6.526   6.019  18.507  0.00  0.00    +0.000 N 
ATOM      4  C   UNL     1       5.726   4.931  18.587  0.00  0.00    +0.000 C 
ATOM      5  O   UNL     1       5.909   3.964  19.317  0.00  0.00    +0.000 OA
ATOM      6  C   UNL     1       4.519   5.117  17.628  0.00  0.00    +0.000 C 
ATOM      7  N   UNL     1       5.100   6.156  16.820  0.00  0.00    +0.000 N 
ATOM      8  O   UNL     1       3.381   5.730  18.204  0.00  0.00    +0.000 OA
ATOM      9  C   UNL     1       2.493   4.901  18.981  0.00  0.00    +0.000 C 
ATOM     10  C   UNL     1       2.081   3.646  18.194  0.00  0.00    +0.000 C 
ATOM     11  C   UNL     1       3.280   2.890  17.608  0.00  0.00    +0.000 C 
ATOM     12  C   UNL     1       4.210   3.838  16.833  0.00  0.00    +0.000 C 
ATOM     13  H   UNL     1       7.399   6.131  18.993  0.00  0.00    +0.000 HD
ATOM     14  H   UNL     1       4.698   6.550  15.981  0.00  0.00    +0.000 HD
ENDROOT
BRANCH  10  15
ATOM     15  O   UNL     1       1.235   4.047  17.101  0.00  0.00    +0.000 OA
ATOM     16  H   UNL     1       0.514   3.397  17.001  0.00  0.00    +0.000 HD
ENDBRANCH  10  15
BRANCH  11  17
ATOM     17  O   UNL     1       3.972   2.128  18.603  0.00  0.00    +0.000 OA
ATOM     18  H   UNL     1       3.363   1.670  19.214  0.00  0.00    +0.000 HD
ENDBRANCH  11  17
BRANCH  12  19
ATOM     19  O   UNL     1       5.394   3.149  16.407  0.00  0.00    +0.000 OA
ATOM     20  H   UNL     1       6.143   3.492  16.934  0.00  0.00    +0.000 HD
ENDBRANCH  12  19
BRANCH   9  21
ATOM     21  C   UNL     1       3.005   4.623  20.405  0.00  0.00    +0.000 C 
BRANCH  21  22
ATOM     22  O   UNL     1       2.478   3.390  20.893  0.00  0.00    +0.000 OA
ATOM     23  H   UNL     1       1.547   3.535  21.138  0.00  0.00    +0.000 HD
ENDBRANCH  21  22
ENDBRANCH   9  21
TORSDOF 5
ENDMDL
