MODEL 1
REMARK VINA RESULT:      -7.7      0.000      0.000
REMARK  Name = 
REMARK  7 active torsions:
REMARK  status: ('A' for Active; 'I' for Inactive)
REMARK    1  A    between atoms: C_1  and  C_2
REMARK    2  A    between atoms: N_6  and  C_7
REMARK    3  A    between atoms: C_9  and  C_10
REMARK    4  A    between atoms: C_11  and  O_12
REMARK    5  A    between atoms: C_13  and  O_14
REMARK    6  A    between atoms: C_17  and  C_18
REMARK    7  A    between atoms: C_25  and  O_26
REMARK                            x       y       z     vdW  Elec       q    Type
REMARK                         _______ _______ _______ _____ _____    ______ ____
ROOT
ATOM      1  C   UNL     1       2.037   4.381  21.189  0.00  0.00    +0.000 C 
ATOM      2  C   UNL     1       2.302   5.497  20.208  0.00  0.00    +0.000 A 
ATOM      3  C   UNL     1       1.732   6.801  20.309  0.00  0.00    +0.000 A 
ATOM      4  C   UNL     1       0.844   7.159  21.348  0.00  0.00    +0.000 A 
ATOM      5  C   UNL     1       0.314   8.443  21.444  0.00  0.00    +0.000 A 
ATOM      6  N   UNL     1       0.672   9.381  20.559  0.00  0.00    +0.000 N 
ATOM      7  C   UNL     1       1.491   9.072  19.530  0.00  0.00    +0.000 A 
ATOM      8  C   UNL     1       2.052   7.799  19.353  0.00  0.00    +0.000 A 
ATOM      9  C   UNL     1       2.933   7.520  18.261  0.00  0.00    +0.000 A 
ATOM     10  C   UNL     1       3.312   8.551  17.222  0.00  0.00    +0.000 C 
ATOM     11  C   UNL     1       3.475   6.213  18.150  0.00  0.00    +0.000 A 
ATOM     12  C   UNL     1       3.155   5.257  19.110  0.00  0.00    +0.000 A 
ATOM     13  N   UNL     1       3.820   4.099  18.752  0.00  0.00    +0.000 N 
ATOM     14  C   UNL     1       4.545   4.265  17.598  0.00  0.00    +0.000 A 
ATOM     15  C   UNL     1       5.344   3.360  16.888  0.00  0.00    +0.000 A 
ATOM     16  C   UNL     1       5.977   3.813  15.725  0.00  0.00    +0.000 A 
ATOM     17  C   UNL     1       5.809   5.125  15.308  0.00  0.00    +0.000 A 
ATOM     18  C   UNL     1       5.011   6.017  16.022  0.00  0.00    +0.000 A 
ATOM     19  C   UNL     1       4.358   5.586  17.197  0.00  0.00    +0.000 A 
ATOM     20  H   UNL     1       3.773   3.228  19.266  0.00  0.00    +0.000 HD
ENDROOT
BRANCH   6  21
ATOM     21  C   UNL     1       0.273  10.797  20.723  0.00  0.00    +0.000 C 
ATOM     22  O   UNL     1       1.344  11.665  21.089  0.00  0.00    +0.000 OA
ATOM     23  C   UNL     1       0.894  12.994  20.718  0.00  0.00    +0.000 C 
ATOM     24  C   UNL     1      -0.015  13.570  21.806  0.00  0.00    +0.000 C 
ATOM     25  C   UNL     1       0.135  12.799  19.399  0.00  0.00    +0.000 C 
ATOM     26  C   UNL     1      -0.298  11.331  19.409  0.00  0.00    +0.000 C 
BRANCH  25  27
ATOM     27  O   UNL     1       1.010  13.011  18.287  0.00  0.00    +0.000 OA
ATOM     28  H   UNL     1       1.039  12.226  17.713  0.00  0.00    +0.000 HD
ENDBRANCH  25  27
BRANCH  26  29
ATOM     29  O   UNL     1      -1.706  11.106  19.361  0.00  0.00    +0.000 OA
ATOM     30  H   UNL     1      -1.908  10.252  18.931  0.00  0.00    +0.000 HD
ENDBRANCH  26  29
ENDBRANCH   6  21
BRANCH  17  31
ATOM     31  O   UNL     1       6.409   5.607  14.180  0.00  0.00    +0.000 OA
ATOM     32  H   UNL     1       7.376   5.540  14.287  0.00  0.00    +0.000 HD
ENDBRANCH  17  31
TORSDOF 4
ENDMDL
MODEL 2
REMARK VINA RESULT:      -7.5      2.188      8.175
REMARK  Name = 
REMARK  7 active torsions:
REMARK  status: ('A' for Active; 'I' for Inactive)
REMARK    1  A    between atoms: C_1  and  C_2
REMARK    2  A    between atoms: N_6  and  C_7
REMARK    3  A    between atoms: C_9  and  C_10
REMARK    4  A    between atoms: C_11  and  O_12
REMARK    5  A    between atoms: C_13  and  O_14
REMARK    6  A    between atoms: C_17  and  C_18
REMARK    7  A    between atoms: C_25  and  O_26
REMARK                            x       y       z     vdW  Elec       q    Type
REMARK                         _______ _______ _______ _____ _____    ______ ____
ROOT
ATOM      1  C   UNL     1      -0.415   8.521  22.683  0.00  0.00    +0.000 C 
ATOM      2  C   UNL     1       0.201   9.076  21.421  0.00  0.00    +0.000 A 
ATOM      3  C   UNL     1       1.080   8.340  20.572  0.00  0.00    +0.000 A 
ATOM      4  C   UNL     1       1.466   7.011  20.854  0.00  0.00    +0.000 A 
ATOM      5  C   UNL     1       2.308   6.299  20.003  0.00  0.00    +0.000 A 
ATOM      6  N   UNL     1       2.740   6.863  18.868  0.00  0.00    +0.000 N 
ATOM      7  C   UNL     1       2.423   8.144  18.578  0.00  0.00    +0.000 A 
ATOM      8  C   UNL     1       1.597   8.932  19.391  0.00  0.00    +0.000 A 
ATOM      9  C   UNL     1       1.269  10.278  19.034  0.00  0.00    +0.000 A 
ATOM     10  C   UNL     1       1.787  10.951  17.783  0.00  0.00    +0.000 C 
ATOM     11  C   UNL     1       0.416  11.014  19.898  0.00  0.00    +0.000 A 
ATOM     12  C   UNL     1      -0.089  10.404  21.043  0.00  0.00    +0.000 A 
ATOM     13  N   UNL     1      -0.879  11.345  21.676  0.00  0.00    +0.000 N 
ATOM     14  C   UNL     1      -0.896  12.537  20.995  0.00  0.00    +0.000 A 
ATOM     15  C   UNL     1      -1.549  13.742  21.287  0.00  0.00    +0.000 A 
ATOM     16  C   UNL     1      -1.386  14.809  20.398  0.00  0.00    +0.000 A 
ATOM     17  C   UNL     1      -0.600  14.658  19.265  0.00  0.00    +0.000 A 
ATOM     18  C   UNL     1       0.045  13.455  18.986  0.00  0.00    +0.000 A 
ATOM     19  C   UNL     1      -0.099  12.361  19.867  0.00  0.00    +0.000 A 
ATOM     20  H   UNL     1      -1.378  11.185  22.544  0.00  0.00    +0.000 HD
ENDROOT
BRANCH   6  21
ATOM     21  C   UNL     1       3.490   6.089  17.853  0.00  0.00    +0.000 C 
ATOM     22  O   UNL     1       4.887   6.375  17.818  0.00  0.00    +0.000 OA
ATOM     23  C   UNL     1       5.490   5.226  17.169  0.00  0.00    +0.000 C 
ATOM     24  C   UNL     1       5.373   5.354  15.648  0.00  0.00    +0.000 C 
ATOM     25  C   UNL     1       4.701   4.019  17.693  0.00  0.00    +0.000 C 
ATOM     26  C   UNL     1       3.353   4.593  18.135  0.00  0.00    +0.000 C 
BRANCH  25  27
ATOM     27  O   UNL     1       5.357   3.456  18.834  0.00  0.00    +0.000 OA
ATOM     28  H   UNL     1       5.888   2.681  18.582  0.00  0.00    +0.000 HD
ENDBRANCH  25  27
BRANCH  26  29
ATOM     29  O   UNL     1       2.212   4.070  17.458  0.00  0.00    +0.000 OA
ATOM     30  H   UNL     1       2.111   4.485  16.577  0.00  0.00    +0.000 HD
ENDBRANCH  26  29
ENDBRANCH   6  21
BRANCH  17  31
ATOM     31  O   UNL     1      -0.416  15.674  18.372  0.00  0.00    +0.000 OA
ATOM     32  H   UNL     1       0.435  15.538  17.915  0.00  0.00    +0.000 HD
ENDBRANCH  17  31
TORSDOF 4
ENDMDL
MODEL 3
REMARK VINA RESULT:      -7.5      3.103      8.846
REMARK  Name = 
REMARK  7 active torsions:
REMARK  status: ('A' for Active; 'I' for Inactive)
REMARK    1  A    between atoms: C_1  and  C_2
REMARK    2  A    between atoms: N_6  and  C_7
REMARK    3  A    between atoms: C_9  and  C_10
REMARK    4  A    between atoms: C_11  and  O_12
REMARK    5  A    between atoms: C_13  and  O_14
REMARK    6  A    between atoms: C_17  and  C_18
REMARK    7  A    between atoms: C_25  and  O_26
REMARK                            x       y       z     vdW  Elec       q    Type
REMARK                         _______ _______ _______ _____ _____    ______ ____
ROOT
ATOM      1  C   UNL     1       2.203  11.418  17.783  0.00  0.00    +0.000 C 
ATOM      2  C   UNL     1       1.569  10.757  18.982  0.00  0.00    +0.000 A 
ATOM      3  C   UNL     1       1.647   9.359  19.258  0.00  0.00    +0.000 A 
ATOM      4  C   UNL     1       2.326   8.458  18.409  0.00  0.00    +0.000 A 
ATOM      5  C   UNL     1       2.411   7.100  18.704  0.00  0.00    +0.000 A 
ATOM      6  N   UNL     1       1.873   6.628  19.835  0.00  0.00    +0.000 N 
ATOM      7  C   UNL     1       1.185   7.450  20.658  0.00  0.00    +0.000 A 
ATOM      8  C   UNL     1       1.038   8.824  20.423  0.00  0.00    +0.000 A 
ATOM      9  C   UNL     1       0.319   9.661  21.333  0.00  0.00    +0.000 A 
ATOM     10  C   UNL     1      -0.339   9.141  22.590  0.00  0.00    +0.000 C 
ATOM     11  C   UNL     1       0.222  11.046  21.038  0.00  0.00    +0.000 A 
ATOM     12  C   UNL     1       0.840  11.548  19.896  0.00  0.00    +0.000 A 
ATOM     13  N   UNL     1       0.583  12.906  19.871  0.00  0.00    +0.000 N 
ATOM     14  C   UNL     1      -0.182  13.298  20.941  0.00  0.00    +0.000 A 
ATOM     15  C   UNL     1      -0.676  14.562  21.291  0.00  0.00    +0.000 A 
ATOM     16  C   UNL     1      -1.440  14.669  22.459  0.00  0.00    +0.000 A 
ATOM     17  C   UNL     1      -1.688  13.546  23.233  0.00  0.00    +0.000 A 
ATOM     18  C   UNL     1      -1.193  12.294  22.874  0.00  0.00    +0.000 A 
ATOM     19  C   UNL     1      -0.421  12.155  21.700  0.00  0.00    +0.000 A 
ATOM     20  H   UNL     1       0.907  13.538  19.149  0.00  0.00    +0.000 HD
ENDROOT
BRANCH   6  21
ATOM     21  C   UNL     1       2.089   5.231  20.275  0.00  0.00    +0.000 C 
ATOM     22  O   UNL     1       0.887   4.521  20.568  0.00  0.00    +0.000 OA
ATOM     23  C   UNL     1       1.249   3.119  20.483  0.00  0.00    +0.000 C 
ATOM     24  C   UNL     1       1.901   2.659  21.789  0.00  0.00    +0.000 C 
ATOM     25  C   UNL     1       2.231   3.035  19.306  0.00  0.00    +0.000 C 
ATOM     26  C   UNL     1       2.809   4.447  19.177  0.00  0.00    +0.000 C 
BRANCH  25  27
ATOM     27  O   UNL     1       1.532   2.714  18.100  0.00  0.00    +0.000 OA
ATOM     28  H   UNL     1       1.566   3.455  17.470  0.00  0.00    +0.000 HD
ENDBRANCH  25  27
BRANCH  26  29
ATOM     29  O   UNL     1       4.220   4.550  19.349  0.00  0.00    +0.000 OA
ATOM     30  H   UNL     1       4.623   5.066  18.622  0.00  0.00    +0.000 HD
ENDBRANCH  26  29
ENDBRANCH   6  21
BRANCH  17  31
ATOM     31  O   UNL     1      -2.428  13.607  24.378  0.00  0.00    +0.000 OA
ATOM     32  H   UNL     1      -3.370  13.689  24.138  0.00  0.00    +0.000 HD
ENDBRANCH  17  31
TORSDOF 4
ENDMDL
MODEL 4
REMARK VINA RESULT:      -7.5      3.034      8.676
REMARK  Name = 
REMARK  7 active torsions:
REMARK  status: ('A' for Active; 'I' for Inactive)
REMARK    1  A    between atoms: C_1  and  C_2
REMARK    2  A    between atoms: N_6  and  C_7
REMARK    3  A    between atoms: C_9  and  C_10
REMARK    4  A    between atoms: C_11  and  O_12
REMARK    5  A    between atoms: C_13  and  O_14
REMARK    6  A    between atoms: C_17  and  C_18
REMARK    7  A    between atoms: C_25  and  O_26
REMARK                            x       y       z     vdW  Elec       q    Type
REMARK                         _______ _______ _______ _____ _____    ______ ____
ROOT
ATOM      1  C   UNL     1       2.349  11.746  17.745  0.00  0.00    +0.000 C 
ATOM      2  C   UNL     1       1.694  10.819  18.740  0.00  0.00    +0.000 A 
ATOM      3  C   UNL     1       1.906   9.409  18.776  0.00  0.00    +0.000 A 
ATOM      4  C   UNL     1       2.751   8.748  17.858  0.00  0.00    +0.000 A 
ATOM      5  C   UNL     1       2.964   7.373  17.921  0.00  0.00    +0.000 A 
ATOM      6  N   UNL     1       2.389   6.653  18.892  0.00  0.00    +0.000 N 
ATOM      7  C   UNL     1       1.546   7.240  19.769  0.00  0.00    +0.000 A 
ATOM      8  C   UNL     1       1.265   8.613  19.761  0.00  0.00    +0.000 A 
ATOM      9  C   UNL     1       0.383   9.198  20.723  0.00  0.00    +0.000 A 
ATOM     10  C   UNL     1      -0.316   8.395  21.798  0.00  0.00    +0.000 C 
ATOM     11  C   UNL     1       0.155  10.597  20.665  0.00  0.00    +0.000 A 
ATOM     12  C   UNL     1       0.806  11.356  19.697  0.00  0.00    +0.000 A 
ATOM     13  N   UNL     1       0.402  12.665  19.882  0.00  0.00    +0.000 N 
ATOM     14  C   UNL     1      -0.491  12.780  20.918  0.00  0.00    +0.000 A 
ATOM     15  C   UNL     1      -1.151  13.905  21.429  0.00  0.00    +0.000 A 
ATOM     16  C   UNL     1      -2.018  13.722  22.513  0.00  0.00    +0.000 A 
ATOM     17  C   UNL     1      -2.202  12.458  23.051  0.00  0.00    +0.000 A 
ATOM     18  C   UNL     1      -1.541  11.346  22.533  0.00  0.00    +0.000 A 
ATOM     19  C   UNL     1      -0.662  11.500  21.439  0.00  0.00    +0.000 A 
ATOM     20  H   UNL     1       0.712  13.447  19.316  0.00  0.00    +0.000 HD
ENDROOT
BRANCH   6  21
ATOM     21  C   UNL     1       2.723   5.226  19.102  0.00  0.00    +0.000 C 
ATOM     22  O   UNL     1       3.010   4.890  20.458  0.00  0.00    +0.000 OA
ATOM     23  C   UNL     1       2.815   3.454  20.538  0.00  0.00    +0.000 C 
ATOM     24  C   UNL     1       4.062   2.720  20.038  0.00  0.00    +0.000 C 
ATOM     25  C   UNL     1       1.601   3.170  19.644  0.00  0.00    +0.000 C 
ATOM     26  C   UNL     1       1.548   4.349  18.669  0.00  0.00    +0.000 C 
BRANCH  25  27
ATOM     27  O   UNL     1       0.401   3.167  20.424  0.00  0.00    +0.000 OA
ATOM     28  H   UNL     1       0.372   3.935  21.021  0.00  0.00    +0.000 HD
ENDBRANCH  25  27
BRANCH  26  29
ATOM     29  O   UNL     1       1.675   4.009  17.290  0.00  0.00    +0.000 OA
ATOM     30  H   UNL     1       1.946   4.788  16.763  0.00  0.00    +0.000 HD
ENDBRANCH  26  29
ENDBRANCH   6  21
BRANCH  17  31
ATOM     31  O   UNL     1      -3.038  12.237  24.107  0.00  0.00    +0.000 OA
ATOM     32  H   UNL     1      -2.543  12.384  24.934  0.00  0.00    +0.000 HD
ENDBRANCH  17  31
TORSDOF 4
ENDMDL
MODEL 5
REMARK VINA RESULT:      -7.3      0.746      1.010
REMARK  Name = 
REMARK  7 active torsions:
REMARK  status: ('A' for Active; 'I' for Inactive)
REMARK    1  A    between atoms: C_1  and  C_2
REMARK    2  A    between atoms: N_6  and  C_7
REMARK    3  A    between atoms: C_9  and  C_10
REMARK    4  A    between atoms: C_11  and  O_12
REMARK    5  A    between atoms: C_13  and  O_14
REMARK    6  A    between atoms: C_17  and  C_18
REMARK    7  A    between atoms: C_25  and  O_26
REMARK                            x       y       z     vdW  Elec       q    Type
REMARK                         _______ _______ _______ _____ _____    ______ ____
ROOT
ATOM      1  C   UNL     1       1.974   4.578  21.280  0.00  0.00    +0.000 C 
ATOM      2  C   UNL     1       2.229   5.677  20.278  0.00  0.00    +0.000 A 
ATOM      3  C   UNL     1       1.624   6.968  20.338  0.00  0.00    +0.000 A 
ATOM      4  C   UNL     1       0.707   7.327  21.351  0.00  0.00    +0.000 A 
ATOM      5  C   UNL     1       0.142   8.598  21.407  0.00  0.00    +0.000 A 
ATOM      6  N   UNL     1       0.494   9.524  20.507  0.00  0.00    +0.000 N 
ATOM      7  C   UNL     1       1.340   9.212  19.501  0.00  0.00    +0.000 A 
ATOM      8  C   UNL     1       1.936   7.951  19.364  0.00  0.00    +0.000 A 
ATOM      9  C   UNL     1       2.844   7.670  18.295  0.00  0.00    +0.000 A 
ATOM     10  C   UNL     1       3.217   8.686  17.239  0.00  0.00    +0.000 C 
ATOM     11  C   UNL     1       3.422   6.375  18.226  0.00  0.00    +0.000 A 
ATOM     12  C   UNL     1       3.108   5.433  19.201  0.00  0.00    +0.000 A 
ATOM     13  N   UNL     1       3.810   4.286  18.883  0.00  0.00    +0.000 N 
ATOM     14  C   UNL     1       4.552   4.444  17.740  0.00  0.00    +0.000 A 
ATOM     15  C   UNL     1       5.387   3.543  17.066  0.00  0.00    +0.000 A 
ATOM     16  C   UNL     1       6.031   3.986  15.905  0.00  0.00    +0.000 A 
ATOM     17  C   UNL     1       5.837   5.282  15.453  0.00  0.00    +0.000 A 
ATOM     18  C   UNL     1       5.003   6.169  16.131  0.00  0.00    +0.000 A 
ATOM     19  C   UNL     1       4.338   5.749  17.304  0.00  0.00    +0.000 A 
ATOM     20  H   UNL     1       3.775   3.425  19.418  0.00  0.00    +0.000 HD
ENDROOT
BRANCH   6  21
ATOM     21  C   UNL     1       0.055  10.933  20.630  0.00  0.00    +0.000 C 
ATOM     22  O   UNL     1       0.035  11.421  21.969  0.00  0.00    +0.000 OA
ATOM     23  C   UNL     1       0.079  12.866  21.843  0.00  0.00    +0.000 C 
ATOM     24  C   UNL     1      -1.321  13.418  21.566  0.00  0.00    +0.000 C 
ATOM     25  C   UNL     1       1.029  13.130  20.667  0.00  0.00    +0.000 C 
ATOM     26  C   UNL     1       1.000  11.841  19.842  0.00  0.00    +0.000 C 
BRANCH  25  27
ATOM     27  O   UNL     1       2.362  13.340  21.144  0.00  0.00    +0.000 OA
ATOM     28  H   UNL     1       2.521  12.836  21.961  0.00  0.00    +0.000 HD
ENDBRANCH  25  27
BRANCH  26  29
ATOM     29  O   UNL     1       0.537  11.982  18.501  0.00  0.00    +0.000 OA
ATOM     30  H   UNL     1       1.172  12.500  17.966  0.00  0.00    +0.000 HD
ENDBRANCH  26  29
ENDBRANCH   6  21
BRANCH  17  31
ATOM     31  O   UNL     1       6.445   5.754  14.326  0.00  0.00    +0.000 OA
ATOM     32  H   UNL     1       6.150   6.670  14.171  0.00  0.00    +0.000 HD
ENDBRANCH  17  31
TORSDOF 4
ENDMDL
MODEL 6
REMARK VINA RESULT:      -7.3      0.921      1.412
REMARK  Name = 
REMARK  7 active torsions:
REMARK  status: ('A' for Active; 'I' for Inactive)
REMARK    1  A    between atoms: C_1  and  C_2
REMARK    2  A    between atoms: N_6  and  C_7
REMARK    3  A    between atoms: C_9  and  C_10
REMARK    4  A    between atoms: C_11  and  O_12
REMARK    5  A    between atoms: C_13  and  O_14
REMARK    6  A    between atoms: C_17  and  C_18
REMARK    7  A    between atoms: C_25  and  O_26
REMARK                            x       y       z     vdW  Elec       q    Type
REMARK                         _______ _______ _______ _____ _____    ______ ____
ROOT
ATOM      1  C   UNL     1       1.605   4.441  21.067  0.00  0.00    +0.000 C 
ATOM      2  C   UNL     1       2.017   5.575  20.160  0.00  0.00    +0.000 A 
ATOM      3  C   UNL     1       1.563   6.919  20.306  0.00  0.00    +0.000 A 
ATOM      4  C   UNL     1       0.661   7.306  21.322  0.00  0.00    +0.000 A 
ATOM      5  C   UNL     1       0.244   8.627  21.464  0.00  0.00    +0.000 A 
ATOM      6  N   UNL     1       0.730   9.571  20.648  0.00  0.00    +0.000 N 
ATOM      7  C   UNL     1       1.567   9.238  19.641  0.00  0.00    +0.000 A 
ATOM      8  C   UNL     1       2.019   7.930  19.420  0.00  0.00    +0.000 A 
ATOM      9  C   UNL     1       2.923   7.625  18.355  0.00  0.00    +0.000 A 
ATOM     10  C   UNL     1       3.445   8.666  17.391  0.00  0.00    +0.000 C 
ATOM     11  C   UNL     1       3.350   6.280  18.198  0.00  0.00    +0.000 A 
ATOM     12  C   UNL     1       2.898   5.311  19.090  0.00  0.00    +0.000 A 
ATOM     13  N   UNL     1       3.473   4.116  18.700  0.00  0.00    +0.000 N 
ATOM     14  C   UNL     1       4.266   4.271  17.590  0.00  0.00    +0.000 A 
ATOM     15  C   UNL     1       5.014   3.332  16.868  0.00  0.00    +0.000 A 
ATOM     16  C   UNL     1       5.742   3.782  15.761  0.00  0.00    +0.000 A 
ATOM     17  C   UNL     1       5.713   5.122  15.408  0.00  0.00    +0.000 A 
ATOM     18  C   UNL     1       4.965   6.048  16.133  0.00  0.00    +0.000 A 
ATOM     19  C   UNL     1       4.218   5.622  17.253  0.00  0.00    +0.000 A 
ATOM     20  H   UNL     1       3.322   3.228  19.164  0.00  0.00    +0.000 HD
ENDROOT
BRANCH   6  21
ATOM     21  C   UNL     1       0.452  11.008  20.870  0.00  0.00    +0.000 C 
ATOM     22  O   UNL     1       0.233  11.750  19.672  0.00  0.00    +0.000 OA
ATOM     23  C   UNL     1      -0.486  12.938  20.092  0.00  0.00    +0.000 C 
ATOM     24  C   UNL     1       0.491  13.989  20.627  0.00  0.00    +0.000 C 
ATOM     25  C   UNL     1      -1.443  12.453  21.189  0.00  0.00    +0.000 C 
ATOM     26  C   UNL     1      -0.806  11.168  21.724  0.00  0.00    +0.000 C 
BRANCH  25  27
ATOM     27  O   UNL     1      -2.719  12.132  20.627  0.00  0.00    +0.000 OA
ATOM     28  H   UNL     1      -2.664  12.062  19.658  0.00  0.00    +0.000 HD
ENDBRANCH  25  27
BRANCH  26  29
ATOM     29  O   UNL     1      -0.458  11.186  23.107  0.00  0.00    +0.000 OA
ATOM     30  H   UNL     1      -1.218  11.469  23.654  0.00  0.00    +0.000 HD
ENDBRANCH  26  29
ENDBRANCH   6  21
BRANCH  17  31
ATOM     31  O   UNL     1       6.409   5.602  14.336  0.00  0.00    +0.000 OA
ATOM     32  H   UNL     1       6.982   6.333  14.636  0.00  0.00    +0.000 HD
ENDBRANCH  17  31
TORSDOF 4
ENDMDL
MODEL 7
REMARK VINA RESULT:      -7.2      1.552      2.502
REMARK  Name = 
REMARK  7 active torsions:
REMARK  status: ('A' for Active; 'I' for Inactive)
REMARK    1  A    between atoms: C_1  and  C_2
REMARK    2  A    between atoms: N_6  and  C_7
REMARK    3  A    between atoms: C_9  and  C_10
REMARK    4  A    between atoms: C_11  and  O_12
REMARK    5  A    between atoms: C_13  and  O_14
REMARK    6  A    between atoms: C_17  and  C_18
REMARK    7  A    between atoms: C_25  and  O_26
REMARK                            x       y       z     vdW  Elec       q    Type
REMARK                         _______ _______ _______ _____ _____    ______ ____
ROOT
ATOM      1  C   UNL     1       2.552   2.895  19.786  0.00  0.00    +0.000 C 
ATOM      2  C   UNL     1       2.881   4.217  19.136  0.00  0.00    +0.000 A 
ATOM      3  C   UNL     1       2.369   5.473  19.577  0.00  0.00    +0.000 A 
ATOM      4  C   UNL     1       1.482   5.586  20.671  0.00  0.00    +0.000 A 
ATOM      5  C   UNL     1       1.008   6.822  21.102  0.00  0.00    +0.000 A 
ATOM      6  N   UNL     1       1.422   7.942  20.498  0.00  0.00    +0.000 N 
ATOM      7  C   UNL     1       2.242   7.878  19.427  0.00  0.00    +0.000 A 
ATOM      8  C   UNL     1       2.749   6.672  18.921  0.00  0.00    +0.000 A 
ATOM      9  C   UNL     1       3.633   6.651  17.797  0.00  0.00    +0.000 A 
ATOM     10  C   UNL     1       4.074   7.900  17.069  0.00  0.00    +0.000 C 
ATOM     11  C   UNL     1       4.118   5.396  17.346  0.00  0.00    +0.000 A 
ATOM     12  C   UNL     1       3.740   4.236  18.017  0.00  0.00    +0.000 A 
ATOM     13  N   UNL     1       4.359   3.184  17.367  0.00  0.00    +0.000 N 
ATOM     14  C   UNL     1       5.108   3.615  16.301  0.00  0.00    +0.000 A 
ATOM     15  C   UNL     1       5.877   2.892  15.379  0.00  0.00    +0.000 A 
ATOM     16  C   UNL     1       6.548   3.607  14.380  0.00  0.00    +0.000 A 
ATOM     17  C   UNL     1       6.445   4.988  14.325  0.00  0.00    +0.000 A 
ATOM     18  C   UNL     1       5.677   5.696  15.247  0.00  0.00    +0.000 A 
ATOM     19  C   UNL     1       4.986   5.001  16.264  0.00  0.00    +0.000 A 
ATOM     20  H   UNL     1       4.265   2.210  17.632  0.00  0.00    +0.000 HD
ENDROOT
BRANCH   6  21
ATOM     21  C   UNL     1       1.084   9.282  21.030  0.00  0.00    +0.000 C 
ATOM     22  O   UNL     1      -0.141   9.814  20.530  0.00  0.00    +0.000 OA
ATOM     23  C   UNL     1      -0.532  10.827  21.493  0.00  0.00    +0.000 C 
ATOM     24  C   UNL     1       0.210  12.136  21.219  0.00  0.00    +0.000 C 
ATOM     25  C   UNL     1      -0.149  10.240  22.858  0.00  0.00    +0.000 C 
ATOM     26  C   UNL     1       0.948   9.217  22.552  0.00  0.00    +0.000 C 
BRANCH  25  27
ATOM     27  O   UNL     1      -1.266   9.556  23.435  0.00  0.00    +0.000 OA
ATOM     28  H   UNL     1      -1.013   8.663  23.726  0.00  0.00    +0.000 HD
ENDBRANCH  25  27
BRANCH  26  29
ATOM     29  O   UNL     1       2.210   9.469  23.166  0.00  0.00    +0.000 OA
ATOM     30  H   UNL     1       2.848   9.826  22.516  0.00  0.00    +0.000 HD
ENDBRANCH  26  29
ENDBRANCH   6  21
BRANCH  17  31
ATOM     31  O   UNL     1       7.084   5.723  13.367  0.00  0.00    +0.000 OA
ATOM     32  H   UNL     1       7.100   6.656  13.648  0.00  0.00    +0.000 HD
ENDBRANCH  17  31
TORSDOF 4
ENDMDL
MODEL 8
REMARK VINA RESULT:      -7.2      2.409      4.311
REMARK  Name = 
REMARK  7 active torsions:
REMARK  status: ('A' for Active; 'I' for Inactive)
REMARK    1  A    between atoms: C_1  and  C_2
REMARK    2  A    between atoms: N_6  and  C_7
REMARK    3  A    between atoms: C_9  and  C_10
REMARK    4  A    between atoms: C_11  and  O_12
REMARK    5  A    between atoms: C_13  and  O_14
REMARK    6  A    between atoms: C_17  and  C_18
REMARK    7  A    between atoms: C_25  and  O_26
REMARK                            x       y       z     vdW  Elec       q    Type
REMARK                         _______ _______ _______ _____ _____    ______ ____
ROOT
ATOM      1  C   UNL     1      -0.134   9.261  23.148  0.00  0.00    +0.000 C 
ATOM      2  C   UNL     1       0.392   9.523  21.758  0.00  0.00    +0.000 A 
ATOM      3  C   UNL     1       0.274  10.774  21.082  0.00  0.00    +0.000 A 
ATOM      4  C   UNL     1      -0.371  11.888  21.663  0.00  0.00    +0.000 A 
ATOM      5  C   UNL     1      -0.459  13.108  20.998  0.00  0.00    +0.000 A 
ATOM      6  N   UNL     1       0.107  13.254  19.794  0.00  0.00    +0.000 N 
ATOM      7  C   UNL     1       0.704  12.204  19.188  0.00  0.00    +0.000 A 
ATOM      8  C   UNL     1       0.818  10.940  19.782  0.00  0.00    +0.000 A 
ATOM      9  C   UNL     1       1.477   9.861  19.114  0.00  0.00    +0.000 A 
ATOM     10  C   UNL     1       2.080   9.989  17.733  0.00  0.00    +0.000 C 
ATOM     11  C   UNL     1       1.567   8.611  19.780  0.00  0.00    +0.000 A 
ATOM     12  C   UNL     1       1.037   8.479  21.061  0.00  0.00    +0.000 A 
ATOM     13  N   UNL     1       1.272   7.175  21.454  0.00  0.00    +0.000 N 
ATOM     14  C   UNL     1       1.920   6.458  20.478  0.00  0.00    +0.000 A 
ATOM     15  C   UNL     1       2.333   5.120  20.456  0.00  0.00    +0.000 A 
ATOM     16  C   UNL     1       2.985   4.652  19.309  0.00  0.00    +0.000 A 
ATOM     17  C   UNL     1       3.208   5.505  18.239  0.00  0.00    +0.000 A 
ATOM     18  C   UNL     1       2.791   6.835  18.272  0.00  0.00    +0.000 A 
ATOM     19  C   UNL     1       2.129   7.333  19.415  0.00  0.00    +0.000 A 
ATOM     20  H   UNL     1       0.992   6.785  22.346  0.00  0.00    +0.000 HD
ENDROOT
BRANCH   6  21
ATOM     21  C   UNL     1       0.190  14.575  19.129  0.00  0.00    +0.000 C 
ATOM     22  O   UNL     1      -0.718  15.544  19.647  0.00  0.00    +0.000 OA
ATOM     23  C   UNL     1      -0.164  16.826  19.252  0.00  0.00    +0.000 C 
ATOM     24  C   UNL     1      -0.556  17.153  17.809  0.00  0.00    +0.000 C 
ATOM     25  C   UNL     1       1.355  16.661  19.398  0.00  0.00    +0.000 C 
ATOM     26  C   UNL     1       1.596  15.153  19.297  0.00  0.00    +0.000 C 
BRANCH  25  27
ATOM     27  O   UNL     1       1.781  17.109  20.688  0.00  0.00    +0.000 OA
ATOM     28  H   UNL     1       2.714  17.384  20.669  0.00  0.00    +0.000 HD
ENDBRANCH  25  27
BRANCH  26  29
ATOM     29  O   UNL     1       2.428  14.735  18.216  0.00  0.00    +0.000 OA
ATOM     30  H   UNL     1       2.250  13.803  17.980  0.00  0.00    +0.000 HD
ENDBRANCH  26  29
ENDBRANCH   6  21
BRANCH  17  31
ATOM     31  O   UNL     1       3.840   5.089  17.103  0.00  0.00    +0.000 OA
ATOM     32  H   UNL     1       4.566   4.488  17.351  0.00  0.00    +0.000 HD
ENDBRANCH  17  31
TORSDOF 4
ENDMDL
MODEL 9
REMARK VINA RESULT:      -7.1      0.970      1.739
REMARK  Name = 
REMARK  7 active torsions:
REMARK  status: ('A' for Active; 'I' for Inactive)
REMARK    1  A    between atoms: C_1  and  C_2
REMARK    2  A    between atoms: N_6  and  C_7
REMARK    3  A    between atoms: C_9  and  C_10
REMARK    4  A    between atoms: C_11  and  O_12
REMARK    5  A    between atoms: C_13  and  O_14
REMARK    6  A    between atoms: C_17  and  C_18
REMARK    7  A    between atoms: C_25  and  O_26
REMARK                            x       y       z     vdW  Elec       q    Type
REMARK                         _______ _______ _______ _____ _____    ______ ____
ROOT
ATOM      1  C   UNL     1       2.155   4.659  21.264  0.00  0.00    +0.000 C 
ATOM      2  C   UNL     1       2.361   5.726  20.216  0.00  0.00    +0.000 A 
ATOM      3  C   UNL     1       1.700   6.990  20.224  0.00  0.00    +0.000 A 
ATOM      4  C   UNL     1       0.770   7.351  21.223  0.00  0.00    +0.000 A 
ATOM      5  C   UNL     1       0.150   8.598  21.228  0.00  0.00    +0.000 A 
ATOM      6  N   UNL     1       0.460   9.500  20.289  0.00  0.00    +0.000 N 
ATOM      7  C   UNL     1       1.319   9.184  19.295  0.00  0.00    +0.000 A 
ATOM      8  C   UNL     1       1.970   7.945  19.209  0.00  0.00    +0.000 A 
ATOM      9  C   UNL     1       2.888   7.659  18.151  0.00  0.00    +0.000 A 
ATOM     10  C   UNL     1       3.216   8.645  17.053  0.00  0.00    +0.000 C 
ATOM     11  C   UNL     1       3.522   6.389  18.134  0.00  0.00    +0.000 A 
ATOM     12  C   UNL     1       3.249   5.476  19.149  0.00  0.00    +0.000 A 
ATOM     13  N   UNL     1       4.000   4.347  18.877  0.00  0.00    +0.000 N 
ATOM     14  C   UNL     1       4.734   4.490  17.726  0.00  0.00    +0.000 A 
ATOM     15  C   UNL     1       5.608   3.599  17.088  0.00  0.00    +0.000 A 
ATOM     16  C   UNL     1       6.231   4.021  15.909  0.00  0.00    +0.000 A 
ATOM     17  C   UNL     1       5.980   5.287  15.404  0.00  0.00    +0.000 A 
ATOM     18  C   UNL     1       5.109   6.165  16.047  0.00  0.00    +0.000 A 
ATOM     19  C   UNL     1       4.464   5.765  17.237  0.00  0.00    +0.000 A 
ATOM     20  H   UNL     1       4.003   3.509  19.447  0.00  0.00    +0.000 HD
ENDROOT
BRANCH   6  21
ATOM     21  C   UNL     1      -0.039  10.892  20.354  0.00  0.00    +0.000 C 
ATOM     22  O   UNL     1      -1.460  10.998  20.419  0.00  0.00    +0.000 OA
ATOM     23  C   UNL     1      -1.714  12.319  20.965  0.00  0.00    +0.000 C 
ATOM     24  C   UNL     1      -1.633  13.374  19.860  0.00  0.00    +0.000 C 
ATOM     25  C   UNL     1      -0.619  12.526  22.020  0.00  0.00    +0.000 C 
ATOM     26  C   UNL     1       0.513  11.584  21.602  0.00  0.00    +0.000 C 
BRANCH  25  27
ATOM     27  O   UNL     1      -1.092  12.130  23.310  0.00  0.00    +0.000 OA
ATOM     28  H   UNL     1      -0.821  12.769  23.992  0.00  0.00    +0.000 HD
ENDBRANCH  25  27
BRANCH  26  29
ATOM     29  O   UNL     1       1.756  12.214  21.301  0.00  0.00    +0.000 OA
ATOM     30  H   UNL     1       1.711  12.680  20.442  0.00  0.00    +0.000 HD
ENDBRANCH  26  29
ENDBRANCH   6  21
BRANCH  17  31
ATOM     31  O   UNL     1       6.568   5.738  14.257  0.00  0.00    +0.000 OA
ATOM     32  H   UNL     1       7.151   6.487  14.477  0.00  0.00    +0.000 HD
ENDBRANCH  17  31
TORSDOF 4
ENDMDL
