MODEL 1
REMARK VINA RESULT:      -8.0      0.000      0.000
REMARK  Name = 
REMARK  8 active torsions:
REMARK  status: ('A' for Active; 'I' for Inactive)
REMARK    1  A    between atoms: C_2  and  C_3
REMARK    2  A    between atoms: C_3  and  O_4
REMARK    3  A    between atoms: O_4  and  C_5
REMARK    4  A    between atoms: C_8  and  C_9
REMARK    5  A    between atoms: C_11  and  C_12
REMARK    6  A    between atoms: C_16  and  O_17
REMARK    7  A    between atoms: O_17  and  C_18
REMARK    8  A    between atoms: C_18  and  C_19
REMARK                            x       y       z     vdW  Elec       q    Type
REMARK                         _______ _______ _______ _____ _____    ______ ____
ROOT
ATOM      1  C   UNL     1       3.125   5.876  18.738  0.00  0.00    +0.000 A 
ATOM      2  C   UNL     1       2.602   7.107  19.033  0.00  0.00    +0.000 A 
ATOM      3  C   UNL     1       1.854   7.218  20.176  0.00  0.00    +0.000 A 
ATOM      4  N   UNL     1       1.628   6.155  20.989  0.00  0.00    +0.000 NA
ATOM      5  C   UNL     1       2.131   4.985  20.603  0.00  0.00    +0.000 A 
ATOM      6  N   UNL     1       1.837   3.877  21.365  0.00  0.00    +0.000 N 
ATOM      7  N   UNL     1       2.879   4.807  19.518  0.00  0.00    +0.000 NA
ATOM      8  H   UNL     1       1.542   4.099  22.302  0.00  0.00    +0.000 HD
ATOM      9  H   UNL     1       2.467   3.107  21.204  0.00  0.00    +0.000 HD
ENDROOT
BRANCH   1  13
ATOM     10  C   UNL     1       5.617   5.225  15.283  0.00  0.00    +0.000 A 
ATOM     11  C   UNL     1       5.254   6.517  15.666  0.00  0.00    +0.000 A 
ATOM     12  C   UNL     1       4.464   6.729  16.798  0.00  0.00    +0.000 A 
ATOM     13  C   UNL     1       3.979   5.651  17.560  0.00  0.00    +0.000 A 
ATOM     14  C   UNL     1       4.342   4.360  17.152  0.00  0.00    +0.000 A 
ATOM     15  C   UNL     1       5.147   4.144  16.028  0.00  0.00    +0.000 A 
BRANCH  10  16
ATOM     16  O   UNL     1       6.423   5.134  14.180  0.00  0.00    +0.000 OA
BRANCH  16  17
ATOM     17  C   UNL     1       6.599   3.820  13.640  0.00  0.00    +0.000 C 
BRANCH  17  19
ATOM     18  C   UNL     1       4.630   3.362  11.668  0.00  0.00    +0.000 C 
ATOM     19  C   UNL     1       5.539   3.573  12.579  0.00  0.00    +0.000 C 
ENDBRANCH  17  19
ENDBRANCH  16  17
ENDBRANCH  10  16
ENDBRANCH   1  13
BRANCH   3  20
ATOM     20  C   UNL     1       1.213   8.483  20.563  0.00  0.00    +0.000 A 
ATOM     21  C   UNL     1       0.790   8.706  21.879  0.00  0.00    +0.000 A 
ATOM     22  C   UNL     1       0.102   9.861  22.227  0.00  0.00    +0.000 A 
ATOM     23  C   UNL     1      -0.152  10.834  21.257  0.00  0.00    +0.000 A 
ATOM     24  C   UNL     1       0.271  10.651  19.944  0.00  0.00    +0.000 A 
ATOM     25  C   UNL     1       0.971   9.495  19.605  0.00  0.00    +0.000 A 
BRANCH  24  26
ATOM     26  O   UNL     1      -0.045  11.675  19.087  0.00  0.00    +0.000 OA
BRANCH  26  27
ATOM     27  C   UNL     1      -1.433  11.845  18.807  0.00  0.00    +0.000 C 
BRANCH  27  28
ATOM     28  C   UNL     1      -1.875  10.799  17.796  0.00  0.00    +0.000 C 
ATOM     29  C   UNL     1      -2.254   9.902  16.928  0.00  0.00    +0.000 C 
ENDBRANCH  27  28
ENDBRANCH  26  27
ENDBRANCH  24  26
ENDBRANCH   3  20
TORSDOF 8
ENDMDL
MODEL 2
REMARK VINA RESULT:      -7.9      1.915      8.862
REMARK  Name = 
REMARK  8 active torsions:
REMARK  status: ('A' for Active; 'I' for Inactive)
REMARK    1  A    between atoms: C_2  and  C_3
REMARK    2  A    between atoms: C_3  and  O_4
REMARK    3  A    between atoms: O_4  and  C_5
REMARK    4  A    between atoms: C_8  and  C_9
REMARK    5  A    between atoms: C_11  and  C_12
REMARK    6  A    between atoms: C_16  and  O_17
REMARK    7  A    between atoms: O_17  and  C_18
REMARK    8  A    between atoms: C_18  and  C_19
REMARK                            x       y       z     vdW  Elec       q    Type
REMARK                         _______ _______ _______ _____ _____    ______ ____
ROOT
ATOM      1  C   UNL     1       3.869   5.713  17.869  0.00  0.00    +0.000 A 
ATOM      2  C   UNL     1       4.452   5.699  16.630  0.00  0.00    +0.000 A 
ATOM      3  C   UNL     1       5.134   4.567  16.265  0.00  0.00    +0.000 A 
ATOM      4  N   UNL     1       5.239   3.498  17.094  0.00  0.00    +0.000 NA
ATOM      5  C   UNL     1       4.686   3.613  18.298  0.00  0.00    +0.000 A 
ATOM      6  N   UNL     1       4.859   2.575  19.186  0.00  0.00    +0.000 N 
ATOM      7  N   UNL     1       3.996   4.671  18.712  0.00  0.00    +0.000 NA
ATOM      8  H   UNL     1       5.110   1.706  18.745  0.00  0.00    +0.000 HD
ATOM      9  H   UNL     1       4.191   2.583  19.940  0.00  0.00    +0.000 HD
ENDROOT
BRANCH   1  13
ATOM     10  C   UNL     1       1.533   9.051  19.272  0.00  0.00    +0.000 A 
ATOM     11  C   UNL     1       1.758   7.945  20.092  0.00  0.00    +0.000 A 
ATOM     12  C   UNL     1       2.533   6.873  19.645  0.00  0.00    +0.000 A 
ATOM     13  C   UNL     1       3.075   6.856  18.347  0.00  0.00    +0.000 A 
ATOM     14  C   UNL     1       2.825   7.969  17.532  0.00  0.00    +0.000 A 
ATOM     15  C   UNL     1       2.063   9.053  17.982  0.00  0.00    +0.000 A 
BRANCH  10  16
ATOM     16  O   UNL     1       0.790  10.061  19.823  0.00  0.00    +0.000 OA
BRANCH  16  17
ATOM     17  C   UNL     1      -0.472   9.678  20.379  0.00  0.00    +0.000 C 
BRANCH  17  19
ATOM     18  C   UNL     1      -0.324   9.830  23.195  0.00  0.00    +0.000 C 
ATOM     19  C   UNL     1      -0.392   9.760  21.895  0.00  0.00    +0.000 C 
ENDBRANCH  17  19
ENDBRANCH  16  17
ENDBRANCH  10  16
ENDBRANCH   1  13
BRANCH   3  20
ATOM     20  C   UNL     1       5.832   4.465  14.976  0.00  0.00    +0.000 A 
ATOM     21  C   UNL     1       7.062   5.099  14.766  0.00  0.00    +0.000 A 
ATOM     22  C   UNL     1       7.679   5.082  13.523  0.00  0.00    +0.000 A 
ATOM     23  C   UNL     1       7.078   4.399  12.462  0.00  0.00    +0.000 A 
ATOM     24  C   UNL     1       5.863   3.744  12.641  0.00  0.00    +0.000 A 
ATOM     25  C   UNL     1       5.256   3.755  13.895  0.00  0.00    +0.000 A 
BRANCH  24  26
ATOM     26  O   UNL     1       5.375   3.117  11.522  0.00  0.00    +0.000 OA
BRANCH  26  27
ATOM     27  C   UNL     1       3.964   2.909  11.492  0.00  0.00    +0.000 C 
BRANCH  27  28
ATOM     28  C   UNL     1       3.359   3.724  10.360  0.00  0.00    +0.000 C 
ATOM     29  C   UNL     1       2.840   4.422   9.388  0.00  0.00    +0.000 C 
ENDBRANCH  27  28
ENDBRANCH  26  27
ENDBRANCH  24  26
ENDBRANCH   3  20
TORSDOF 8
ENDMDL
MODEL 3
REMARK VINA RESULT:      -7.9      1.661      8.631
REMARK  Name = 
REMARK  8 active torsions:
REMARK  status: ('A' for Active; 'I' for Inactive)
REMARK    1  A    between atoms: C_2  and  C_3
REMARK    2  A    between atoms: C_3  and  O_4
REMARK    3  A    between atoms: O_4  and  C_5
REMARK    4  A    between atoms: C_8  and  C_9
REMARK    5  A    between atoms: C_11  and  C_12
REMARK    6  A    between atoms: C_16  and  O_17
REMARK    7  A    between atoms: O_17  and  C_18
REMARK    8  A    between atoms: C_18  and  C_19
REMARK                            x       y       z     vdW  Elec       q    Type
REMARK                         _______ _______ _______ _____ _____    ______ ____
ROOT
ATOM      1  C   UNL     1       3.626   5.612  17.929  0.00  0.00    +0.000 A 
ATOM      2  C   UNL     1       4.301   5.644  16.738  0.00  0.00    +0.000 A 
ATOM      3  C   UNL     1       4.917   4.489  16.330  0.00  0.00    +0.000 A 
ATOM      4  N   UNL     1       4.872   3.354  17.072  0.00  0.00    +0.000 NA
ATOM      5  C   UNL     1       4.237   3.423  18.238  0.00  0.00    +0.000 A 
ATOM      6  N   UNL     1       4.257   2.309  19.048  0.00  0.00    +0.000 N 
ATOM      7  N   UNL     1       3.603   4.501  18.689  0.00  0.00    +0.000 NA
ATOM      8  H   UNL     1       4.471   1.457  18.555  0.00  0.00    +0.000 HD
ATOM      9  H   UNL     1       3.536   2.316  19.750  0.00  0.00    +0.000 HD
ENDROOT
BRANCH   1  13
ATOM     10  C   UNL     1       1.487   9.037  19.431  0.00  0.00    +0.000 A 
ATOM     11  C   UNL     1       1.993   9.028  18.131  0.00  0.00    +0.000 A 
ATOM     12  C   UNL     1       2.668   7.909  17.637  0.00  0.00    +0.000 A 
ATOM     13  C   UNL     1       2.892   6.779  18.443  0.00  0.00    +0.000 A 
ATOM     14  C   UNL     1       2.388   6.812  19.752  0.00  0.00    +0.000 A 
ATOM     15  C   UNL     1       1.698   7.924  20.245  0.00  0.00    +0.000 A 
BRANCH  10  16
ATOM     16  O   UNL     1       0.812  10.170  19.800  0.00  0.00    +0.000 OA
BRANCH  16  17
ATOM     17  C   UNL     1      -0.615  10.060  19.849  0.00  0.00    +0.000 C 
BRANCH  17  19
ATOM     18  C   UNL     1      -1.735  11.657  17.807  0.00  0.00    +0.000 C 
ATOM     19  C   UNL     1      -1.217  10.920  18.750  0.00  0.00    +0.000 C 
ENDBRANCH  17  19
ENDBRANCH  16  17
ENDBRANCH  10  16
ENDBRANCH   1  13
BRANCH   3  20
ATOM     20  C   UNL     1       5.702   4.427  15.089  0.00  0.00    +0.000 A 
ATOM     21  C   UNL     1       6.961   5.033  14.998  0.00  0.00    +0.000 A 
ATOM     22  C   UNL     1       7.665   5.056  13.802  0.00  0.00    +0.000 A 
ATOM     23  C   UNL     1       7.124   4.442  12.669  0.00  0.00    +0.000 A 
ATOM     24  C   UNL     1       5.883   3.814  12.730  0.00  0.00    +0.000 A 
ATOM     25  C   UNL     1       5.188   3.785  13.937  0.00  0.00    +0.000 A 
BRANCH  24  26
ATOM     26  O   UNL     1       5.459   3.255  11.550  0.00  0.00    +0.000 OA
BRANCH  26  27
ATOM     27  C   UNL     1       4.077   2.910  11.486  0.00  0.00    +0.000 C 
BRANCH  27  28
ATOM     28  C   UNL     1       3.407   3.718  10.386  0.00  0.00    +0.000 C 
ATOM     29  C   UNL     1       2.831   4.410   9.443  0.00  0.00    +0.000 C 
ENDBRANCH  27  28
ENDBRANCH  26  27
ENDBRANCH  24  26
ENDBRANCH   3  20
TORSDOF 8
ENDMDL
MODEL 4
REMARK VINA RESULT:      -7.8      1.799      8.698
REMARK  Name = 
REMARK  8 active torsions:
REMARK  status: ('A' for Active; 'I' for Inactive)
REMARK    1  A    between atoms: C_2  and  C_3
REMARK    2  A    between atoms: C_3  and  O_4
REMARK    3  A    between atoms: O_4  and  C_5
REMARK    4  A    between atoms: C_8  and  C_9
REMARK    5  A    between atoms: C_11  and  C_12
REMARK    6  A    between atoms: C_16  and  O_17
REMARK    7  A    between atoms: O_17  and  C_18
REMARK    8  A    between atoms: C_18  and  C_19
REMARK                            x       y       z     vdW  Elec       q    Type
REMARK                         _______ _______ _______ _____ _____    ______ ____
ROOT
ATOM      1  C   UNL     1       3.666   5.590  17.868  0.00  0.00    +0.000 A 
ATOM      2  C   UNL     1       4.330   5.620  16.671  0.00  0.00    +0.000 A 
ATOM      3  C   UNL     1       4.945   4.465  16.261  0.00  0.00    +0.000 A 
ATOM      4  N   UNL     1       4.907   3.332  17.006  0.00  0.00    +0.000 NA
ATOM      5  C   UNL     1       4.282   3.403  18.178  0.00  0.00    +0.000 A 
ATOM      6  N   UNL     1       4.311   2.290  18.989  0.00  0.00    +0.000 N 
ATOM      7  N   UNL     1       3.651   4.481  18.631  0.00  0.00    +0.000 NA
ATOM      8  H   UNL     1       4.522   1.438  18.496  0.00  0.00    +0.000 HD
ATOM      9  H   UNL     1       3.595   2.298  19.698  0.00  0.00    +0.000 HD
ENDROOT
BRANCH   1  13
ATOM     10  C   UNL     1       1.511   8.999  19.386  0.00  0.00    +0.000 A 
ATOM     11  C   UNL     1       1.715   7.873  20.184  0.00  0.00    +0.000 A 
ATOM     12  C   UNL     1       2.432   6.777  19.699  0.00  0.00    +0.000 A 
ATOM     13  C   UNL     1       2.934   6.757  18.386  0.00  0.00    +0.000 A 
ATOM     14  C   UNL     1       2.706   7.892  17.593  0.00  0.00    +0.000 A 
ATOM     15  C   UNL     1       2.002   8.999  18.081  0.00  0.00    +0.000 A 
BRANCH  10  16
ATOM     16  O   UNL     1       0.827  10.029  19.973  0.00  0.00    +0.000 OA
BRANCH  16  17
ATOM     17  C   UNL     1       0.938  11.302  19.327  0.00  0.00    +0.000 C 
BRANCH  17  19
ATOM     18  C   UNL     1      -1.565  11.995  18.217  0.00  0.00    +0.000 C 
ATOM     19  C   UNL     1      -0.409  11.675  18.730  0.00  0.00    +0.000 C 
ENDBRANCH  17  19
ENDBRANCH  16  17
ENDBRANCH  10  16
ENDBRANCH   1  13
BRANCH   3  20
ATOM     20  C   UNL     1       5.720   4.402  15.014  0.00  0.00    +0.000 A 
ATOM     21  C   UNL     1       6.956   5.048  14.896  0.00  0.00    +0.000 A 
ATOM     22  C   UNL     1       7.647   5.068  13.692  0.00  0.00    +0.000 A 
ATOM     23  C   UNL     1       7.116   4.409  12.580  0.00  0.00    +0.000 A 
ATOM     24  C   UNL     1       5.898   3.742  12.668  0.00  0.00    +0.000 A 
ATOM     25  C   UNL     1       5.216   3.717  13.882  0.00  0.00    +0.000 A 
BRANCH  24  26
ATOM     26  O   UNL     1       5.483   3.142  11.505  0.00  0.00    +0.000 OA
BRANCH  26  27
ATOM     27  C   UNL     1       4.096   2.817  11.434  0.00  0.00    +0.000 C 
BRANCH  27  28
ATOM     28  C   UNL     1       3.430   3.680  10.375  0.00  0.00    +0.000 C 
ATOM     29  C   UNL     1       2.858   4.421   9.466  0.00  0.00    +0.000 C 
ENDBRANCH  27  28
ENDBRANCH  26  27
ENDBRANCH  24  26
ENDBRANCH   3  20
TORSDOF 8
ENDMDL
MODEL 5
REMARK VINA RESULT:      -7.8      1.383      2.387
REMARK  Name = 
REMARK  8 active torsions:
REMARK  status: ('A' for Active; 'I' for Inactive)
REMARK    1  A    between atoms: C_2  and  C_3
REMARK    2  A    between atoms: C_3  and  O_4
REMARK    3  A    between atoms: O_4  and  C_5
REMARK    4  A    between atoms: C_8  and  C_9
REMARK    5  A    between atoms: C_11  and  C_12
REMARK    6  A    between atoms: C_16  and  O_17
REMARK    7  A    between atoms: O_17  and  C_18
REMARK    8  A    between atoms: C_18  and  C_19
REMARK                            x       y       z     vdW  Elec       q    Type
REMARK                         _______ _______ _______ _____ _____    ______ ____
ROOT
ATOM      1  C   UNL     1       3.343   5.776  18.466  0.00  0.00    +0.000 A 
ATOM      2  C   UNL     1       2.802   7.020  18.655  0.00  0.00    +0.000 A 
ATOM      3  C   UNL     1       2.078   7.227  19.801  0.00  0.00    +0.000 A 
ATOM      4  N   UNL     1       1.895   6.244  20.718  0.00  0.00    +0.000 NA
ATOM      5  C   UNL     1       2.412   5.052  20.434  0.00  0.00    +0.000 A 
ATOM      6  N   UNL     1       2.160   4.017  21.307  0.00  0.00    +0.000 N 
ATOM      7  N   UNL     1       3.138   4.784  19.353  0.00  0.00    +0.000 NA
ATOM      8  H   UNL     1       1.883   4.324  22.225  0.00  0.00    +0.000 HD
ATOM      9  H   UNL     1       2.801   3.248  21.205  0.00  0.00    +0.000 HD
ENDROOT
BRANCH   1  13
ATOM     10  C   UNL     1       5.766   4.839  15.029  0.00  0.00    +0.000 A 
ATOM     11  C   UNL     1       5.412   6.158  15.312  0.00  0.00    +0.000 A 
ATOM     12  C   UNL     1       4.644   6.464  16.438  0.00  0.00    +0.000 A 
ATOM     13  C   UNL     1       4.174   5.454  17.295  0.00  0.00    +0.000 A 
ATOM     14  C   UNL     1       4.527   4.132  16.986  0.00  0.00    +0.000 A 
ATOM     15  C   UNL     1       5.309   3.823  15.868  0.00  0.00    +0.000 A 
BRANCH  10  16
ATOM     16  O   UNL     1       6.549   4.657  13.921  0.00  0.00    +0.000 OA
BRANCH  16  17
ATOM     17  C   UNL     1       6.466   3.369  13.300  0.00  0.00    +0.000 C 
BRANCH  17  19
ATOM     18  C   UNL     1       4.345   3.380  11.436  0.00  0.00    +0.000 C 
ATOM     19  C   UNL     1       5.324   3.375  12.297  0.00  0.00    +0.000 C 
ENDBRANCH  17  19
ENDBRANCH  16  17
ENDBRANCH  10  16
ENDBRANCH   1  13
BRANCH   3  20
ATOM     20  C   UNL     1       1.421   8.511  20.080  0.00  0.00    +0.000 A 
ATOM     21  C   UNL     1       1.210   9.452  19.065  0.00  0.00    +0.000 A 
ATOM     22  C   UNL     1       0.674  10.702  19.341  0.00  0.00    +0.000 A 
ATOM     23  C   UNL     1       0.311  11.025  20.651  0.00  0.00    +0.000 A 
ATOM     24  C   UNL     1       0.491  10.106  21.681  0.00  0.00    +0.000 A 
ATOM     25  C   UNL     1       1.018   8.849  21.394  0.00  0.00    +0.000 A 
BRANCH  24  26
ATOM     26  O   UNL     1       0.101  10.545  22.922  0.00  0.00    +0.000 OA
BRANCH  26  27
ATOM     27  C   UNL     1      -1.266  10.932  23.044  0.00  0.00    +0.000 C 
BRANCH  27  28
ATOM     28  C   UNL     1      -1.348  12.437  23.241  0.00  0.00    +0.000 C 
ATOM     29  C   UNL     1      -1.419  13.729  23.410  0.00  0.00    +0.000 C 
ENDBRANCH  27  28
ENDBRANCH  26  27
ENDBRANCH  24  26
ENDBRANCH   3  20
TORSDOF 8
ENDMDL
MODEL 6
REMARK VINA RESULT:      -7.7      1.466      2.522
REMARK  Name = 
REMARK  8 active torsions:
REMARK  status: ('A' for Active; 'I' for Inactive)
REMARK    1  A    between atoms: C_2  and  C_3
REMARK    2  A    between atoms: C_3  and  O_4
REMARK    3  A    between atoms: O_4  and  C_5
REMARK    4  A    between atoms: C_8  and  C_9
REMARK    5  A    between atoms: C_11  and  C_12
REMARK    6  A    between atoms: C_16  and  O_17
REMARK    7  A    between atoms: O_17  and  C_18
REMARK    8  A    between atoms: C_18  and  C_19
REMARK                            x       y       z     vdW  Elec       q    Type
REMARK                         _______ _______ _______ _____ _____    ______ ____
ROOT
ATOM      1  C   UNL     1       3.398   5.607  18.508  0.00  0.00    +0.000 A 
ATOM      2  C   UNL     1       2.920   6.884  18.639  0.00  0.00    +0.000 A 
ATOM      3  C   UNL     1       2.127   7.154  19.724  0.00  0.00    +0.000 A 
ATOM      4  N   UNL     1       1.816   6.200  20.637  0.00  0.00    +0.000 NA
ATOM      5  C   UNL     1       2.280   4.975  20.409  0.00  0.00    +0.000 A 
ATOM      6  N   UNL     1       1.901   3.973  21.274  0.00  0.00    +0.000 N 
ATOM      7  N   UNL     1       3.067   4.645  19.390  0.00  0.00    +0.000 NA
ATOM      8  H   UNL     1       1.575   4.312  22.164  0.00  0.00    +0.000 HD
ATOM      9  H   UNL     1       2.501   3.164  21.231  0.00  0.00    +0.000 HD
ENDROOT
BRANCH   1  13
ATOM     10  C   UNL     1       6.028   4.455  15.295  0.00  0.00    +0.000 A 
ATOM     11  C   UNL     1       5.530   3.502  16.184  0.00  0.00    +0.000 A 
ATOM     12  C   UNL     1       4.660   3.873  17.213  0.00  0.00    +0.000 A 
ATOM     13  C   UNL     1       4.293   5.216  17.407  0.00  0.00    +0.000 A 
ATOM     14  C   UNL     1       4.815   6.162  16.513  0.00  0.00    +0.000 A 
ATOM     15  C   UNL     1       5.673   5.792  15.472  0.00  0.00    +0.000 A 
BRANCH  10  16
ATOM     16  O   UNL     1       6.843   3.978  14.304  0.00  0.00    +0.000 OA
BRANCH  16  17
ATOM     17  C   UNL     1       6.523   4.399  12.974  0.00  0.00    +0.000 C 
BRANCH  17  19
ATOM     18  C   UNL     1       5.474   2.205  11.538  0.00  0.00    +0.000 C 
ATOM     19  C   UNL     1       5.958   3.218  12.201  0.00  0.00    +0.000 C 
ENDBRANCH  17  19
ENDBRANCH  16  17
ENDBRANCH  10  16
ENDBRANCH   1  13
BRANCH   3  20
ATOM     20  C   UNL     1       1.530   8.480  19.935  0.00  0.00    +0.000 A 
ATOM     21  C   UNL     1       1.349   9.371  18.871  0.00  0.00    +0.000 A 
ATOM     22  C   UNL     1       0.871  10.657  19.080  0.00  0.00    +0.000 A 
ATOM     23  C   UNL     1       0.537  11.068  20.373  0.00  0.00    +0.000 A 
ATOM     24  C   UNL     1       0.688  10.202  21.452  0.00  0.00    +0.000 A 
ATOM     25  C   UNL     1       1.157   8.909  21.232  0.00  0.00    +0.000 A 
BRANCH  24  26
ATOM     26  O   UNL     1       0.332  10.727  22.669  0.00  0.00    +0.000 OA
BRANCH  26  27
ATOM     27  C   UNL     1      -0.934  10.313  23.179  0.00  0.00    +0.000 C 
BRANCH  27  28
ATOM     28  C   UNL     1      -1.887  11.497  23.184  0.00  0.00    +0.000 C 
ATOM     29  C   UNL     1      -2.705  12.513  23.189  0.00  0.00    +0.000 C 
ENDBRANCH  27  28
ENDBRANCH  26  27
ENDBRANCH  24  26
ENDBRANCH   3  20
TORSDOF 8
ENDMDL
MODEL 7
REMARK VINA RESULT:      -7.7      1.295      8.239
REMARK  Name = 
REMARK  8 active torsions:
REMARK  status: ('A' for Active; 'I' for Inactive)
REMARK    1  A    between atoms: C_2  and  C_3
REMARK    2  A    between atoms: C_3  and  O_4
REMARK    3  A    between atoms: O_4  and  C_5
REMARK    4  A    between atoms: C_8  and  C_9
REMARK    5  A    between atoms: C_11  and  C_12
REMARK    6  A    between atoms: C_16  and  O_17
REMARK    7  A    between atoms: O_17  and  C_18
REMARK    8  A    between atoms: C_18  and  C_19
REMARK                            x       y       z     vdW  Elec       q    Type
REMARK                         _______ _______ _______ _____ _____    ______ ____
ROOT
ATOM      1  C   UNL     1       2.262   6.897  19.807  0.00  0.00    +0.000 A 
ATOM      2  C   UNL     1       3.357   6.658  19.021  0.00  0.00    +0.000 A 
ATOM      3  C   UNL     1       3.945   5.423  19.114  0.00  0.00    +0.000 A 
ATOM      4  N   UNL     1       3.471   4.468  19.953  0.00  0.00    +0.000 NA
ATOM      5  C   UNL     1       2.434   4.799  20.717  0.00  0.00    +0.000 A 
ATOM      6  N   UNL     1       1.996   3.875  21.640  0.00  0.00    +0.000 N 
ATOM      7  N   UNL     1       1.805   5.968  20.668  0.00  0.00    +0.000 NA
ATOM      8  H   UNL     1       2.288   2.934  21.437  0.00  0.00    +0.000 HD
ATOM      9  H   UNL     1       1.059   4.053  21.965  0.00  0.00    +0.000 HD
ENDROOT
BRANCH   1  13
ATOM     10  C   UNL     1       0.119  10.633  19.659  0.00  0.00    +0.000 A 
ATOM     11  C   UNL     1       0.960  10.252  18.613  0.00  0.00    +0.000 A 
ATOM     12  C   UNL     1       1.638   9.031  18.652  0.00  0.00    +0.000 A 
ATOM     13  C   UNL     1       1.526   8.171  19.757  0.00  0.00    +0.000 A 
ATOM     14  C   UNL     1       0.688   8.576  20.807  0.00  0.00    +0.000 A 
ATOM     15  C   UNL     1      -0.005   9.791  20.765  0.00  0.00    +0.000 A 
BRANCH  10  16
ATOM     16  O   UNL     1      -0.523  11.831  19.503  0.00  0.00    +0.000 OA
BRANCH  16  17
ATOM     17  C   UNL     1      -1.157  12.041  18.236  0.00  0.00    +0.000 C 
BRANCH  17  19
ATOM     18  C   UNL     1      -2.968   9.930  17.748  0.00  0.00    +0.000 C 
ATOM     19  C   UNL     1      -2.131  10.905  17.974  0.00  0.00    +0.000 C 
ENDBRANCH  17  19
ENDBRANCH  16  17
ENDBRANCH  10  16
ENDBRANCH   1  13
BRANCH   3  20
ATOM     20  C   UNL     1       5.149   5.078  18.345  0.00  0.00    +0.000 A 
ATOM     21  C   UNL     1       6.419   5.485  18.770  0.00  0.00    +0.000 A 
ATOM     22  C   UNL     1       7.549   5.242  18.000  0.00  0.00    +0.000 A 
ATOM     23  C   UNL     1       7.425   4.555  16.790  0.00  0.00    +0.000 A 
ATOM     24  C   UNL     1       6.179   4.121  16.347  0.00  0.00    +0.000 A 
ATOM     25  C   UNL     1       5.052   4.359  17.131  0.00  0.00    +0.000 A 
BRANCH  24  26
ATOM     26  O   UNL     1       6.191   3.465  15.141  0.00  0.00    +0.000 OA
BRANCH  26  27
ATOM     27  C   UNL     1       6.320   4.291  13.986  0.00  0.00    +0.000 C 
BRANCH  27  28
ATOM     28  C   UNL     1       5.996   3.476  12.744  0.00  0.00    +0.000 C 
ATOM     29  C   UNL     1       5.718   2.776  11.679  0.00  0.00    +0.000 C 
ENDBRANCH  27  28
ENDBRANCH  26  27
ENDBRANCH  24  26
ENDBRANCH   3  20
TORSDOF 8
ENDMDL
MODEL 8
REMARK VINA RESULT:      -7.6      0.646      1.123
REMARK  Name = 
REMARK  8 active torsions:
REMARK  status: ('A' for Active; 'I' for Inactive)
REMARK    1  A    between atoms: C_2  and  C_3
REMARK    2  A    between atoms: C_3  and  O_4
REMARK    3  A    between atoms: O_4  and  C_5
REMARK    4  A    between atoms: C_8  and  C_9
REMARK    5  A    between atoms: C_11  and  C_12
REMARK    6  A    between atoms: C_16  and  O_17
REMARK    7  A    between atoms: O_17  and  C_18
REMARK    8  A    between atoms: C_18  and  C_19
REMARK                            x       y       z     vdW  Elec       q    Type
REMARK                         _______ _______ _______ _____ _____    ______ ____
ROOT
ATOM      1  C   UNL     1       3.411   5.706  18.836  0.00  0.00    +0.000 A 
ATOM      2  C   UNL     1       2.912   6.959  19.069  0.00  0.00    +0.000 A 
ATOM      3  C   UNL     1       1.990   7.095  20.075  0.00  0.00    +0.000 A 
ATOM      4  N   UNL     1       1.577   6.034  20.814  0.00  0.00    +0.000 NA
ATOM      5  C   UNL     1       2.075   4.844  20.489  0.00  0.00    +0.000 A 
ATOM      6  N   UNL     1       1.601   3.742  21.165  0.00  0.00    +0.000 N 
ATOM      7  N   UNL     1       2.983   4.641  19.539  0.00  0.00    +0.000 NA
ATOM      8  H   UNL     1       1.166   3.967  22.045  0.00  0.00    +0.000 HD
ATOM      9  H   UNL     1       2.208   2.941  21.093  0.00  0.00    +0.000 HD
ENDROOT
BRANCH   1  13
ATOM     10  C   UNL     1       6.425   4.960  15.848  0.00  0.00    +0.000 A 
ATOM     11  C   UNL     1       6.186   4.035  16.864  0.00  0.00    +0.000 A 
ATOM     12  C   UNL     1       5.194   4.267  17.820  0.00  0.00    +0.000 A 
ATOM     13  C   UNL     1       4.437   5.452  17.811  0.00  0.00    +0.000 A 
ATOM     14  C   UNL     1       4.702   6.377  16.791  0.00  0.00    +0.000 A 
ATOM     15  C   UNL     1       5.684   6.141  15.823  0.00  0.00    +0.000 A 
BRANCH  10  16
ATOM     16  O   UNL     1       7.394   4.616  14.944  0.00  0.00    +0.000 OA
BRANCH  16  17
ATOM     17  C   UNL     1       7.175   5.048  13.596  0.00  0.00    +0.000 C 
BRANCH  17  19
ATOM     18  C   UNL     1       5.780   3.032  12.196  0.00  0.00    +0.000 C 
ATOM     19  C   UNL     1       6.425   3.962  12.842  0.00  0.00    +0.000 C 
ENDBRANCH  17  19
ENDBRANCH  16  17
ENDBRANCH  10  16
ENDBRANCH   1  13
BRANCH   3  20
ATOM     20  C   UNL     1       1.361   8.387  20.381  0.00  0.00    +0.000 A 
ATOM     21  C   UNL     1       0.899   8.681  21.669  0.00  0.00    +0.000 A 
ATOM     22  C   UNL     1       0.222   9.862  21.940  0.00  0.00    +0.000 A 
ATOM     23  C   UNL     1       0.018  10.792  20.917  0.00  0.00    +0.000 A 
ATOM     24  C   UNL     1       0.480  10.539  19.629  0.00  0.00    +0.000 A 
ATOM     25  C   UNL     1       1.168   9.356  19.368  0.00  0.00    +0.000 A 
BRANCH  24  26
ATOM     26  O   UNL     1       0.210  11.526  18.714  0.00  0.00    +0.000 OA
BRANCH  26  27
ATOM     27  C   UNL     1      -1.170  11.825  18.511  0.00  0.00    +0.000 C 
BRANCH  27  28
ATOM     28  C   UNL     1      -1.798  10.742  17.649  0.00  0.00    +0.000 C 
ATOM     29  C   UNL     1      -2.338   9.812  16.910  0.00  0.00    +0.000 C 
ENDBRANCH  27  28
ENDBRANCH  26  27
ENDBRANCH  24  26
ENDBRANCH   3  20
TORSDOF 8
ENDMDL
MODEL 9
REMARK VINA RESULT:      -7.6      1.118      8.417
REMARK  Name = 
REMARK  8 active torsions:
REMARK  status: ('A' for Active; 'I' for Inactive)
REMARK    1  A    between atoms: C_2  and  C_3
REMARK    2  A    between atoms: C_3  and  O_4
REMARK    3  A    between atoms: O_4  and  C_5
REMARK    4  A    between atoms: C_8  and  C_9
REMARK    5  A    between atoms: C_11  and  C_12
REMARK    6  A    between atoms: C_16  and  O_17
REMARK    7  A    between atoms: O_17  and  C_18
REMARK    8  A    between atoms: C_18  and  C_19
REMARK                            x       y       z     vdW  Elec       q    Type
REMARK                         _______ _______ _______ _____ _____    ______ ____
ROOT
ATOM      1  C   UNL     1       2.208   6.778  19.960  0.00  0.00    +0.000 A 
ATOM      2  C   UNL     1       3.192   6.590  19.027  0.00  0.00    +0.000 A 
ATOM      3  C   UNL     1       3.788   5.356  18.978  0.00  0.00    +0.000 A 
ATOM      4  N   UNL     1       3.429   4.355  19.819  0.00  0.00    +0.000 NA
ATOM      5  C   UNL     1       2.500   4.637  20.728  0.00  0.00    +0.000 A 
ATOM      6  N   UNL     1       2.186   3.663  21.650  0.00  0.00    +0.000 N 
ATOM      7  N   UNL     1       1.868   5.802  20.823  0.00  0.00    +0.000 NA
ATOM      8  H   UNL     1       2.451   2.735  21.361  0.00  0.00    +0.000 HD
ATOM      9  H   UNL     1       1.299   3.816  22.102  0.00  0.00    +0.000 HD
ENDROOT
BRANCH   1  13
ATOM     10  C   UNL     1       0.035  10.484  20.295  0.00  0.00    +0.000 A 
ATOM     11  C   UNL     1       0.044   9.567  21.346  0.00  0.00    +0.000 A 
ATOM     12  C   UNL     1       0.766   8.375  21.246  0.00  0.00    +0.000 A 
ATOM     13  C   UNL     1       1.470   8.047  20.074  0.00  0.00    +0.000 A 
ATOM     14  C   UNL     1       1.438   8.974  19.022  0.00  0.00    +0.000 A 
ATOM     15  C   UNL     1       0.729  10.176  19.125  0.00  0.00    +0.000 A 
BRANCH  10  16
ATOM     16  O   UNL     1      -0.675  11.634  20.514  0.00  0.00    +0.000 OA
BRANCH  16  17
ATOM     17  C   UNL     1      -0.996  12.403  19.349  0.00  0.00    +0.000 C 
BRANCH  17  19
ATOM     18  C   UNL     1      -3.518  11.590  18.374  0.00  0.00    +0.000 C 
ATOM     19  C   UNL     1      -2.353  11.965  18.824  0.00  0.00    +0.000 C 
ENDBRANCH  17  19
ENDBRANCH  16  17
ENDBRANCH  10  16
ENDBRANCH   1  13
BRANCH   3  20
ATOM     20  C   UNL     1       4.883   5.062  18.042  0.00  0.00    +0.000 A 
ATOM     21  C   UNL     1       6.178   4.797  18.504  0.00  0.00    +0.000 A 
ATOM     22  C   UNL     1       7.233   4.611  17.622  0.00  0.00    +0.000 A 
ATOM     23  C   UNL     1       7.000   4.661  16.245  0.00  0.00    +0.000 A 
ATOM     24  C   UNL     1       5.722   4.904  15.752  0.00  0.00    +0.000 A 
ATOM     25  C   UNL     1       4.666   5.079  16.644  0.00  0.00    +0.000 A 
BRANCH  24  26
ATOM     26  O   UNL     1       5.626   4.935  14.383  0.00  0.00    +0.000 OA
BRANCH  26  27
ATOM     27  C   UNL     1       6.327   3.907  13.688  0.00  0.00    +0.000 C 
BRANCH  27  28
ATOM     28  C   UNL     1       5.488   3.430  12.514  0.00  0.00    +0.000 C 
ATOM     29  C   UNL     1       4.768   3.020  11.506  0.00  0.00    +0.000 C 
ENDBRANCH  27  28
ENDBRANCH  26  27
ENDBRANCH  24  26
ENDBRANCH   3  20
TORSDOF 8
ENDMDL
