MODEL 1
REMARK VINA RESULT:      -7.1      0.000      0.000
REMARK  Name = 
REMARK  2 active torsions:
REMARK  status: ('A' for Active; 'I' for Inactive)
REMARK    1  A    between atoms: C_2  and  C_3
REMARK    2  A    between atoms: C_9  and  N_10
REMARK                            x       y       z     vdW  Elec       q    Type
REMARK                         _______ _______ _______ _____ _____    ______ ____
ROOT
ATOM      1  C   UNL     1       1.916   8.304  19.318  0.00  0.00    +0.000 A 
ATOM      2  C   UNL     1       2.434   8.912  18.170  0.00  0.00    +0.000 A 
ATOM      3  C   UNL     1       3.207   8.171  17.271  0.00  0.00    +0.000 A 
ATOM      4  C   UNL     1       3.475   6.828  17.528  0.00  0.00    +0.000 A 
ATOM      5  C   UNL     1       2.933   6.186  18.649  0.00  0.00    +0.000 A 
ATOM      6  C   UNL     1       2.167   6.943  19.552  0.00  0.00    +0.000 A 
ATOM      7  C   UNL     1       3.236   4.754  18.854  0.00  0.00    +0.000 C 
ATOM      8  C   UNL     1       4.307   4.278  18.194  0.00  0.00    +0.000 C 
ATOM      9  C   UNL     1       5.113   5.132  17.240  0.00  0.00    +0.000 C 
ATOM     10  C   UNL     1       5.642   4.251  16.081  0.00  0.00    +0.000 C 
ATOM     11  C   UNL     1       6.579   5.007  15.134  0.00  0.00    +0.000 C 
ATOM     12  C   UNL     1       7.719   5.688  15.886  0.00  0.00    +0.000 C 
ATOM     13  C   UNL     1       7.194   6.578  17.006  0.00  0.00    +0.000 C 
ATOM     14  C   UNL     1       6.311   5.781  17.967  0.00  0.00    +0.000 C 
ATOM     15  O   UNL     1       4.296   6.174  16.643  0.00  0.00    +0.000 OA
ENDROOT
BRANCH   7  16
ATOM     16  N   UNL     1       2.477   3.970  19.710  0.00  0.00    +0.000 N 
ATOM     17  C   UNL     1       2.900   3.954  21.034  0.00  0.00    +0.000 A 
ATOM     18  C   UNL     1       2.262   3.219  21.954  0.00  0.00    +0.000 A 
ATOM     19  C   UNL     1       1.122   2.424  21.580  0.00  0.00    +0.000 A 
ATOM     20  C   UNL     1       0.670   2.437  20.320  0.00  0.00    +0.000 A 
ATOM     21  C   UNL     1       1.353   3.256  19.275  0.00  0.00    +0.000 A 
ATOM     22  O   UNL     1       0.927   3.210  18.123  0.00  0.00    +0.000 OA
ENDBRANCH   7  16
BRANCH   1  24
ATOM     23  N   UNL     1       0.531   9.683  21.021  0.00  0.00    +0.000 NA
ATOM     24  C   UNL     1       1.151   9.067  20.261  0.00  0.00    +0.000 C 
ENDBRANCH   1  24
TORSDOF 2
ENDMDL
MODEL 2
REMARK VINA RESULT:      -6.8      3.009      5.136
REMARK  Name = 
REMARK  2 active torsions:
REMARK  status: ('A' for Active; 'I' for Inactive)
REMARK    1  A    between atoms: C_2  and  C_3
REMARK    2  A    between atoms: C_9  and  N_10
REMARK                            x       y       z     vdW  Elec       q    Type
REMARK                         _______ _______ _______ _____ _____    ______ ____
ROOT
ATOM      1  C   UNL     1       5.534   4.003  13.741  0.00  0.00    +0.000 A 
ATOM      2  C   UNL     1       6.877   4.389  13.675  0.00  0.00    +0.000 A 
ATOM      3  C   UNL     1       7.537   4.839  14.822  0.00  0.00    +0.000 A 
ATOM      4  C   UNL     1       6.849   4.918  16.032  0.00  0.00    +0.000 A 
ATOM      5  C   UNL     1       5.517   4.498  16.134  0.00  0.00    +0.000 A 
ATOM      6  C   UNL     1       4.860   4.058  14.972  0.00  0.00    +0.000 A 
ATOM      7  C   UNL     1       4.851   4.587  17.451  0.00  0.00    +0.000 C 
ATOM      8  C   UNL     1       5.419   5.416  18.344  0.00  0.00    +0.000 C 
ATOM      9  C   UNL     1       6.704   6.159  18.053  0.00  0.00    +0.000 C 
ATOM     10  C   UNL     1       7.525   6.299  19.358  0.00  0.00    +0.000 C 
ATOM     11  C   UNL     1       8.785   7.154  19.184  0.00  0.00    +0.000 C 
ATOM     12  C   UNL     1       8.468   8.515  18.572  0.00  0.00    +0.000 C 
ATOM     13  C   UNL     1       7.687   8.373  17.272  0.00  0.00    +0.000 C 
ATOM     14  C   UNL     1       6.406   7.566  17.491  0.00  0.00    +0.000 C 
ATOM     15  O   UNL     1       7.533   5.432  17.106  0.00  0.00    +0.000 OA
ENDROOT
BRANCH   7  16
ATOM     16  N   UNL     1       3.687   3.881  17.720  0.00  0.00    +0.000 N 
ATOM     17  C   UNL     1       3.839   2.504  17.826  0.00  0.00    +0.000 A 
ATOM     18  C   UNL     1       2.786   1.709  18.063  0.00  0.00    +0.000 A 
ATOM     19  C   UNL     1       1.471   2.277  18.207  0.00  0.00    +0.000 A 
ATOM     20  C   UNL     1       1.293   3.602  18.138  0.00  0.00    +0.000 A 
ATOM     21  C   UNL     1       2.448   4.513  17.887  0.00  0.00    +0.000 A 
ATOM     22  O   UNL     1       2.234   5.720  17.794  0.00  0.00    +0.000 OA
ENDBRANCH   7  16
BRANCH   1  24
ATOM     23  N   UNL     1       4.286   3.225  11.607  0.00  0.00    +0.000 NA
ATOM     24  C   UNL     1       4.843   3.572  12.561  0.00  0.00    +0.000 C 
ENDBRANCH   1  24
TORSDOF 2
ENDMDL
MODEL 3
REMARK VINA RESULT:      -6.8      1.780      4.472
REMARK  Name = 
REMARK  2 active torsions:
REMARK  status: ('A' for Active; 'I' for Inactive)
REMARK    1  A    between atoms: C_2  and  C_3
REMARK    2  A    between atoms: C_9  and  N_10
REMARK                            x       y       z     vdW  Elec       q    Type
REMARK                         _______ _______ _______ _____ _____    ______ ____
ROOT
ATOM      1  C   UNL     1       2.726   3.315  20.804  0.00  0.00    +0.000 A 
ATOM      2  C   UNL     1       3.888   2.585  20.536  0.00  0.00    +0.000 A 
ATOM      3  C   UNL     1       4.861   3.102  19.675  0.00  0.00    +0.000 A 
ATOM      4  C   UNL     1       4.664   4.342  19.070  0.00  0.00    +0.000 A 
ATOM      5  C   UNL     1       3.528   5.111  19.355  0.00  0.00    +0.000 A 
ATOM      6  C   UNL     1       2.552   4.576  20.212  0.00  0.00    +0.000 A 
ATOM      7  C   UNL     1       3.388   6.428  18.698  0.00  0.00    +0.000 C 
ATOM      8  C   UNL     1       4.134   6.619  17.595  0.00  0.00    +0.000 C 
ATOM      9  C   UNL     1       5.116   5.582  17.095  0.00  0.00    +0.000 C 
ATOM     10  C   UNL     1       6.334   6.292  16.456  0.00  0.00    +0.000 C 
ATOM     11  C   UNL     1       7.321   5.318  15.804  0.00  0.00    +0.000 C 
ATOM     12  C   UNL     1       6.630   4.389  14.811  0.00  0.00    +0.000 C 
ATOM     13  C   UNL     1       5.449   3.668  15.451  0.00  0.00    +0.000 C 
ATOM     14  C   UNL     1       4.454   4.669  16.040  0.00  0.00    +0.000 C 
ATOM     15  O   UNL     1       5.623   4.764  18.184  0.00  0.00    +0.000 OA
ENDROOT
BRANCH   7  16
ATOM     16  N   UNL     1       2.506   7.384  19.178  0.00  0.00    +0.000 N 
ATOM     17  C   UNL     1       2.093   7.204  20.494  0.00  0.00    +0.000 A 
ATOM     18  C   UNL     1       1.225   8.049  21.067  0.00  0.00    +0.000 A 
ATOM     19  C   UNL     1       0.700   9.162  20.320  0.00  0.00    +0.000 A 
ATOM     20  C   UNL     1       1.097   9.381  19.061  0.00  0.00    +0.000 A 
ATOM     21  C   UNL     1       2.072   8.464  18.399  0.00  0.00    +0.000 A 
ATOM     22  O   UNL     1       2.381   8.682  17.230  0.00  0.00    +0.000 OA
ENDBRANCH   7  16
BRANCH   1  24
ATOM     23  N   UNL     1       0.890   2.339  22.351  0.00  0.00    +0.000 NA
ATOM     24  C   UNL     1       1.710   2.774  21.659  0.00  0.00    +0.000 C 
ENDBRANCH   1  24
TORSDOF 2
ENDMDL
MODEL 4
REMARK VINA RESULT:      -6.7      3.121      5.169
REMARK  Name = 
REMARK  2 active torsions:
REMARK  status: ('A' for Active; 'I' for Inactive)
REMARK    1  A    between atoms: C_2  and  C_3
REMARK    2  A    between atoms: C_9  and  N_10
REMARK                            x       y       z     vdW  Elec       q    Type
REMARK                         _______ _______ _______ _____ _____    ______ ____
ROOT
ATOM      1  C   UNL     1       5.425   3.909  13.674  0.00  0.00    +0.000 A 
ATOM      2  C   UNL     1       6.777   4.266  13.621  0.00  0.00    +0.000 A 
ATOM      3  C   UNL     1       7.438   4.689  14.778  0.00  0.00    +0.000 A 
ATOM      4  C   UNL     1       6.743   4.770  15.984  0.00  0.00    +0.000 A 
ATOM      5  C   UNL     1       5.401   4.377  16.071  0.00  0.00    +0.000 A 
ATOM      6  C   UNL     1       4.744   3.966  14.900  0.00  0.00    +0.000 A 
ATOM      7  C   UNL     1       4.727   4.466  17.384  0.00  0.00    +0.000 C 
ATOM      8  C   UNL     1       5.307   5.273  18.291  0.00  0.00    +0.000 C 
ATOM      9  C   UNL     1       6.610   5.990  18.018  0.00  0.00    +0.000 C 
ATOM     10  C   UNL     1       7.424   6.098  19.331  0.00  0.00    +0.000 C 
ATOM     11  C   UNL     1       8.704   6.926  19.176  0.00  0.00    +0.000 C 
ATOM     12  C   UNL     1       8.421   8.301  18.577  0.00  0.00    +0.000 C 
ATOM     13  C   UNL     1       7.647   8.190  17.269  0.00  0.00    +0.000 C 
ATOM     14  C   UNL     1       6.347   7.409  17.470  0.00  0.00    +0.000 C 
ATOM     15  O   UNL     1       7.430   5.256  17.069  0.00  0.00    +0.000 OA
ENDROOT
BRANCH   7  16
ATOM     16  N   UNL     1       3.546   3.784  17.637  0.00  0.00    +0.000 N 
ATOM     17  C   UNL     1       2.402   4.573  17.685  0.00  0.00    +0.000 A 
ATOM     18  C   UNL     1       1.203   4.036  17.942  0.00  0.00    +0.000 A 
ATOM     19  C   UNL     1       1.080   2.621  18.178  0.00  0.00    +0.000 A 
ATOM     20  C   UNL     1       2.156   1.827  18.112  0.00  0.00    +0.000 A 
ATOM     21  C   UNL     1       3.505   2.396  17.816  0.00  0.00    +0.000 A 
ATOM     22  O   UNL     1       4.471   1.636  17.801  0.00  0.00    +0.000 OA
ENDBRANCH   7  16
BRANCH   1  24
ATOM     23  N   UNL     1       4.176   3.181  11.523  0.00  0.00    +0.000 NA
ATOM     24  C   UNL     1       4.733   3.507  12.484  0.00  0.00    +0.000 C 
ENDBRANCH   1  24
TORSDOF 2
ENDMDL
MODEL 5
REMARK VINA RESULT:      -6.6      1.144      1.382
REMARK  Name = 
REMARK  2 active torsions:
REMARK  status: ('A' for Active; 'I' for Inactive)
REMARK    1  A    between atoms: C_2  and  C_3
REMARK    2  A    between atoms: C_9  and  N_10
REMARK                            x       y       z     vdW  Elec       q    Type
REMARK                         _______ _______ _______ _____ _____    ______ ____
ROOT
ATOM      1  C   UNL     1       2.157   7.916  19.346  0.00  0.00    +0.000 A 
ATOM      2  C   UNL     1       2.542   8.485  18.128  0.00  0.00    +0.000 A 
ATOM      3  C   UNL     1       3.232   7.721  17.182  0.00  0.00    +0.000 A 
ATOM      4  C   UNL     1       3.552   6.394  17.462  0.00  0.00    +0.000 A 
ATOM      5  C   UNL     1       3.142   5.789  18.657  0.00  0.00    +0.000 A 
ATOM      6  C   UNL     1       2.459   6.570  19.605  0.00  0.00    +0.000 A 
ATOM      7  C   UNL     1       3.494   4.371  18.884  0.00  0.00    +0.000 C 
ATOM      8  C   UNL     1       4.500   3.886  18.135  0.00  0.00    +0.000 C 
ATOM      9  C   UNL     1       5.185   4.714  17.070  0.00  0.00    +0.000 C 
ATOM     10  C   UNL     1       5.609   3.796  15.898  0.00  0.00    +0.000 C 
ATOM     11  C   UNL     1       6.427   4.528  14.829  0.00  0.00    +0.000 C 
ATOM     12  C   UNL     1       7.626   5.256  15.431  0.00  0.00    +0.000 C 
ATOM     13  C   UNL     1       7.202   6.182  16.564  0.00  0.00    +0.000 C 
ATOM     14  C   UNL     1       6.439   5.411  17.643  0.00  0.00    +0.000 C 
ATOM     15  O   UNL     1       4.290   5.718  16.521  0.00  0.00    +0.000 OA
ENDROOT
BRANCH   7  16
ATOM     16  N   UNL     1       2.843   3.611  19.844  0.00  0.00    +0.000 N 
ATOM     17  C   UNL     1       1.469   3.809  19.928  0.00  0.00    +0.000 A 
ATOM     18  C   UNL     1       0.730   3.150  20.830  0.00  0.00    +0.000 A 
ATOM     19  C   UNL     1       1.355   2.222  21.736  0.00  0.00    +0.000 A 
ATOM     20  C   UNL     1       2.671   1.986  21.665  0.00  0.00    +0.000 A 
ATOM     21  C   UNL     1       3.518   2.697  20.663  0.00  0.00    +0.000 A 
ATOM     22  O   UNL     1       4.728   2.478  20.657  0.00  0.00    +0.000 OA
ENDBRANCH   7  16
BRANCH   1  24
ATOM     23  N   UNL     1       0.933   9.341  21.132  0.00  0.00    +0.000 NA
ATOM     24  C   UNL     1       1.479   8.704  20.334  0.00  0.00    +0.000 C 
ENDBRANCH   1  24
TORSDOF 2
ENDMDL
MODEL 6
REMARK VINA RESULT:      -6.3      2.510      5.282
REMARK  Name = 
REMARK  2 active torsions:
REMARK  status: ('A' for Active; 'I' for Inactive)
REMARK    1  A    between atoms: C_2  and  C_3
REMARK    2  A    between atoms: C_9  and  N_10
REMARK                            x       y       z     vdW  Elec       q    Type
REMARK                         _______ _______ _______ _____ _____    ______ ____
ROOT
ATOM      1  C   UNL     1       6.527   7.358  17.499  0.00  0.00    +0.000 A 
ATOM      2  C   UNL     1       6.891   6.150  16.895  0.00  0.00    +0.000 A 
ATOM      3  C   UNL     1       5.969   5.103  16.808  0.00  0.00    +0.000 A 
ATOM      4  C   UNL     1       4.689   5.258  17.339  0.00  0.00    +0.000 A 
ATOM      5  C   UNL     1       4.288   6.472  17.910  0.00  0.00    +0.000 A 
ATOM      6  C   UNL     1       5.226   7.514  18.003  0.00  0.00    +0.000 A 
ATOM      7  C   UNL     1       2.910   6.579  18.436  0.00  0.00    +0.000 C 
ATOM      8  C   UNL     1       2.284   5.417  18.690  0.00  0.00    +0.000 C 
ATOM      9  C   UNL     1       2.916   4.076  18.388  0.00  0.00    +0.000 C 
ATOM     10  C   UNL     1       1.816   3.072  17.964  0.00  0.00    +0.000 C 
ATOM     11  C   UNL     1       2.349   1.650  17.764  0.00  0.00    +0.000 C 
ATOM     12  C   UNL     1       3.120   1.154  18.984  0.00  0.00    +0.000 C 
ATOM     13  C   UNL     1       4.221   2.130  19.380  0.00  0.00    +0.000 C 
ATOM     14  C   UNL     1       3.649   3.527  19.630  0.00  0.00    +0.000 C 
ATOM     15  O   UNL     1       3.854   4.170  17.282  0.00  0.00    +0.000 OA
ENDROOT
BRANCH   7  16
ATOM     16  N   UNL     1       2.327   7.813  18.685  0.00  0.00    +0.000 N 
ATOM     17  C   UNL     1       2.352   8.708  17.621  0.00  0.00    +0.000 A 
ATOM     18  C   UNL     1       1.839   9.940  17.743  0.00  0.00    +0.000 A 
ATOM     19  C   UNL     1       1.255  10.359  18.989  0.00  0.00    +0.000 A 
ATOM     20  C   UNL     1       1.190   9.515  20.026  0.00  0.00    +0.000 A 
ATOM     21  C   UNL     1       1.742   8.132  19.917  0.00  0.00    +0.000 A 
ATOM     22  O   UNL     1       1.694   7.402  20.905  0.00  0.00    +0.000 OA
ENDBRANCH   7  16
BRANCH   1  24
ATOM     23  N   UNL     1       8.248   9.284  17.722  0.00  0.00    +0.000 NA
ATOM     24  C   UNL     1       7.479   8.424  17.621  0.00  0.00    +0.000 C 
ENDBRANCH   1  24
TORSDOF 2
ENDMDL
MODEL 7
REMARK VINA RESULT:      -6.0      5.909     10.460
REMARK  Name = 
REMARK  2 active torsions:
REMARK  status: ('A' for Active; 'I' for Inactive)
REMARK    1  A    between atoms: C_2  and  C_3
REMARK    2  A    between atoms: C_9  and  N_10
REMARK                            x       y       z     vdW  Elec       q    Type
REMARK                         _______ _______ _______ _____ _____    ______ ____
ROOT
ATOM      1  C   UNL     1       0.862  10.320  18.491  0.00  0.00    +0.000 A 
ATOM      2  C   UNL     1      -0.490   9.974  18.583  0.00  0.00    +0.000 A 
ATOM      3  C   UNL     1      -1.395  10.836  19.210  0.00  0.00    +0.000 A 
ATOM      4  C   UNL     1      -0.944  12.036  19.759  0.00  0.00    +0.000 A 
ATOM      5  C   UNL     1       0.396  12.424  19.642  0.00  0.00    +0.000 A 
ATOM      6  C   UNL     1       1.299  11.544  19.021  0.00  0.00    +0.000 A 
ATOM      7  C   UNL     1       0.807  13.718  20.227  0.00  0.00    +0.000 C 
ATOM      8  C   UNL     1      -0.018  14.234  21.155  0.00  0.00    +0.000 C 
ATOM      9  C   UNL     1      -1.327  13.573  21.529  0.00  0.00    +0.000 C 
ATOM     10  C   UNL     1      -2.371  14.661  21.880  0.00  0.00    +0.000 C 
ATOM     11  C   UNL     1      -3.691  14.079  22.398  0.00  0.00    +0.000 C 
ATOM     12  C   UNL     1      -3.470  13.117  23.562  0.00  0.00    +0.000 C 
ATOM     13  C   UNL     1      -2.465  12.030  23.203  0.00  0.00    +0.000 C 
ATOM     14  C   UNL     1      -1.139  12.642  22.747  0.00  0.00    +0.000 C 
ATOM     15  O   UNL     1      -1.869  12.806  20.420  0.00  0.00    +0.000 OA
ENDROOT
BRANCH   7  16
ATOM     16  N   UNL     1       1.995  14.332  19.859  0.00  0.00    +0.000 N 
ATOM     17  C   UNL     1       1.937  15.091  18.696  0.00  0.00    +0.000 A 
ATOM     18  C   UNL     1       3.024  15.717  18.224  0.00  0.00    +0.000 A 
ATOM     19  C   UNL     1       4.279  15.606  18.919  0.00  0.00    +0.000 A 
ATOM     20  C   UNL     1       4.366  14.905  20.056  0.00  0.00    +0.000 A 
ATOM     21  C   UNL     1       3.169  14.207  20.613  0.00  0.00    +0.000 A 
ATOM     22  O   UNL     1       3.302  13.545  21.640  0.00  0.00    +0.000 OA
ENDBRANCH   7  16
BRANCH   1  24
ATOM     23  N   UNL     1       2.558   8.703  17.383  0.00  0.00    +0.000 NA
ATOM     24  C   UNL     1       1.800   9.424  17.879  0.00  0.00    +0.000 C 
ENDBRANCH   1  24
TORSDOF 2
ENDMDL
MODEL 8
REMARK VINA RESULT:      -6.0      7.722      9.889
REMARK  Name = 
REMARK  2 active torsions:
REMARK  status: ('A' for Active; 'I' for Inactive)
REMARK    1  A    between atoms: C_2  and  C_3
REMARK    2  A    between atoms: C_9  and  N_10
REMARK                            x       y       z     vdW  Elec       q    Type
REMARK                         _______ _______ _______ _____ _____    ______ ____
ROOT
ATOM      1  C   UNL     1       1.295  13.876  20.565  0.00  0.00    +0.000 A 
ATOM      2  C   UNL     1       1.607  13.745  19.208  0.00  0.00    +0.000 A 
ATOM      3  C   UNL     1       0.627  13.338  18.298  0.00  0.00    +0.000 A 
ATOM      4  C   UNL     1      -0.660  13.046  18.748  0.00  0.00    +0.000 A 
ATOM      5  C   UNL     1      -1.008  13.210  20.094  0.00  0.00    +0.000 A 
ATOM      6  C   UNL     1      -0.012  13.609  21.002  0.00  0.00    +0.000 A 
ATOM      7  C   UNL     1      -2.395  12.905  20.504  0.00  0.00    +0.000 C 
ATOM      8  C   UNL     1      -3.101  12.128  19.663  0.00  0.00    +0.000 C 
ATOM      9  C   UNL     1      -2.541  11.654  18.340  0.00  0.00    +0.000 C 
ATOM     10  C   UNL     1      -3.683  11.567  17.298  0.00  0.00    +0.000 C 
ATOM     11  C   UNL     1      -3.231  10.970  15.962  0.00  0.00    +0.000 C 
ATOM     12  C   UNL     1      -2.538   9.623  16.147  0.00  0.00    +0.000 C 
ATOM     13  C   UNL     1      -1.395   9.718  17.150  0.00  0.00    +0.000 C 
ATOM     14  C   UNL     1      -1.890  10.262  18.492  0.00  0.00    +0.000 C 
ATOM     15  O   UNL     1      -1.557  12.586  17.816  0.00  0.00    +0.000 OA
ENDROOT
BRANCH   7  16
ATOM     16  N   UNL     1      -2.911  13.366  21.706  0.00  0.00    +0.000 N 
ATOM     17  C   UNL     1      -2.953  12.430  22.733  0.00  0.00    +0.000 A 
ATOM     18  C   UNL     1      -3.449  12.747  23.937  0.00  0.00    +0.000 A 
ATOM     19  C   UNL     1      -3.954  14.072  24.184  0.00  0.00    +0.000 A 
ATOM     20  C   UNL     1      -3.903  15.006  23.227  0.00  0.00    +0.000 A 
ATOM     21  C   UNL     1      -3.345  14.687  21.879  0.00  0.00    +0.000 A 
ATOM     22  O   UNL     1      -3.352  15.564  21.019  0.00  0.00    +0.000 OA
ENDBRANCH   7  16
BRANCH   1  24
ATOM     23  N   UNL     1       3.118  14.573  22.271  0.00  0.00    +0.000 NA
ATOM     24  C   UNL     1       2.305  14.261  21.509  0.00  0.00    +0.000 C 
ENDBRANCH   1  24
TORSDOF 2
ENDMDL
MODEL 9
REMARK VINA RESULT:      -5.9      7.549      9.835
REMARK  Name = 
REMARK  2 active torsions:
REMARK  status: ('A' for Active; 'I' for Inactive)
REMARK    1  A    between atoms: C_2  and  C_3
REMARK    2  A    between atoms: C_9  and  N_10
REMARK                            x       y       z     vdW  Elec       q    Type
REMARK                         _______ _______ _______ _____ _____    ______ ____
ROOT
ATOM      1  C   UNL     1       1.322  14.168  20.820  0.00  0.00    +0.000 A 
ATOM      2  C   UNL     1       1.682  14.019  19.476  0.00  0.00    +0.000 A 
ATOM      3  C   UNL     1       0.753  13.539  18.549  0.00  0.00    +0.000 A 
ATOM      4  C   UNL     1      -0.531  13.192  18.968  0.00  0.00    +0.000 A 
ATOM      5  C   UNL     1      -0.928  13.373  20.299  0.00  0.00    +0.000 A 
ATOM      6  C   UNL     1       0.018  13.845  21.225  0.00  0.00    +0.000 A 
ATOM      7  C   UNL     1      -2.310  13.007  20.675  0.00  0.00    +0.000 C 
ATOM      8  C   UNL     1      -2.949  12.173  19.835  0.00  0.00    +0.000 C 
ATOM      9  C   UNL     1      -2.325  11.695  18.543  0.00  0.00    +0.000 C 
ATOM     10  C   UNL     1      -3.428  11.523  17.470  0.00  0.00    +0.000 C 
ATOM     11  C   UNL     1      -2.905  10.916  16.164  0.00  0.00    +0.000 C 
ATOM     12  C   UNL     1      -2.151   9.611  16.406  0.00  0.00    +0.000 C 
ATOM     13  C   UNL     1      -1.046   9.791  17.440  0.00  0.00    +0.000 C 
ATOM     14  C   UNL     1      -1.609  10.342  18.751  0.00  0.00    +0.000 C 
ATOM     15  O   UNL     1      -1.374  12.663  18.023  0.00  0.00    +0.000 OA
ENDROOT
BRANCH   7  16
ATOM     16  N   UNL     1      -2.886  13.471  21.849  0.00  0.00    +0.000 N 
ATOM     17  C   UNL     1      -3.487  14.722  21.761  0.00  0.00    +0.000 A 
ATOM     18  C   UNL     1      -4.059  15.289  22.832  0.00  0.00    +0.000 A 
ATOM     19  C   UNL     1      -4.055  14.608  24.099  0.00  0.00    +0.000 A 
ATOM     20  C   UNL     1      -3.510  13.390  24.213  0.00  0.00    +0.000 A 
ATOM     21  C   UNL     1      -2.876  12.727  23.035  0.00  0.00    +0.000 A 
ATOM     22  O   UNL     1      -2.354  11.626  23.194  0.00  0.00    +0.000 OA
ENDBRANCH   7  16
BRANCH   1  24
ATOM     23  N   UNL     1       3.055  14.998  22.560  0.00  0.00    +0.000 NA
ATOM     24  C   UNL     1       2.281  14.628  21.782  0.00  0.00    +0.000 C 
ENDBRANCH   1  24
TORSDOF 2
ENDMDL
