MODEL 1
REMARK VINA RESULT:      -7.7      0.000      0.000
REMARK  Name = 
REMARK  11 active torsions:
REMARK  status: ('A' for Active; 'I' for Inactive)
REMARK    1  A    between atoms: C_1  and  C_2
REMARK    2  A    between atoms: C_2  and  N_3
REMARK    3  A    between atoms: N_3  and  C_4
REMARK    4  A    between atoms: N_3  and  C_6
REMARK    5  A    between atoms: C_4  and  C_5
REMARK    6  A    between atoms: C_6  and  C_7
REMARK    7  A    between atoms: C_7  and  C_8
REMARK    8  A    between atoms: C_8  and  N_9
REMARK    9  A    between atoms: C_10  and  C_12
REMARK   10  A    between atoms: C_15  and  C_16
REMARK   11  A    between atoms: C_21  and  C_22
REMARK                            x       y       z     vdW  Elec       q    Type
REMARK                         _______ _______ _______ _____ _____    ______ ____
ROOT
ATOM      1  C   UNL     1       1.370   8.551  20.107  0.00  0.00    +0.000 A 
ATOM      2  N   UNL     1       1.462   7.293  20.598  0.00  0.00    +0.000 NA
ATOM      3  N   UNL     1       2.202   6.601  19.692  0.00  0.00    +0.000 N 
ATOM      4  C   UNL     1       2.551   5.251  19.688  0.00  0.00    +0.000 A 
ATOM      5  C   UNL     1       3.310   4.759  18.689  0.00  0.00    +0.000 A 
ATOM      6  C   UNL     1       3.781   5.730  17.655  0.00  0.00    +0.000 A 
ATOM      7  N   UNL     1       3.420   6.979  17.626  0.00  0.00    +0.000 NA
ATOM      8  C   UNL     1       2.618   7.427  18.639  0.00  0.00    +0.000 A 
ATOM      9  C   UNL     1       2.075   8.665  18.885  0.00  0.00    +0.000 A 
ATOM     10 CL   UNL     1       2.248  10.045  17.909  0.00  0.00    +0.000 Cl
ENDROOT
BRANCH   6  11
ATOM     11  C   UNL     1       4.718   5.218  16.613  0.00  0.00    +0.000 A 
ATOM     12  C   UNL     1       4.959   3.839  16.531  0.00  0.00    +0.000 A 
ATOM     13  C   UNL     1       5.775   3.327  15.520  0.00  0.00    +0.000 A 
ATOM     14  C   UNL     1       6.350   4.187  14.584  0.00  0.00    +0.000 A 
ATOM     15  C   UNL     1       6.113   5.558  14.659  0.00  0.00    +0.000 A 
ATOM     16  C   UNL     1       5.296   6.074  15.665  0.00  0.00    +0.000 A 
ENDBRANCH   6  11
BRANCH   1  18
ATOM     17  N   UNL     1      -0.419  10.157  20.079  0.00  0.00    +0.000 N 
ATOM     18  C   UNL     1       0.625   9.615  20.799  0.00  0.00    +0.000 C 
ATOM     19  O   UNL     1       0.904   9.999  21.930  0.00  0.00    +0.000 OA
ATOM     20  H   UNL     1      -0.562   9.827  19.128  0.00  0.00    +0.000 HD
BRANCH  17  21
ATOM     21  C   UNL     1      -1.244  11.219  20.617  0.00  0.00    +0.000 C 
BRANCH  21  22
ATOM     22  C   UNL     1      -1.446  12.373  19.637  0.00  0.00    +0.000 C 
BRANCH  22  23
ATOM     23  C   UNL     1      -1.632  11.932  18.178  0.00  0.00    +0.000 C 
BRANCH  23  24
ATOM     24  N   UNL     1      -2.701  10.936  17.956  0.00  0.00    +0.000 NA
BRANCH  24  26
ATOM     25  C   UNL     1      -5.208  10.809  18.272  0.00  0.00    +0.000 C 
ATOM     26  C   UNL     1      -4.006  11.581  17.737  0.00  0.00    +0.000 C 
ENDBRANCH  24  26
BRANCH  24  27
ATOM     27  C   UNL     1      -2.326   9.975  16.900  0.00  0.00    +0.000 C 
ATOM     28  C   UNL     1      -2.756  10.327  15.478  0.00  0.00    +0.000 C 
ENDBRANCH  24  27
ENDBRANCH  23  24
ENDBRANCH  22  23
ENDBRANCH  21  22
ENDBRANCH  17  21
ENDBRANCH   1  18
BRANCH   4  29
ATOM     29  C   UNL     1       2.067   4.363  20.774  0.00  0.00    +0.000 C 
ATOM     30  F   UNL     1       2.445   4.683  22.032  0.00  0.00    +0.000 F 
ATOM     31  F   UNL     1       0.707   4.314  20.781  0.00  0.00    +0.000 F 
ATOM     32  F   UNL     1       2.481   3.082  20.561  0.00  0.00    +0.000 F 
ENDBRANCH   4  29
TORSDOF 9
ENDMDL
MODEL 2
REMARK VINA RESULT:      -7.7      2.990      4.369
REMARK  Name = 
REMARK  11 active torsions:
REMARK  status: ('A' for Active; 'I' for Inactive)
REMARK    1  A    between atoms: C_1  and  C_2
REMARK    2  A    between atoms: C_2  and  N_3
REMARK    3  A    between atoms: N_3  and  C_4
REMARK    4  A    between atoms: N_3  and  C_6
REMARK    5  A    between atoms: C_4  and  C_5
REMARK    6  A    between atoms: C_6  and  C_7
REMARK    7  A    between atoms: C_7  and  C_8
REMARK    8  A    between atoms: C_8  and  N_9
REMARK    9  A    between atoms: C_10  and  C_12
REMARK   10  A    between atoms: C_15  and  C_16
REMARK   11  A    between atoms: C_21  and  C_22
REMARK                            x       y       z     vdW  Elec       q    Type
REMARK                         _______ _______ _______ _____ _____    ______ ____
ROOT
ATOM      1  C   UNL     1       3.396   5.438  19.310  0.00  0.00    +0.000 A 
ATOM      2  N   UNL     1       4.720   5.662  19.477  0.00  0.00    +0.000 NA
ATOM      3  N   UNL     1       5.299   5.325  18.295  0.00  0.00    +0.000 N 
ATOM      4  C   UNL     1       6.649   5.320  17.946  0.00  0.00    +0.000 A 
ATOM      5  C   UNL     1       7.017   4.956  16.700  0.00  0.00    +0.000 A 
ATOM      6  C   UNL     1       5.922   4.625  15.740  0.00  0.00    +0.000 A 
ATOM      7  N   UNL     1       4.664   4.582  16.071  0.00  0.00    +0.000 NA
ATOM      8  C   UNL     1       4.339   4.922  17.356  0.00  0.00    +0.000 A 
ATOM      9  C   UNL     1       3.127   4.970  18.001  0.00  0.00    +0.000 A 
ATOM     10 CL   UNL     1       1.620   4.564  17.330  0.00  0.00    +0.000 Cl
ENDROOT
BRANCH   6  11
ATOM     11  C   UNL     1       6.313   4.339  14.329  0.00  0.00    +0.000 A 
ATOM     12  C   UNL     1       5.525   3.464  13.568  0.00  0.00    +0.000 A 
ATOM     13  C   UNL     1       5.827   3.235  12.223  0.00  0.00    +0.000 A 
ATOM     14  C   UNL     1       6.913   3.880  11.632  0.00  0.00    +0.000 A 
ATOM     15  C   UNL     1       7.699   4.751  12.383  0.00  0.00    +0.000 A 
ATOM     16  C   UNL     1       7.399   4.987  13.726  0.00  0.00    +0.000 A 
ENDBRANCH   6  11
BRANCH   1  18
ATOM     17  N   UNL     1       1.947   6.965  20.472  0.00  0.00    +0.000 N 
ATOM     18  C   UNL     1       2.415   5.670  20.383  0.00  0.00    +0.000 C 
ATOM     19  O   UNL     1       2.038   4.787  21.145  0.00  0.00    +0.000 OA
ATOM     20  H   UNL     1       2.342   7.657  19.841  0.00  0.00    +0.000 HD
BRANCH  17  21
ATOM     21  C   UNL     1       0.984   7.358  21.480  0.00  0.00    +0.000 C 
BRANCH  21  22
ATOM     22  C   UNL     1       0.915   8.870  21.684  0.00  0.00    +0.000 C 
BRANCH  22  23
ATOM     23  C   UNL     1       0.943   9.680  20.378  0.00  0.00    +0.000 C 
BRANCH  23  24
ATOM     24  N   UNL     1      -0.384  10.023  19.825  0.00  0.00    +0.000 NA
BRANCH  24  26
ATOM     25  C   UNL     1       0.033  12.403  20.577  0.00  0.00    +0.000 C 
ATOM     26  C   UNL     1      -0.938  11.233  20.456  0.00  0.00    +0.000 C 
ENDBRANCH  24  26
BRANCH  24  27
ATOM     27  C   UNL     1      -0.351  10.080  18.352  0.00  0.00    +0.000 C 
ATOM     28  C   UNL     1      -1.676  10.379  17.653  0.00  0.00    +0.000 C 
ENDBRANCH  24  27
ENDBRANCH  23  24
ENDBRANCH  22  23
ENDBRANCH  21  22
ENDBRANCH  17  21
ENDBRANCH   1  18
BRANCH   4  29
ATOM     29  C   UNL     1       7.671   5.695  18.953  0.00  0.00    +0.000 C 
ATOM     30  F   UNL     1       7.273   5.704  20.245  0.00  0.00    +0.000 F 
ATOM     31  F   UNL     1       8.740   4.855  18.885  0.00  0.00    +0.000 F 
ATOM     32  F   UNL     1       8.163   6.938  18.693  0.00  0.00    +0.000 F 
ENDBRANCH   4  29
TORSDOF 9
ENDMDL
MODEL 3
REMARK VINA RESULT:      -7.7      2.981      4.413
REMARK  Name = 
REMARK  11 active torsions:
REMARK  status: ('A' for Active; 'I' for Inactive)
REMARK    1  A    between atoms: C_1  and  C_2
REMARK    2  A    between atoms: C_2  and  N_3
REMARK    3  A    between atoms: N_3  and  C_4
REMARK    4  A    between atoms: N_3  and  C_6
REMARK    5  A    between atoms: C_4  and  C_5
REMARK    6  A    between atoms: C_6  and  C_7
REMARK    7  A    between atoms: C_7  and  C_8
REMARK    8  A    between atoms: C_8  and  N_9
REMARK    9  A    between atoms: C_10  and  C_12
REMARK   10  A    between atoms: C_15  and  C_16
REMARK   11  A    between atoms: C_21  and  C_22
REMARK                            x       y       z     vdW  Elec       q    Type
REMARK                         _______ _______ _______ _____ _____    ______ ____
ROOT
ATOM      1  C   UNL     1       3.305   5.496  19.306  0.00  0.00    +0.000 A 
ATOM      2  N   UNL     1       4.631   5.717  19.456  0.00  0.00    +0.000 NA
ATOM      3  N   UNL     1       5.193   5.387  18.262  0.00  0.00    +0.000 N 
ATOM      4  C   UNL     1       6.537   5.382  17.894  0.00  0.00    +0.000 A 
ATOM      5  C   UNL     1       6.887   5.027  16.640  0.00  0.00    +0.000 A 
ATOM      6  C   UNL     1       5.777   4.705  15.694  0.00  0.00    +0.000 A 
ATOM      7  N   UNL     1       4.524   4.661  16.043  0.00  0.00    +0.000 NA
ATOM      8  C   UNL     1       4.219   4.993  17.334  0.00  0.00    +0.000 A 
ATOM      9  C   UNL     1       3.016   5.038  17.998  0.00  0.00    +0.000 A 
ATOM     10 CL   UNL     1       1.499   4.639  17.346  0.00  0.00    +0.000 Cl
ENDROOT
BRANCH   6  11
ATOM     11  C   UNL     1       6.147   4.427  14.275  0.00  0.00    +0.000 A 
ATOM     12  C   UNL     1       7.305   5.012  13.746  0.00  0.00    +0.000 A 
ATOM     13  C   UNL     1       7.714   4.712  12.445  0.00  0.00    +0.000 A 
ATOM     14  C   UNL     1       6.971   3.824  11.667  0.00  0.00    +0.000 A 
ATOM     15  C   UNL     1       5.818   3.238  12.187  0.00  0.00    +0.000 A 
ATOM     16  C   UNL     1       5.408   3.532  13.489  0.00  0.00    +0.000 A 
ENDBRANCH   6  11
BRANCH   1  18
ATOM     17  N   UNL     1       1.870   7.016  20.495  0.00  0.00    +0.000 N 
ATOM     18  C   UNL     1       2.341   5.723  20.395  0.00  0.00    +0.000 C 
ATOM     19  O   UNL     1       1.978   4.836  21.161  0.00  0.00    +0.000 OA
ATOM     20  H   UNL     1       2.252   7.711  19.859  0.00  0.00    +0.000 HD
BRANCH  17  21
ATOM     21  C   UNL     1       0.922   7.403  21.519  0.00  0.00    +0.000 C 
BRANCH  21  22
ATOM     22  C   UNL     1       0.781   8.917  21.662  0.00  0.00    +0.000 C 
BRANCH  22  23
ATOM     23  C   UNL     1       1.338   9.713  20.471  0.00  0.00    +0.000 C 
BRANCH  23  24
ATOM     24  N   UNL     1       0.622   9.513  19.194  0.00  0.00    +0.000 NA
BRANCH  24  26
ATOM     25  C   UNL     1      -1.429  10.147  17.856  0.00  0.00    +0.000 C 
ATOM     26  C   UNL     1      -0.631  10.284  19.148  0.00  0.00    +0.000 C 
ENDBRANCH  24  26
BRANCH  24  27
ATOM     27  C   UNL     1       1.511   9.749  18.041  0.00  0.00    +0.000 C 
ATOM     28  C   UNL     1       2.223  11.099  17.997  0.00  0.00    +0.000 C 
ENDBRANCH  24  27
ENDBRANCH  23  24
ENDBRANCH  22  23
ENDBRANCH  21  22
ENDBRANCH  17  21
ENDBRANCH   1  18
BRANCH   4  29
ATOM     29  C   UNL     1       7.575   5.749  18.889  0.00  0.00    +0.000 C 
ATOM     30  F   UNL     1       8.098   6.991  18.788  0.00  0.00    +0.000 F 
ATOM     31  F   UNL     1       7.083   5.639  20.153  0.00  0.00    +0.000 F 
ATOM     32  F   UNL     1       8.623   4.882  18.825  0.00  0.00    +0.000 F 
ENDBRANCH   4  29
TORSDOF 9
ENDMDL
MODEL 4
REMARK VINA RESULT:      -7.6      3.014      4.479
REMARK  Name = 
REMARK  11 active torsions:
REMARK  status: ('A' for Active; 'I' for Inactive)
REMARK    1  A    between atoms: C_1  and  C_2
REMARK    2  A    between atoms: C_2  and  N_3
REMARK    3  A    between atoms: N_3  and  C_4
REMARK    4  A    between atoms: N_3  and  C_6
REMARK    5  A    between atoms: C_4  and  C_5
REMARK    6  A    between atoms: C_6  and  C_7
REMARK    7  A    between atoms: C_7  and  C_8
REMARK    8  A    between atoms: C_8  and  N_9
REMARK    9  A    between atoms: C_10  and  C_12
REMARK   10  A    between atoms: C_15  and  C_16
REMARK   11  A    between atoms: C_21  and  C_22
REMARK                            x       y       z     vdW  Elec       q    Type
REMARK                         _______ _______ _______ _____ _____    ______ ____
ROOT
ATOM      1  C   UNL     1       3.445   5.479  19.331  0.00  0.00    +0.000 A 
ATOM      2  N   UNL     1       4.774   5.671  19.500  0.00  0.00    +0.000 NA
ATOM      3  N   UNL     1       5.345   5.332  18.314  0.00  0.00    +0.000 N 
ATOM      4  C   UNL     1       6.695   5.300  17.964  0.00  0.00    +0.000 A 
ATOM      5  C   UNL     1       7.054   4.940  16.715  0.00  0.00    +0.000 A 
ATOM      6  C   UNL     1       5.951   4.644  15.752  0.00  0.00    +0.000 A 
ATOM      7  N   UNL     1       4.693   4.627  16.083  0.00  0.00    +0.000 NA
ATOM      8  C   UNL     1       4.376   4.961  17.371  0.00  0.00    +0.000 A 
ATOM      9  C   UNL     1       3.166   5.031  18.018  0.00  0.00    +0.000 A 
ATOM     10 CL   UNL     1       1.649   4.666  17.344  0.00  0.00    +0.000 Cl
ENDROOT
BRANCH   6  11
ATOM     11  C   UNL     1       6.335   4.363  14.338  0.00  0.00    +0.000 A 
ATOM     12  C   UNL     1       5.555   3.474  13.584  0.00  0.00    +0.000 A 
ATOM     13  C   UNL     1       5.850   3.249  12.237  0.00  0.00    +0.000 A 
ATOM     14  C   UNL     1       6.920   3.912  11.636  0.00  0.00    +0.000 A 
ATOM     15  C   UNL     1       7.698   4.796  12.380  0.00  0.00    +0.000 A 
ATOM     16  C   UNL     1       7.405   5.028  13.725  0.00  0.00    +0.000 A 
ENDBRANCH   6  11
BRANCH   1  18
ATOM     17  N   UNL     1       1.919   6.988  20.415  0.00  0.00    +0.000 N 
ATOM     18  C   UNL     1       2.471   5.723  20.407  0.00  0.00    +0.000 C 
ATOM     19  O   UNL     1       2.167   4.875  21.238  0.00  0.00    +0.000 OA
ATOM     20  H   UNL     1       2.255   7.657  19.728  0.00  0.00    +0.000 HD
BRANCH  17  21
ATOM     21  C   UNL     1       0.950   7.388  21.415  0.00  0.00    +0.000 C 
BRANCH  21  22
ATOM     22  C   UNL     1       1.156   8.819  21.907  0.00  0.00    +0.000 C 
BRANCH  22  23
ATOM     23  C   UNL     1       0.854   9.895  20.852  0.00  0.00    +0.000 C 
BRANCH  23  24
ATOM     24  N   UNL     1      -0.501  10.480  20.925  0.00  0.00    +0.000 NA
BRANCH  24  26
ATOM     25  C   UNL     1      -1.504  11.293  23.100  0.00  0.00    +0.000 C 
ATOM     26  C   UNL     1      -0.572  11.560  21.924  0.00  0.00    +0.000 C 
ENDBRANCH  24  26
BRANCH  24  27
ATOM     27  C   UNL     1      -0.986  10.871  19.588  0.00  0.00    +0.000 C 
ATOM     28  C   UNL     1      -0.295  10.215  18.394  0.00  0.00    +0.000 C 
ENDBRANCH  24  27
ENDBRANCH  23  24
ENDBRANCH  22  23
ENDBRANCH  21  22
ENDBRANCH  17  21
ENDBRANCH   1  18
BRANCH   4  29
ATOM     29  C   UNL     1       7.725   5.641  18.975  0.00  0.00    +0.000 C 
ATOM     30  F   UNL     1       8.814   4.842  19.024  0.00  0.00    +0.000 F 
ATOM     31  F   UNL     1       8.186   6.907  18.777  0.00  0.00    +0.000 F 
ATOM     32  F   UNL     1       7.186   5.637  20.225  0.00  0.00    +0.000 F 
ENDBRANCH   4  29
TORSDOF 9
ENDMDL
MODEL 5
REMARK VINA RESULT:      -7.6      2.992      4.521
REMARK  Name = 
REMARK  11 active torsions:
REMARK  status: ('A' for Active; 'I' for Inactive)
REMARK    1  A    between atoms: C_1  and  C_2
REMARK    2  A    between atoms: C_2  and  N_3
REMARK    3  A    between atoms: N_3  and  C_4
REMARK    4  A    between atoms: N_3  and  C_6
REMARK    5  A    between atoms: C_4  and  C_5
REMARK    6  A    between atoms: C_6  and  C_7
REMARK    7  A    between atoms: C_7  and  C_8
REMARK    8  A    between atoms: C_8  and  N_9
REMARK    9  A    between atoms: C_10  and  C_12
REMARK   10  A    between atoms: C_15  and  C_16
REMARK   11  A    between atoms: C_21  and  C_22
REMARK                            x       y       z     vdW  Elec       q    Type
REMARK                         _______ _______ _______ _____ _____    ______ ____
ROOT
ATOM      1  C   UNL     1       3.406   5.498  19.274  0.00  0.00    +0.000 A 
ATOM      2  N   UNL     1       4.732   5.711  19.439  0.00  0.00    +0.000 NA
ATOM      3  N   UNL     1       5.307   5.362  18.258  0.00  0.00    +0.000 N 
ATOM      4  C   UNL     1       6.657   5.342  17.909  0.00  0.00    +0.000 A 
ATOM      5  C   UNL     1       7.022   4.969  16.665  0.00  0.00    +0.000 A 
ATOM      6  C   UNL     1       5.923   4.643  15.707  0.00  0.00    +0.000 A 
ATOM      7  N   UNL     1       4.666   4.613  16.039  0.00  0.00    +0.000 NA
ATOM      8  C   UNL     1       4.344   4.963  17.322  0.00  0.00    +0.000 A 
ATOM      9  C   UNL     1       3.133   5.026  17.967  0.00  0.00    +0.000 A 
ATOM     10 CL   UNL     1       1.621   4.630  17.299  0.00  0.00    +0.000 Cl
ENDROOT
BRANCH   6  11
ATOM     11  C   UNL     1       6.311   4.345  14.297  0.00  0.00    +0.000 A 
ATOM     12  C   UNL     1       5.517   3.471  13.543  0.00  0.00    +0.000 A 
ATOM     13  C   UNL     1       5.816   3.231  12.199  0.00  0.00    +0.000 A 
ATOM     14  C   UNL     1       6.906   3.866  11.603  0.00  0.00    +0.000 A 
ATOM     15  C   UNL     1       7.698   4.737  12.348  0.00  0.00    +0.000 A 
ATOM     16  C   UNL     1       7.401   4.982  13.689  0.00  0.00    +0.000 A 
ENDBRANCH   6  11
BRANCH   1  18
ATOM     17  N   UNL     1       2.029   7.060  20.477  0.00  0.00    +0.000 N 
ATOM     18  C   UNL     1       2.428   5.745  20.345  0.00  0.00    +0.000 C 
ATOM     19  O   UNL     1       1.995   4.858  21.072  0.00  0.00    +0.000 OA
ATOM     20  H   UNL     1       2.467   7.751  19.874  0.00  0.00    +0.000 HD
BRANCH  17  21
ATOM     21  C   UNL     1       1.078   7.468  21.490  0.00  0.00    +0.000 C 
BRANCH  21  22
ATOM     22  C   UNL     1       0.976   8.985  21.637  0.00  0.00    +0.000 C 
BRANCH  22  23
ATOM     23  C   UNL     1      -0.204   9.610  20.875  0.00  0.00    +0.000 C 
BRANCH  23  24
ATOM     24  N   UNL     1      -0.084  11.059  20.615  0.00  0.00    +0.000 NA
BRANCH  24  26
ATOM     25  C   UNL     1      -1.461  10.354  18.612  0.00  0.00    +0.000 C 
ATOM     26  C   UNL     1      -0.949  11.483  19.501  0.00  0.00    +0.000 C 
ENDBRANCH  24  26
BRANCH  24  27
ATOM     27  C   UNL     1      -0.276  11.842  21.850  0.00  0.00    +0.000 C 
ATOM     28  C   UNL     1      -1.449  11.434  22.738  0.00  0.00    +0.000 C 
ENDBRANCH  24  27
ENDBRANCH  23  24
ENDBRANCH  22  23
ENDBRANCH  21  22
ENDBRANCH  17  21
ENDBRANCH   1  18
BRANCH   4  29
ATOM     29  C   UNL     1       7.683   5.714  18.914  0.00  0.00    +0.000 C 
ATOM     30  F   UNL     1       8.209   6.955  18.813  0.00  0.00    +0.000 F 
ATOM     31  F   UNL     1       7.176   5.613  20.173  0.00  0.00    +0.000 F 
ATOM     32  F   UNL     1       8.731   4.845  18.869  0.00  0.00    +0.000 F 
ENDBRANCH   4  29
TORSDOF 9
ENDMDL
MODEL 6
REMARK VINA RESULT:      -7.6      3.040      4.490
REMARK  Name = 
REMARK  11 active torsions:
REMARK  status: ('A' for Active; 'I' for Inactive)
REMARK    1  A    between atoms: C_1  and  C_2
REMARK    2  A    between atoms: C_2  and  N_3
REMARK    3  A    between atoms: N_3  and  C_4
REMARK    4  A    between atoms: N_3  and  C_6
REMARK    5  A    between atoms: C_4  and  C_5
REMARK    6  A    between atoms: C_6  and  C_7
REMARK    7  A    between atoms: C_7  and  C_8
REMARK    8  A    between atoms: C_8  and  N_9
REMARK    9  A    between atoms: C_10  and  C_12
REMARK   10  A    between atoms: C_15  and  C_16
REMARK   11  A    between atoms: C_21  and  C_22
REMARK                            x       y       z     vdW  Elec       q    Type
REMARK                         _______ _______ _______ _____ _____    ______ ____
ROOT
ATOM      1  C   UNL     1       3.356   5.549  19.335  0.00  0.00    +0.000 A 
ATOM      2  N   UNL     1       4.688   5.744  19.473  0.00  0.00    +0.000 NA
ATOM      3  N   UNL     1       5.233   5.399  18.276  0.00  0.00    +0.000 N 
ATOM      4  C   UNL     1       6.574   5.367  17.897  0.00  0.00    +0.000 A 
ATOM      5  C   UNL     1       6.906   5.001  16.642  0.00  0.00    +0.000 A 
ATOM      6  C   UNL     1       5.782   4.697  15.706  0.00  0.00    +0.000 A 
ATOM      7  N   UNL     1       4.532   4.679  16.066  0.00  0.00    +0.000 NA
ATOM      8  C   UNL     1       4.244   5.021  17.358  0.00  0.00    +0.000 A 
ATOM      9  C   UNL     1       3.048   5.092  18.031  0.00  0.00    +0.000 A 
ATOM     10 CL   UNL     1       1.518   4.721  17.393  0.00  0.00    +0.000 Cl
ENDROOT
BRANCH   6  11
ATOM     11  C   UNL     1       6.135   4.407  14.285  0.00  0.00    +0.000 A 
ATOM     12  C   UNL     1       7.301   4.967  13.745  0.00  0.00    +0.000 A 
ATOM     13  C   UNL     1       7.693   4.655  12.441  0.00  0.00    +0.000 A 
ATOM     14  C   UNL     1       6.926   3.779  11.673  0.00  0.00    +0.000 A 
ATOM     15  C   UNL     1       5.766   3.219  12.204  0.00  0.00    +0.000 A 
ATOM     16  C   UNL     1       5.373   3.525  13.508  0.00  0.00    +0.000 A 
ENDBRANCH   6  11
BRANCH   1  18
ATOM     17  N   UNL     1       1.932   7.092  20.507  0.00  0.00    +0.000 N 
ATOM     18  C   UNL     1       2.405   5.798  20.431  0.00  0.00    +0.000 C 
ATOM     19  O   UNL     1       2.055   4.928  21.222  0.00  0.00    +0.000 OA
ATOM     20  H   UNL     1       2.304   7.773  19.851  0.00  0.00    +0.000 HD
BRANCH  17  21
ATOM     21  C   UNL     1       0.996   7.500  21.535  0.00  0.00    +0.000 C 
BRANCH  21  22
ATOM     22  C   UNL     1       0.133   8.689  21.119  0.00  0.00    +0.000 C 
BRANCH  22  23
ATOM     23  C   UNL     1       0.936   9.928  20.694  0.00  0.00    +0.000 C 
BRANCH  23  24
ATOM     24  N   UNL     1       0.214  10.871  19.816  0.00  0.00    +0.000 NA
BRANCH  24  26
ATOM     25  C   UNL     1       1.869  12.496  18.804  0.00  0.00    +0.000 C 
ATOM     26  C   UNL     1       0.808  12.218  19.863  0.00  0.00    +0.000 C 
ENDBRANCH  24  26
BRANCH  24  27
ATOM     27  C   UNL     1       0.071  10.330  18.451  0.00  0.00    +0.000 C 
ATOM     28  C   UNL     1      -1.356  10.131  17.945  0.00  0.00    +0.000 C 
ENDBRANCH  24  27
ENDBRANCH  23  24
ENDBRANCH  22  23
ENDBRANCH  21  22
ENDBRANCH  17  21
ENDBRANCH   1  18
BRANCH   4  29
ATOM     29  C   UNL     1       7.626   5.716  18.882  0.00  0.00    +0.000 C 
ATOM     30  F   UNL     1       7.252   5.756  20.180  0.00  0.00    +0.000 F 
ATOM     31  F   UNL     1       8.662   4.836  18.808  0.00  0.00    +0.000 F 
ATOM     32  F   UNL     1       8.160   6.937  18.597  0.00  0.00    +0.000 F 
ENDBRANCH   4  29
TORSDOF 9
ENDMDL
MODEL 7
REMARK VINA RESULT:      -7.5      3.375      4.714
REMARK  Name = 
REMARK  11 active torsions:
REMARK  status: ('A' for Active; 'I' for Inactive)
REMARK    1  A    between atoms: C_1  and  C_2
REMARK    2  A    between atoms: C_2  and  N_3
REMARK    3  A    between atoms: N_3  and  C_4
REMARK    4  A    between atoms: N_3  and  C_6
REMARK    5  A    between atoms: C_4  and  C_5
REMARK    6  A    between atoms: C_6  and  C_7
REMARK    7  A    between atoms: C_7  and  C_8
REMARK    8  A    between atoms: C_8  and  N_9
REMARK    9  A    between atoms: C_10  and  C_12
REMARK   10  A    between atoms: C_15  and  C_16
REMARK   11  A    between atoms: C_21  and  C_22
REMARK                            x       y       z     vdW  Elec       q    Type
REMARK                         _______ _______ _______ _____ _____    ______ ____
ROOT
ATOM      1  C   UNL     1       3.367   5.582  19.308  0.00  0.00    +0.000 A 
ATOM      2  N   UNL     1       4.696   5.768  19.483  0.00  0.00    +0.000 NA
ATOM      3  N   UNL     1       5.273   5.411  18.305  0.00  0.00    +0.000 N 
ATOM      4  C   UNL     1       6.625   5.365  17.965  0.00  0.00    +0.000 A 
ATOM      5  C   UNL     1       6.990   4.988  16.723  0.00  0.00    +0.000 A 
ATOM      6  C   UNL     1       5.891   4.687  15.756  0.00  0.00    +0.000 A 
ATOM      7  N   UNL     1       4.631   4.682  16.079  0.00  0.00    +0.000 NA
ATOM      8  C   UNL     1       4.308   5.034  17.361  0.00  0.00    +0.000 A 
ATOM      9  C   UNL     1       3.094   5.119  17.998  0.00  0.00    +0.000 A 
ATOM     10 CL   UNL     1       1.580   4.756  17.318  0.00  0.00    +0.000 Cl
ENDROOT
BRANCH   6  11
ATOM     11  C   UNL     1       6.283   4.386  14.348  0.00  0.00    +0.000 A 
ATOM     12  C   UNL     1       5.491   3.510  13.593  0.00  0.00    +0.000 A 
ATOM     13  C   UNL     1       5.794   3.267  12.251  0.00  0.00    +0.000 A 
ATOM     14  C   UNL     1       6.885   3.900  11.656  0.00  0.00    +0.000 A 
ATOM     15  C   UNL     1       7.676   4.772  12.401  0.00  0.00    +0.000 A 
ATOM     16  C   UNL     1       7.375   5.021  13.741  0.00  0.00    +0.000 A 
ENDBRANCH   6  11
BRANCH   1  18
ATOM     17  N   UNL     1       2.057   7.175  20.543  0.00  0.00    +0.000 N 
ATOM     18  C   UNL     1       2.388   5.846  20.374  0.00  0.00    +0.000 C 
ATOM     19  O   UNL     1       1.898   4.959  21.065  0.00  0.00    +0.000 OA
ATOM     20  H   UNL     1       2.540   7.861  19.970  0.00  0.00    +0.000 HD
BRANCH  17  21
ATOM     21  C   UNL     1       1.113   7.600  21.557  0.00  0.00    +0.000 C 
BRANCH  21  22
ATOM     22  C   UNL     1       0.074   8.587  21.029  0.00  0.00    +0.000 C 
BRANCH  22  23
ATOM     23  C   UNL     1       0.634   9.986  20.730  0.00  0.00    +0.000 C 
BRANCH  23  24
ATOM     24  N   UNL     1       0.478  10.969  21.822  0.00  0.00    +0.000 NA
BRANCH  24  26
ATOM     25  C   UNL     1       0.434  12.470  19.785  0.00  0.00    +0.000 C 
ATOM     26  C   UNL     1       0.348  12.341  21.302  0.00  0.00    +0.000 C 
ENDBRANCH  24  26
BRANCH  24  27
ATOM     27  C   UNL     1      -0.603  10.577  22.746  0.00  0.00    +0.000 C 
ATOM     28  C   UNL     1      -1.715  11.600  22.965  0.00  0.00    +0.000 C 
ENDBRANCH  24  27
ENDBRANCH  23  24
ENDBRANCH  22  23
ENDBRANCH  21  22
ENDBRANCH  17  21
ENDBRANCH   1  18
BRANCH   4  29
ATOM     29  C   UNL     1       7.651   5.713  18.978  0.00  0.00    +0.000 C 
ATOM     30  F   UNL     1       7.256   5.694  20.271  0.00  0.00    +0.000 F 
ATOM     31  F   UNL     1       8.716   4.870  18.888  0.00  0.00    +0.000 F 
ATOM     32  F   UNL     1       8.147   6.960  18.745  0.00  0.00    +0.000 F 
ENDBRANCH   4  29
TORSDOF 9
ENDMDL
MODEL 8
REMARK VINA RESULT:      -7.5      3.114      4.534
REMARK  Name = 
REMARK  11 active torsions:
REMARK  status: ('A' for Active; 'I' for Inactive)
REMARK    1  A    between atoms: C_1  and  C_2
REMARK    2  A    between atoms: C_2  and  N_3
REMARK    3  A    between atoms: N_3  and  C_4
REMARK    4  A    between atoms: N_3  and  C_6
REMARK    5  A    between atoms: C_4  and  C_5
REMARK    6  A    between atoms: C_6  and  C_7
REMARK    7  A    between atoms: C_7  and  C_8
REMARK    8  A    between atoms: C_8  and  N_9
REMARK    9  A    between atoms: C_10  and  C_12
REMARK   10  A    between atoms: C_15  and  C_16
REMARK   11  A    between atoms: C_21  and  C_22
REMARK                            x       y       z     vdW  Elec       q    Type
REMARK                         _______ _______ _______ _____ _____    ______ ____
ROOT
ATOM      1  C   UNL     1       3.331   5.659  19.289  0.00  0.00    +0.000 A 
ATOM      2  N   UNL     1       4.661   5.851  19.454  0.00  0.00    +0.000 NA
ATOM      3  N   UNL     1       5.233   5.467  18.282  0.00  0.00    +0.000 N 
ATOM      4  C   UNL     1       6.583   5.415  17.938  0.00  0.00    +0.000 A 
ATOM      5  C   UNL     1       6.944   5.010  16.703  0.00  0.00    +0.000 A 
ATOM      6  C   UNL     1       5.842   4.686  15.748  0.00  0.00    +0.000 A 
ATOM      7  N   UNL     1       4.583   4.686  16.077  0.00  0.00    +0.000 NA
ATOM      8  C   UNL     1       4.265   5.068  17.351  0.00  0.00    +0.000 A 
ATOM      9  C   UNL     1       3.053   5.166  17.991  0.00  0.00    +0.000 A 
ATOM     10 CL   UNL     1       1.536   4.786  17.326  0.00  0.00    +0.000 Cl
ENDROOT
BRANCH   6  11
ATOM     11  C   UNL     1       6.228   4.352  14.346  0.00  0.00    +0.000 A 
ATOM     12  C   UNL     1       5.408   3.495  13.599  0.00  0.00    +0.000 A 
ATOM     13  C   UNL     1       5.708   3.225  12.261  0.00  0.00    +0.000 A 
ATOM     14  C   UNL     1       6.823   3.811  11.663  0.00  0.00    +0.000 A 
ATOM     15  C   UNL     1       7.642   4.664  12.400  0.00  0.00    +0.000 A 
ATOM     16  C   UNL     1       7.344   4.941  13.736  0.00  0.00    +0.000 A 
ENDBRANCH   6  11
BRANCH   1  18
ATOM     17  N   UNL     1       2.138   7.287  20.595  0.00  0.00    +0.000 N 
ATOM     18  C   UNL     1       2.355   5.946  20.352  0.00  0.00    +0.000 C 
ATOM     19  O   UNL     1       1.776   5.068  20.981  0.00  0.00    +0.000 OA
ATOM     20  H   UNL     1       2.690   7.960  20.072  0.00  0.00    +0.000 HD
BRANCH  17  21
ATOM     21  C   UNL     1       1.213   7.735  21.616  0.00  0.00    +0.000 C 
BRANCH  21  22
ATOM     22  C   UNL     1      -0.151   8.132  21.055  0.00  0.00    +0.000 C 
BRANCH  22  23
ATOM     23  C   UNL     1      -0.271   9.621  20.695  0.00  0.00    +0.000 C 
BRANCH  23  24
ATOM     24  N   UNL     1       0.853  10.168  19.908  0.00  0.00    +0.000 NA
BRANCH  24  26
ATOM     25  C   UNL     1       1.728   9.103  17.786  0.00  0.00    +0.000 C 
ATOM     26  C   UNL     1       0.659   9.954  18.464  0.00  0.00    +0.000 C 
ENDBRANCH  24  26
BRANCH  24  27
ATOM     27  C   UNL     1       1.127  11.572  20.271  0.00  0.00    +0.000 C 
ATOM     28  C   UNL     1      -0.044  12.545  20.153  0.00  0.00    +0.000 C 
ENDBRANCH  24  27
ENDBRANCH  23  24
ENDBRANCH  22  23
ENDBRANCH  21  22
ENDBRANCH  17  21
ENDBRANCH   1  18
BRANCH   4  29
ATOM     29  C   UNL     1       7.613   5.787  18.939  0.00  0.00    +0.000 C 
ATOM     30  F   UNL     1       8.123   7.036  18.847  0.00  0.00    +0.000 F 
ATOM     31  F   UNL     1       7.118   5.666  20.201  0.00  0.00    +0.000 F 
ATOM     32  F   UNL     1       8.671   4.932  18.875  0.00  0.00    +0.000 F 
ENDBRANCH   4  29
TORSDOF 9
ENDMDL
MODEL 9
REMARK VINA RESULT:      -7.5      3.365      4.648
REMARK  Name = 
REMARK  11 active torsions:
REMARK  status: ('A' for Active; 'I' for Inactive)
REMARK    1  A    between atoms: C_1  and  C_2
REMARK    2  A    between atoms: C_2  and  N_3
REMARK    3  A    between atoms: N_3  and  C_4
REMARK    4  A    between atoms: N_3  and  C_6
REMARK    5  A    between atoms: C_4  and  C_5
REMARK    6  A    between atoms: C_6  and  C_7
REMARK    7  A    between atoms: C_7  and  C_8
REMARK    8  A    between atoms: C_8  and  N_9
REMARK    9  A    between atoms: C_10  and  C_12
REMARK   10  A    between atoms: C_15  and  C_16
REMARK   11  A    between atoms: C_21  and  C_22
REMARK                            x       y       z     vdW  Elec       q    Type
REMARK                         _______ _______ _______ _____ _____    ______ ____
ROOT
ATOM      1  C   UNL     1       3.428   5.423  19.279  0.00  0.00    +0.000 A 
ATOM      2  N   UNL     1       4.752   5.652  19.434  0.00  0.00    +0.000 NA
ATOM      3  N   UNL     1       5.323   5.312  18.248  0.00  0.00    +0.000 N 
ATOM      4  C   UNL     1       6.670   5.310  17.888  0.00  0.00    +0.000 A 
ATOM      5  C   UNL     1       7.029   4.943  16.641  0.00  0.00    +0.000 A 
ATOM      6  C   UNL     1       5.927   4.604  15.691  0.00  0.00    +0.000 A 
ATOM      7  N   UNL     1       4.672   4.558  16.033  0.00  0.00    +0.000 NA
ATOM      8  C   UNL     1       4.357   4.902  17.319  0.00  0.00    +0.000 A 
ATOM      9  C   UNL     1       3.150   4.949  17.974  0.00  0.00    +0.000 A 
ATOM     10 CL   UNL     1       1.639   4.535  17.317  0.00  0.00    +0.000 Cl
ENDROOT
BRANCH   6  11
ATOM     11  C   UNL     1       6.307   4.313  14.278  0.00  0.00    +0.000 A 
ATOM     12  C   UNL     1       5.497   3.458  13.517  0.00  0.00    +0.000 A 
ATOM     13  C   UNL     1       5.790   3.227  12.171  0.00  0.00    +0.000 A 
ATOM     14  C   UNL     1       6.889   3.849  11.578  0.00  0.00    +0.000 A 
ATOM     15  C   UNL     1       7.697   4.700  12.329  0.00  0.00    +0.000 A 
ATOM     16  C   UNL     1       7.406   4.938  13.673  0.00  0.00    +0.000 A 
ENDBRANCH   6  11
BRANCH   1  18
ATOM     17  N   UNL     1       1.996   6.954  20.457  0.00  0.00    +0.000 N 
ATOM     18  C   UNL     1       2.456   5.657  20.359  0.00  0.00    +0.000 C 
ATOM     19  O   UNL     1       2.078   4.773  21.120  0.00  0.00    +0.000 OA
ATOM     20  H   UNL     1       2.391   7.646  19.826  0.00  0.00    +0.000 HD
BRANCH  17  21
ATOM     21  C   UNL     1       1.042   7.348  21.473  0.00  0.00    +0.000 C 
BRANCH  21  22
ATOM     22  C   UNL     1       0.957   8.862  21.658  0.00  0.00    +0.000 C 
BRANCH  22  23
ATOM     23  C   UNL     1      -0.306   9.497  21.057  0.00  0.00    +0.000 C 
BRANCH  23  24
ATOM     24  N   UNL     1      -0.492  10.931  21.360  0.00  0.00    +0.000 NA
BRANCH  24  26
ATOM     25  C   UNL     1      -1.619  12.471  23.020  0.00  0.00    +0.000 C 
ATOM     26  C   UNL     1      -0.929  11.139  22.751  0.00  0.00    +0.000 C 
ENDBRANCH  24  26
BRANCH  24  27
ATOM     27  C   UNL     1       0.701  11.715  20.986  0.00  0.00    +0.000 C 
ATOM     28  C   UNL     1       0.525  12.718  19.848  0.00  0.00    +0.000 C 
ENDBRANCH  24  27
ENDBRANCH  23  24
ENDBRANCH  22  23
ENDBRANCH  21  22
ENDBRANCH  17  21
ENDBRANCH   1  18
BRANCH   4  29
ATOM     29  C   UNL     1       7.699   5.693  18.886  0.00  0.00    +0.000 C 
ATOM     30  F   UNL     1       8.242   6.924  18.754  0.00  0.00    +0.000 F 
ATOM     31  F   UNL     1       7.189   5.630  20.146  0.00  0.00    +0.000 F 
ATOM     32  F   UNL     1       8.736   4.810  18.864  0.00  0.00    +0.000 F 
ENDBRANCH   4  29
TORSDOF 9
ENDMDL
