MODEL 1
REMARK VINA RESULT:      -6.8      0.000      0.000
REMARK  Name = 
REMARK  2 active torsions:
REMARK  status: ('A' for Active; 'I' for Inactive)
REMARK    1  A    between atoms: C_1  and  O_2
REMARK    2  A    between atoms: O_2  and  C_3
REMARK                            x       y       z     vdW  Elec       q    Type
REMARK                         _______ _______ _______ _____ _____    ______ ____
ROOT
ATOM      1  C   UNL     1       2.178   6.190  19.824  0.00  0.00    +0.000 A 
ATOM      2  C   UNL     1       1.487   5.382  20.741  0.00  0.00    +0.000 A 
ATOM      3  C   UNL     1       1.590   3.993  20.693  0.00  0.00    +0.000 A 
ATOM      4  C   UNL     1       2.377   3.392  19.718  0.00  0.00    +0.000 A 
ATOM      5  C   UNL     1       3.066   4.180  18.782  0.00  0.00    +0.000 A 
ATOM      6  C   UNL     1       2.973   5.589  18.823  0.00  0.00    +0.000 A 
ATOM      7  C   UNL     1       3.731   6.422  17.820  0.00  0.00    +0.000 C 
ATOM      8  O   UNL     1       3.718   7.644  17.817  0.00  0.00    +0.000 OA
ATOM      9  C   UNL     1       4.521   5.695  16.832  0.00  0.00    +0.000 A 
ATOM     10  C   UNL     1       5.319   6.249  15.780  0.00  0.00    +0.000 A 
ATOM     11  C   UNL     1       5.941   5.275  15.028  0.00  0.00    +0.000 A 
ATOM     12  S   UNL     1       5.563   3.702  15.586  0.00  0.00    +0.000 S 
ATOM     13  C   UNL     1       4.577   4.322  16.826  0.00  0.00    +0.000 A 
ATOM     14  C   UNL     1       3.888   3.470  17.758  0.00  0.00    +0.000 C 
ATOM     15  O   UNL     1       3.933   2.243  17.764  0.00  0.00    +0.000 OA
ENDROOT
BRANCH   1  17
ATOM     16  C   UNL     1       1.384   8.148  20.932  0.00  0.00    +0.000 C 
ATOM     17  O   UNL     1       2.060   7.553  19.830  0.00  0.00    +0.000 OA
ENDBRANCH   1  17
TORSDOF 1
ENDMDL
MODEL 2
REMARK VINA RESULT:      -6.6      2.093      5.486
REMARK  Name = 
REMARK  2 active torsions:
REMARK  status: ('A' for Active; 'I' for Inactive)
REMARK    1  A    between atoms: C_1  and  O_2
REMARK    2  A    between atoms: O_2  and  C_3
REMARK                            x       y       z     vdW  Elec       q    Type
REMARK                         _______ _______ _______ _____ _____    ______ ____
ROOT
ATOM      1  C   UNL     1       5.080   4.793  16.189  0.00  0.00    +0.000 A 
ATOM      2  C   UNL     1       5.481   6.064  15.747  0.00  0.00    +0.000 A 
ATOM      3  C   UNL     1       4.992   7.221  16.349  0.00  0.00    +0.000 A 
ATOM      4  C   UNL     1       4.084   7.123  17.396  0.00  0.00    +0.000 A 
ATOM      5  C   UNL     1       3.658   5.863  17.846  0.00  0.00    +0.000 A 
ATOM      6  C   UNL     1       4.151   4.682  17.246  0.00  0.00    +0.000 A 
ATOM      7  C   UNL     1       3.696   3.337  17.751  0.00  0.00    +0.000 C 
ATOM      8  O   UNL     1       4.103   2.277  17.297  0.00  0.00    +0.000 OA
ATOM      9  C   UNL     1       2.733   3.341  18.848  0.00  0.00    +0.000 A 
ATOM     10  C   UNL     1       2.148   2.207  19.496  0.00  0.00    +0.000 A 
ATOM     11  C   UNL     1       1.280   2.570  20.502  0.00  0.00    +0.000 A 
ATOM     12  S   UNL     1       1.167   4.270  20.663  0.00  0.00    +0.000 S 
ATOM     13  C   UNL     1       2.276   4.516  19.397  0.00  0.00    +0.000 A 
ATOM     14  C   UNL     1       2.676   5.830  18.970  0.00  0.00    +0.000 C 
ATOM     15  O   UNL     1       2.278   6.885  19.455  0.00  0.00    +0.000 OA
ENDROOT
BRANCH   1  17
ATOM     16  C   UNL     1       6.217   3.779  14.352  0.00  0.00    +0.000 C 
ATOM     17  O   UNL     1       5.520   3.646  15.586  0.00  0.00    +0.000 OA
ENDBRANCH   1  17
TORSDOF 1
ENDMDL
MODEL 3
REMARK VINA RESULT:      -6.5      1.229      3.212
REMARK  Name = 
REMARK  2 active torsions:
REMARK  status: ('A' for Active; 'I' for Inactive)
REMARK    1  A    between atoms: C_1  and  O_2
REMARK    2  A    between atoms: O_2  and  C_3
REMARK                            x       y       z     vdW  Elec       q    Type
REMARK                         _______ _______ _______ _____ _____    ______ ____
ROOT
ATOM      1  C   UNL     1       2.398   4.205  20.160  0.00  0.00    +0.000 A 
ATOM      2  C   UNL     1       1.688   5.143  20.925  0.00  0.00    +0.000 A 
ATOM      3  C   UNL     1       1.693   6.495  20.588  0.00  0.00    +0.000 A 
ATOM      4  C   UNL     1       2.419   6.929  19.486  0.00  0.00    +0.000 A 
ATOM      5  C   UNL     1       3.147   6.010  18.714  0.00  0.00    +0.000 A 
ATOM      6  C   UNL     1       3.146   4.636  19.043  0.00  0.00    +0.000 A 
ATOM      7  C   UNL     1       3.921   3.659  18.195  0.00  0.00    +0.000 C 
ATOM      8  O   UNL     1       3.940   2.455  18.407  0.00  0.00    +0.000 OA
ATOM      9  C   UNL     1       4.659   4.216  17.066  0.00  0.00    +0.000 A 
ATOM     10  C   UNL     1       5.468   3.507  16.121  0.00  0.00    +0.000 A 
ATOM     11  C   UNL     1       6.018   4.342  15.173  0.00  0.00    +0.000 A 
ATOM     12  S   UNL     1       5.564   5.973  15.422  0.00  0.00    +0.000 S 
ATOM     13  C   UNL     1       4.636   5.562  16.786  0.00  0.00    +0.000 A 
ATOM     14  C   UNL     1       3.911   6.544  17.547  0.00  0.00    +0.000 C 
ATOM     15  O   UNL     1       3.880   7.747  17.306  0.00  0.00    +0.000 OA
ENDROOT
BRANCH   1  17
ATOM     16  C   UNL     1       1.657   2.462  21.612  0.00  0.00    +0.000 C 
ATOM     17  O   UNL     1       2.436   2.878  20.496  0.00  0.00    +0.000 OA
ENDBRANCH   1  17
TORSDOF 1
ENDMDL
MODEL 4
REMARK VINA RESULT:      -6.4      3.058      5.128
REMARK  Name = 
REMARK  2 active torsions:
REMARK  status: ('A' for Active; 'I' for Inactive)
REMARK    1  A    between atoms: C_1  and  O_2
REMARK    2  A    between atoms: O_2  and  C_3
REMARK                            x       y       z     vdW  Elec       q    Type
REMARK                         _______ _______ _______ _____ _____    ______ ____
ROOT
ATOM      1  C   UNL     1       6.576   4.613  17.679  0.00  0.00    +0.000 A 
ATOM      2  C   UNL     1       6.915   4.879  16.343  0.00  0.00    +0.000 A 
ATOM      3  C   UNL     1       5.984   4.712  15.321  0.00  0.00    +0.000 A 
ATOM      4  C   UNL     1       4.703   4.264  15.619  0.00  0.00    +0.000 A 
ATOM      5  C   UNL     1       4.346   3.979  16.946  0.00  0.00    +0.000 A 
ATOM      6  C   UNL     1       5.280   4.149  17.993  0.00  0.00    +0.000 A 
ATOM      7  C   UNL     1       4.877   3.853  19.415  0.00  0.00    +0.000 C 
ATOM      8  O   UNL     1       5.626   4.005  20.370  0.00  0.00    +0.000 OA
ATOM      9  C   UNL     1       3.513   3.379  19.623  0.00  0.00    +0.000 A 
ATOM     10  C   UNL     1       2.894   3.027  20.865  0.00  0.00    +0.000 A 
ATOM     11  C   UNL     1       1.586   2.624  20.702  0.00  0.00    +0.000 A 
ATOM     12  S   UNL     1       1.108   2.665  19.059  0.00  0.00    +0.000 S 
ATOM     13  C   UNL     1       2.639   3.223  18.573  0.00  0.00    +0.000 A 
ATOM     14  C   UNL     1       2.956   3.496  17.196  0.00  0.00    +0.000 C 
ATOM     15  O   UNL     1       2.184   3.363  16.251  0.00  0.00    +0.000 OA
ENDROOT
BRANCH   1  17
ATOM     16  C   UNL     1       7.931   6.047  19.023  0.00  0.00    +0.000 C 
ATOM     17  O   UNL     1       7.487   4.735  18.694  0.00  0.00    +0.000 OA
ENDBRANCH   1  17
TORSDOF 1
ENDMDL
MODEL 5
REMARK VINA RESULT:      -6.1      1.864      4.601
REMARK  Name = 
REMARK  2 active torsions:
REMARK  status: ('A' for Active; 'I' for Inactive)
REMARK    1  A    between atoms: C_1  and  O_2
REMARK    2  A    between atoms: O_2  and  C_3
REMARK                            x       y       z     vdW  Elec       q    Type
REMARK                         _______ _______ _______ _____ _____    ______ ____
ROOT
ATOM      1  C   UNL     1       5.565   5.891  16.657  0.00  0.00    +0.000 A 
ATOM      2  C   UNL     1       6.338   5.252  15.675  0.00  0.00    +0.000 A 
ATOM      3  C   UNL     1       6.156   3.902  15.385  0.00  0.00    +0.000 A 
ATOM      4  C   UNL     1       5.204   3.168  16.083  0.00  0.00    +0.000 A 
ATOM      5  C   UNL     1       4.429   3.783  17.078  0.00  0.00    +0.000 A 
ATOM      6  C   UNL     1       4.601   5.153  17.379  0.00  0.00    +0.000 A 
ATOM      7  C   UNL     1       3.750   5.802  18.440  0.00  0.00    +0.000 C 
ATOM      8  O   UNL     1       3.828   6.988  18.730  0.00  0.00    +0.000 OA
ATOM      9  C   UNL     1       2.788   4.943  19.122  0.00  0.00    +0.000 A 
ATOM     10  C   UNL     1       1.875   5.314  20.161  0.00  0.00    +0.000 A 
ATOM     11  C   UNL     1       1.099   4.254  20.578  0.00  0.00    +0.000 A 
ATOM     12  S   UNL     1       1.470   2.819  19.723  0.00  0.00    +0.000 S 
ATOM     13  C   UNL     1       2.658   3.613  18.801  0.00  0.00    +0.000 A 
ATOM     14  C   UNL     1       3.430   2.935  17.794  0.00  0.00    +0.000 C 
ATOM     15  O   UNL     1       3.321   1.749  17.496  0.00  0.00    +0.000 OA
ENDROOT
BRANCH   1  17
ATOM     16  C   UNL     1       7.060   7.600  17.393  0.00  0.00    +0.000 C 
ATOM     17  O   UNL     1       5.754   7.207  16.984  0.00  0.00    +0.000 OA
ENDBRANCH   1  17
TORSDOF 1
ENDMDL
MODEL 6
REMARK VINA RESULT:      -6.0      1.778      4.234
REMARK  Name = 
REMARK  2 active torsions:
REMARK  status: ('A' for Active; 'I' for Inactive)
REMARK    1  A    between atoms: C_1  and  O_2
REMARK    2  A    between atoms: O_2  and  C_3
REMARK                            x       y       z     vdW  Elec       q    Type
REMARK                         _______ _______ _______ _____ _____    ______ ____
ROOT
ATOM      1  C   UNL     1       3.894   7.012  17.492  0.00  0.00    +0.000 A 
ATOM      2  C   UNL     1       4.742   7.001  16.373  0.00  0.00    +0.000 A 
ATOM      3  C   UNL     1       5.176   5.801  15.815  0.00  0.00    +0.000 A 
ATOM      4  C   UNL     1       4.777   4.594  16.375  0.00  0.00    +0.000 A 
ATOM      5  C   UNL     1       3.941   4.581  17.502  0.00  0.00    +0.000 A 
ATOM      6  C   UNL     1       3.490   5.791  18.076  0.00  0.00    +0.000 A 
ATOM      7  C   UNL     1       2.580   5.760  19.277  0.00  0.00    +0.000 C 
ATOM      8  O   UNL     1       2.131   6.768  19.804  0.00  0.00    +0.000 OA
ATOM      9  C   UNL     1       2.227   4.443  19.796  0.00  0.00    +0.000 A 
ATOM     10  C   UNL     1       1.390   4.147  20.919  0.00  0.00    +0.000 A 
ATOM     11  C   UNL     1       1.261   2.791  21.132  0.00  0.00    +0.000 A 
ATOM     12  S   UNL     1       2.146   1.881  19.985  0.00  0.00    +0.000 S 
ATOM     13  C   UNL     1       2.694   3.291  19.209  0.00  0.00    +0.000 A 
ATOM     14  C   UNL     1       3.556   3.250  18.058  0.00  0.00    +0.000 C 
ATOM     15  O   UNL     1       3.977   2.228  17.524  0.00  0.00    +0.000 OA
ENDROOT
BRANCH   1  17
ATOM     16  C   UNL     1       2.345   8.827  17.528  0.00  0.00    +0.000 C 
ATOM     17  O   UNL     1       3.487   8.180  18.079  0.00  0.00    +0.000 OA
ENDBRANCH   1  17
TORSDOF 1
ENDMDL
MODEL 7
REMARK VINA RESULT:      -6.0      2.510      5.374
REMARK  Name = 
REMARK  2 active torsions:
REMARK  status: ('A' for Active; 'I' for Inactive)
REMARK    1  A    between atoms: C_1  and  O_2
REMARK    2  A    between atoms: O_2  and  C_3
REMARK                            x       y       z     vdW  Elec       q    Type
REMARK                         _______ _______ _______ _____ _____    ______ ____
ROOT
ATOM      1  C   UNL     1       3.722   4.330  18.959  0.00  0.00    +0.000 A 
ATOM      2  C   UNL     1       4.512   4.058  17.831  0.00  0.00    +0.000 A 
ATOM      3  C   UNL     1       4.708   5.020  16.843  0.00  0.00    +0.000 A 
ATOM      4  C   UNL     1       4.106   6.266  16.963  0.00  0.00    +0.000 A 
ATOM      5  C   UNL     1       3.301   6.557  18.076  0.00  0.00    +0.000 A 
ATOM      6  C   UNL     1       3.098   5.591  19.087  0.00  0.00    +0.000 A 
ATOM      7  C   UNL     1       2.243   5.923  20.284  0.00  0.00    +0.000 C 
ATOM      8  O   UNL     1       2.050   5.145  21.207  0.00  0.00    +0.000 OA
ATOM      9  C   UNL     1       1.648   7.255  20.312  0.00  0.00    +0.000 A 
ATOM     10  C   UNL     1       0.800   7.807  21.325  0.00  0.00    +0.000 A 
ATOM     11  C   UNL     1       0.419   9.100  21.039  0.00  0.00    +0.000 A 
ATOM     12  S   UNL     1       1.076   9.645  19.556  0.00  0.00    +0.000 S 
ATOM     13  C   UNL     1       1.868   8.161  19.302  0.00  0.00    +0.000 A 
ATOM     14  C   UNL     1       2.679   7.912  18.140  0.00  0.00    +0.000 C 
ATOM     15  O   UNL     1       2.885   8.714  17.234  0.00  0.00    +0.000 OA
ENDROOT
BRANCH   1  17
ATOM     16  C   UNL     1       4.394   2.293  20.004  0.00  0.00    +0.000 C 
ATOM     17  O   UNL     1       3.487   3.387  19.922  0.00  0.00    +0.000 OA
ENDBRANCH   1  17
TORSDOF 1
ENDMDL
MODEL 8
REMARK VINA RESULT:      -5.8      1.976      3.764
REMARK  Name = 
REMARK  2 active torsions:
REMARK  status: ('A' for Active; 'I' for Inactive)
REMARK    1  A    between atoms: C_1  and  O_2
REMARK    2  A    between atoms: O_2  and  C_3
REMARK                            x       y       z     vdW  Elec       q    Type
REMARK                         _______ _______ _______ _____ _____    ______ ____
ROOT
ATOM      1  C   UNL     1       1.484   8.114  19.954  0.00  0.00    +0.000 A 
ATOM      2  C   UNL     1       1.457   9.320  19.237  0.00  0.00    +0.000 A 
ATOM      3  C   UNL     1       2.152   9.457  18.037  0.00  0.00    +0.000 A 
ATOM      4  C   UNL     1       2.894   8.390  17.544  0.00  0.00    +0.000 A 
ATOM      5  C   UNL     1       2.945   7.179  18.250  0.00  0.00    +0.000 A 
ATOM      6  C   UNL     1       2.241   7.026  19.466  0.00  0.00    +0.000 A 
ATOM      7  C   UNL     1       2.295   5.714  20.206  0.00  0.00    +0.000 C 
ATOM      8  O   UNL     1       1.687   5.506  21.246  0.00  0.00    +0.000 OA
ATOM      9  C   UNL     1       3.109   4.660  19.609  0.00  0.00    +0.000 A 
ATOM     10  C   UNL     1       3.325   3.338  20.114  0.00  0.00    +0.000 A 
ATOM     11  C   UNL     1       4.147   2.594  19.295  0.00  0.00    +0.000 A 
ATOM     12  S   UNL     1       4.658   3.486  17.927  0.00  0.00    +0.000 S 
ATOM     13  C   UNL     1       3.782   4.855  18.427  0.00  0.00    +0.000 A 
ATOM     14  C   UNL     1       3.766   6.077  17.667  0.00  0.00    +0.000 C 
ATOM     15  O   UNL     1       4.361   6.261  16.609  0.00  0.00    +0.000 OA
ENDROOT
BRANCH   1  17
ATOM     16  C   UNL     1       1.012   9.003  22.117  0.00  0.00    +0.000 C 
ATOM     17  O   UNL     1       0.839   7.971  21.153  0.00  0.00    +0.000 OA
ENDBRANCH   1  17
TORSDOF 1
ENDMDL
MODEL 9
REMARK VINA RESULT:      -5.8      2.018      3.325
REMARK  Name = 
REMARK  2 active torsions:
REMARK  status: ('A' for Active; 'I' for Inactive)
REMARK    1  A    between atoms: C_1  and  O_2
REMARK    2  A    between atoms: O_2  and  C_3
REMARK                            x       y       z     vdW  Elec       q    Type
REMARK                         _______ _______ _______ _____ _____    ______ ____
ROOT
ATOM      1  C   UNL     1       1.588   9.163  19.058  0.00  0.00    +0.000 A 
ATOM      2  C   UNL     1       0.790   9.555  20.144  0.00  0.00    +0.000 A 
ATOM      3  C   UNL     1       0.568   8.696  21.218  0.00  0.00    +0.000 A 
ATOM      4  C   UNL     1       1.132   7.427  21.215  0.00  0.00    +0.000 A 
ATOM      5  C   UNL     1       1.922   7.008  20.134  0.00  0.00    +0.000 A 
ATOM      6  C   UNL     1       2.159   7.871  19.040  0.00  0.00    +0.000 A 
ATOM      7  C   UNL     1       3.023   7.412  17.893  0.00  0.00    +0.000 C 
ATOM      8  O   UNL     1       3.290   8.118  16.931  0.00  0.00    +0.000 OA
ATOM      9  C   UNL     1       3.560   6.058  17.981  0.00  0.00    +0.000 A 
ATOM     10  C   UNL     1       4.395   5.391  17.028  0.00  0.00    +0.000 A 
ATOM     11  C   UNL     1       4.728   4.115  17.428  0.00  0.00    +0.000 A 
ATOM     12  S   UNL     1       4.035   3.722  18.943  0.00  0.00    +0.000 S 
ATOM     13  C   UNL     1       3.298   5.250  19.062  0.00  0.00    +0.000 A 
ATOM     14  C   UNL     1       2.492   5.629  20.192  0.00  0.00    +0.000 C 
ATOM     15  O   UNL     1       2.255   4.918  21.163  0.00  0.00    +0.000 OA
ENDROOT
BRANCH   1  17
ATOM     16  C   UNL     1       2.081  11.346  18.231  0.00  0.00    +0.000 C 
ATOM     17  O   UNL     1       1.788   9.977  17.976  0.00  0.00    +0.000 OA
ENDBRANCH   1  17
TORSDOF 1
ENDMDL
