MODEL 1
REMARK VINA RESULT:      -8.6      0.000      0.000
REMARK  Name = 
REMARK  9 active torsions:
REMARK  status: ('A' for Active; 'I' for Inactive)
REMARK    1  A    between atoms: N_2  and  O_4
REMARK    2  A    between atoms: O_4  and  C_5
REMARK    3  A    between atoms: C_5  and  C_6
REMARK    4  A    between atoms: C_6  and  N_7
REMARK    5  A    between atoms: N_10  and  C_11
REMARK    6  A    between atoms: C_11  and  C_12
REMARK    7  A    between atoms: C_14  and  N_15
REMARK    8  A    between atoms: N_15  and  C_16
REMARK    9  A    between atoms: C_29  and  O_30
REMARK                            x       y       z     vdW  Elec       q    Type
REMARK                         _______ _______ _______ _____ _____    ______ ____
ROOT
ATOM      1  C   UNL     1       3.781   4.691  19.393  0.00  0.00    +0.000 A 
ATOM      2  C   UNL     1       3.361   5.868  20.039  0.00  0.00    +0.000 A 
ATOM      3  C   UNL     1       2.052   5.981  20.536  0.00  0.00    +0.000 A 
ATOM      4  C   UNL     1       1.150   4.923  20.328  0.00  0.00    +0.000 A 
ATOM      5  C   UNL     1       1.552   3.763  19.678  0.00  0.00    +0.000 A 
ATOM      6  C   UNL     1       2.865   3.630  19.218  0.00  0.00    +0.000 A 
ENDROOT
BRANCH   3   7
ATOM      7  N   UNL     1       1.646   7.160  21.229  0.00  0.00    +0.000 N 
ATOM      8  H   UNL     1       1.541   7.103  22.251  0.00  0.00    +0.000 HD
BRANCH   7   9
ATOM      9  C   UNL     1       1.230   8.358  20.554  0.00  0.00    +0.000 A 
ATOM     10  C   UNL     1       1.595   8.564  19.205  0.00  0.00    +0.000 A 
ATOM     11  C   UNL     1       1.177   9.699  18.521  0.00  0.00    +0.000 A 
ATOM     12  N   UNL     1       0.401  10.615  19.140  0.00  0.00    +0.000 NA
ATOM     13  C   UNL     1       0.009  10.469  20.432  0.00  0.00    +0.000 A 
ATOM     14  C   UNL     1      -0.795  11.453  21.012  0.00  0.00    +0.000 A 
ATOM     15  C   UNL     1      -1.206  11.332  22.340  0.00  0.00    +0.000 A 
ATOM     16 CL   UNL     1      -2.212  12.573  23.060  0.00  0.00    +0.000 Cl
ATOM     17  C   UNL     1      -0.811  10.223  23.095  0.00  0.00    +0.000 A 
ATOM     18  C   UNL     1      -0.010   9.228  22.525  0.00  0.00    +0.000 A 
ATOM     19  C   UNL     1       0.409   9.330  21.182  0.00  0.00    +0.000 A 
ENDBRANCH   7   9
ENDBRANCH   3   7
BRANCH   6  20
ATOM     20  O   UNL     1       3.243   2.486  18.610  0.00  0.00    +0.000 OA
ATOM     21  H   UNL     1       3.198   2.376  17.649  0.00  0.00    +0.000 HD
ENDBRANCH   6  20
BRANCH   1  22
ATOM     22  C   UNL     1       5.205   4.585  18.896  0.00  0.00    +0.000 C 
BRANCH  22  26
ATOM     23  N   UNL     1       6.521   4.008  15.496  0.00  0.00    +0.000 NA
ATOM     24  C   UNL     1       7.372   4.334  16.669  0.00  0.00    +0.000 C 
ATOM     25  C   UNL     1       6.909   5.611  17.398  0.00  0.00    +0.000 C 
ATOM     26  N   UNL     1       5.484   5.539  17.793  0.00  0.00    +0.000 NA
ATOM     27  C   UNL     1       4.654   5.265  16.600  0.00  0.00    +0.000 C 
ATOM     28  C   UNL     1       5.093   3.969  15.883  0.00  0.00    +0.000 C 
BRANCH  23  29
ATOM     29  C   UNL     1       6.754   4.833  14.287  0.00  0.00    +0.000 C 
BRANCH  29  30
ATOM     30  C   UNL     1       6.637   4.004  13.003  0.00  0.00    +0.000 C 
BRANCH  30  31
ATOM     31  O   UNL     1       5.330   3.609  12.808  0.00  0.00    +0.000 OA
BRANCH  31  33
ATOM     32  O   UNL     1       5.507   1.916  11.455  0.00  0.00    +0.000 OA
ATOM     33  N   UNL     1       4.949   2.933  11.736  0.00  0.00    +0.000 N 
ATOM     34  O   UNL     1       3.951   3.355  10.987  0.00  0.00    +0.000 OA
ENDBRANCH  31  33
ENDBRANCH  30  31
ENDBRANCH  29  30
ENDBRANCH  23  29
ENDBRANCH  22  26
ENDBRANCH   1  22
TORSDOF 9
ENDMDL
MODEL 2
REMARK VINA RESULT:      -8.2      4.591      9.409
REMARK  Name = 
REMARK  9 active torsions:
REMARK  status: ('A' for Active; 'I' for Inactive)
REMARK    1  A    between atoms: N_2  and  O_4
REMARK    2  A    between atoms: O_4  and  C_5
REMARK    3  A    between atoms: C_5  and  C_6
REMARK    4  A    between atoms: C_6  and  N_7
REMARK    5  A    between atoms: N_10  and  C_11
REMARK    6  A    between atoms: C_11  and  C_12
REMARK    7  A    between atoms: C_14  and  N_15
REMARK    8  A    between atoms: N_15  and  C_16
REMARK    9  A    between atoms: C_29  and  O_30
REMARK                            x       y       z     vdW  Elec       q    Type
REMARK                         _______ _______ _______ _____ _____    ______ ____
ROOT
ATOM      1  C   UNL     1       2.311   5.080  19.456  0.00  0.00    +0.000 A 
ATOM      2  C   UNL     1       3.683   5.029  19.148  0.00  0.00    +0.000 A 
ATOM      3  C   UNL     1       4.432   3.872  19.416  0.00  0.00    +0.000 A 
ATOM      4  C   UNL     1       3.805   2.785  20.050  0.00  0.00    +0.000 A 
ATOM      5  C   UNL     1       2.455   2.831  20.372  0.00  0.00    +0.000 A 
ATOM      6  C   UNL     1       1.696   3.966  20.069  0.00  0.00    +0.000 A 
ENDROOT
BRANCH   3   7
ATOM      7  N   UNL     1       5.812   3.811  19.061  0.00  0.00    +0.000 N 
ATOM      8  H   UNL     1       6.410   3.144  19.568  0.00  0.00    +0.000 HD
BRANCH   7   9
ATOM      9  C   UNL     1       6.426   4.739  18.152  0.00  0.00    +0.000 A 
ATOM     10  C   UNL     1       7.102   5.872  18.659  0.00  0.00    +0.000 A 
ATOM     11  C   UNL     1       7.733   6.766  17.802  0.00  0.00    +0.000 A 
ATOM     12  N   UNL     1       7.717   6.551  16.468  0.00  0.00    +0.000 NA
ATOM     13  C   UNL     1       7.093   5.476  15.921  0.00  0.00    +0.000 A 
ATOM     14  C   UNL     1       7.115   5.312  14.534  0.00  0.00    +0.000 A 
ATOM     15  C   UNL     1       6.476   4.221  13.946  0.00  0.00    +0.000 A 
ATOM     16 CL   UNL     1       6.507   4.025  12.204  0.00  0.00    +0.000 Cl
ATOM     17  C   UNL     1       5.808   3.288  14.744  0.00  0.00    +0.000 A 
ATOM     18  C   UNL     1       5.782   3.437  16.135  0.00  0.00    +0.000 A 
ATOM     19  C   UNL     1       6.429   4.530  16.749  0.00  0.00    +0.000 A 
ENDBRANCH   7   9
ENDBRANCH   3   7
BRANCH   6  20
ATOM     20  O   UNL     1       0.380   3.983  20.368  0.00  0.00    +0.000 OA
ATOM     21  H   UNL     1       0.061   4.001  21.282  0.00  0.00    +0.000 HD
ENDBRANCH   6  20
BRANCH   1  22
ATOM     22  C   UNL     1       1.522   6.327  19.127  0.00  0.00    +0.000 C 
BRANCH  22  26
ATOM     23  N   UNL     1       0.314   9.792  19.519  0.00  0.00    +0.000 NA
ATOM     24  C   UNL     1       0.887   9.253  18.260  0.00  0.00    +0.000 C 
ATOM     25  C   UNL     1       2.272   8.608  18.469  0.00  0.00    +0.000 C 
ATOM     26  N   UNL     1       2.245   7.564  19.518  0.00  0.00    +0.000 NA
ATOM     27  C   UNL     1       1.720   8.140  20.774  0.00  0.00    +0.000 C 
ATOM     28  C   UNL     1       0.318   8.759  20.578  0.00  0.00    +0.000 C 
BRANCH  23  29
ATOM     29  C   UNL     1       0.889  11.077  19.984  0.00  0.00    +0.000 C 
BRANCH  29  30
ATOM     30  C   UNL     1      -0.162  11.949  20.682  0.00  0.00    +0.000 C 
BRANCH  30  31
ATOM     31  O   UNL     1       0.048  11.948  22.045  0.00  0.00    +0.000 OA
BRANCH  31  33
ATOM     32  O   UNL     1      -1.864  11.484  22.971  0.00  0.00    +0.000 OA
ATOM     33  N   UNL     1      -0.700  11.238  22.874  0.00  0.00    +0.000 N 
ATOM     34  O   UNL     1      -0.183  10.252  23.579  0.00  0.00    +0.000 OA
ENDBRANCH  31  33
ENDBRANCH  30  31
ENDBRANCH  29  30
ENDBRANCH  23  29
ENDBRANCH  22  26
ENDBRANCH   1  22
TORSDOF 9
ENDMDL
MODEL 3
REMARK VINA RESULT:      -8.1      0.947      1.138
REMARK  Name = 
REMARK  9 active torsions:
REMARK  status: ('A' for Active; 'I' for Inactive)
REMARK    1  A    between atoms: N_2  and  O_4
REMARK    2  A    between atoms: O_4  and  C_5
REMARK    3  A    between atoms: C_5  and  C_6
REMARK    4  A    between atoms: C_6  and  N_7
REMARK    5  A    between atoms: N_10  and  C_11
REMARK    6  A    between atoms: C_11  and  C_12
REMARK    7  A    between atoms: C_14  and  N_15
REMARK    8  A    between atoms: N_15  and  C_16
REMARK    9  A    between atoms: C_29  and  O_30
REMARK                            x       y       z     vdW  Elec       q    Type
REMARK                         _______ _______ _______ _____ _____    ______ ____
ROOT
ATOM      1  C   UNL     1       4.441   4.639  19.552  0.00  0.00    +0.000 A 
ATOM      2  C   UNL     1       3.607   5.706  19.934  0.00  0.00    +0.000 A 
ATOM      3  C   UNL     1       2.340   5.458  20.486  0.00  0.00    +0.000 A 
ATOM      4  C   UNL     1       1.892   4.130  20.598  0.00  0.00    +0.000 A 
ATOM      5  C   UNL     1       2.702   3.071  20.210  0.00  0.00    +0.000 A 
ATOM      6  C   UNL     1       3.981   3.312  19.699  0.00  0.00    +0.000 A 
ENDROOT
BRANCH   3   7
ATOM      7  N   UNL     1       1.518   6.543  20.911  0.00  0.00    +0.000 N 
ATOM      8  H   UNL     1       0.853   6.370  21.679  0.00  0.00    +0.000 HD
BRANCH   7   9
ATOM      9  C   UNL     1       1.465   7.802  20.220  0.00  0.00    +0.000 A 
ATOM     10  C   UNL     1       1.966   7.898  18.903  0.00  0.00    +0.000 A 
ATOM     11  C   UNL     1       1.896   9.095  18.201  0.00  0.00    +0.000 A 
ATOM     12  N   UNL     1       1.333  10.182  18.772  0.00  0.00    +0.000 NA
ATOM     13  C   UNL     1       0.825  10.150  20.030  0.00  0.00    +0.000 A 
ATOM     14  C   UNL     1       0.254  11.310  20.561  0.00  0.00    +0.000 A 
ATOM     15  C   UNL     1      -0.268  11.307  21.855  0.00  0.00    +0.000 A 
ATOM     16 CL   UNL     1      -0.979  12.768  22.513  0.00  0.00    +0.000 Cl
ATOM     17  C   UNL     1      -0.219  10.142  22.625  0.00  0.00    +0.000 A 
ATOM     18  C   UNL     1       0.345   8.972  22.105  0.00  0.00    +0.000 A 
ATOM     19  C   UNL     1       0.871   8.954  20.797  0.00  0.00    +0.000 A 
ENDBRANCH   7   9
ENDBRANCH   3   7
BRANCH   6  20
ATOM     20  O   UNL     1       4.763   2.268  19.349  0.00  0.00    +0.000 OA
ATOM     21  H   UNL     1       4.439   1.550  18.786  0.00  0.00    +0.000 HD
ENDBRANCH   6  20
BRANCH   1  22
ATOM     22  C   UNL     1       5.813   4.934  18.991  0.00  0.00    +0.000 C 
BRANCH  22  26
ATOM     23  N   UNL     1       6.569   4.055  15.487  0.00  0.00    +0.000 NA
ATOM     24  C   UNL     1       7.558   4.643  16.424  0.00  0.00    +0.000 C 
ATOM     25  C   UNL     1       7.051   5.943  17.080  0.00  0.00    +0.000 C 
ATOM     26  N   UNL     1       5.747   5.752  17.754  0.00  0.00    +0.000 NA
ATOM     27  C   UNL     1       4.766   5.214  16.786  0.00  0.00    +0.000 C 
ATOM     28  C   UNL     1       5.255   3.895  16.149  0.00  0.00    +0.000 C 
BRANCH  23  29
ATOM     29  C   UNL     1       6.457   4.726  14.170  0.00  0.00    +0.000 C 
BRANCH  29  30
ATOM     30  C   UNL     1       5.757   3.835  13.137  0.00  0.00    +0.000 C 
BRANCH  30  31
ATOM     31  O   UNL     1       6.682   3.297  12.266  0.00  0.00    +0.000 OA
BRANCH  31  33
ATOM     32  O   UNL     1       5.281   1.917  11.339  0.00  0.00    +0.000 OA
ATOM     33  N   UNL     1       6.416   2.236  11.522  0.00  0.00    +0.000 N 
ATOM     34  O   UNL     1       7.386   1.539  10.964  0.00  0.00    +0.000 OA
ENDBRANCH  31  33
ENDBRANCH  30  31
ENDBRANCH  29  30
ENDBRANCH  23  29
ENDBRANCH  22  26
ENDBRANCH   1  22
TORSDOF 9
ENDMDL
MODEL 4
REMARK VINA RESULT:      -8.1      1.022      1.498
REMARK  Name = 
REMARK  9 active torsions:
REMARK  status: ('A' for Active; 'I' for Inactive)
REMARK    1  A    between atoms: N_2  and  O_4
REMARK    2  A    between atoms: O_4  and  C_5
REMARK    3  A    between atoms: C_5  and  C_6
REMARK    4  A    between atoms: C_6  and  N_7
REMARK    5  A    between atoms: N_10  and  C_11
REMARK    6  A    between atoms: C_11  and  C_12
REMARK    7  A    between atoms: C_14  and  N_15
REMARK    8  A    between atoms: N_15  and  C_16
REMARK    9  A    between atoms: C_29  and  O_30
REMARK                            x       y       z     vdW  Elec       q    Type
REMARK                         _______ _______ _______ _____ _____    ______ ____
ROOT
ATOM      1  C   UNL     1       4.459   4.705  19.603  0.00  0.00    +0.000 A 
ATOM      2  C   UNL     1       3.541   5.728  19.899  0.00  0.00    +0.000 A 
ATOM      3  C   UNL     1       2.318   5.430  20.524  0.00  0.00    +0.000 A 
ATOM      4  C   UNL     1       2.000   4.089  20.796  0.00  0.00    +0.000 A 
ATOM      5  C   UNL     1       2.894   3.070  20.494  0.00  0.00    +0.000 A 
ATOM      6  C   UNL     1       4.129   3.366  19.909  0.00  0.00    +0.000 A 
ENDROOT
BRANCH   3   7
ATOM      7  N   UNL     1       1.411   6.478  20.862  0.00  0.00    +0.000 N 
ATOM      8  H   UNL     1       0.652   6.261  21.523  0.00  0.00    +0.000 HD
BRANCH   7   9
ATOM      9  C   UNL     1       1.417   7.758  20.208  0.00  0.00    +0.000 A 
ATOM     10  C   UNL     1       1.964   7.878  18.911  0.00  0.00    +0.000 A 
ATOM     11  C   UNL     1       1.950   9.097  18.244  0.00  0.00    +0.000 A 
ATOM     12  N   UNL     1       1.398  10.182  18.829  0.00  0.00    +0.000 NA
ATOM     13  C   UNL     1       0.847  10.128  20.068  0.00  0.00    +0.000 A 
ATOM     14  C   UNL     1       0.291  11.287  20.615  0.00  0.00    +0.000 A 
ATOM     15  C   UNL     1      -0.274  11.261  21.890  0.00  0.00    +0.000 A 
ATOM     16 CL   UNL     1      -0.967  12.721  22.569  0.00  0.00    +0.000 Cl
ATOM     17  C   UNL     1      -0.282  10.073  22.626  0.00  0.00    +0.000 A 
ATOM     18  C   UNL     1       0.266   8.903  22.090  0.00  0.00    +0.000 A 
ATOM     19  C   UNL     1       0.835   8.909  20.799  0.00  0.00    +0.000 A 
ENDBRANCH   7   9
ENDBRANCH   3   7
BRANCH   6  20
ATOM     20  O   UNL     1       4.995   2.364  19.644  0.00  0.00    +0.000 OA
ATOM     21  H   UNL     1       5.770   2.195  20.201  0.00  0.00    +0.000 HD
ENDBRANCH   6  20
BRANCH   1  22
ATOM     22  C   UNL     1       5.781   5.057  18.959  0.00  0.00    +0.000 C 
BRANCH  22  26
ATOM     23  N   UNL     1       6.401   5.830  15.404  0.00  0.00    +0.000 NA
ATOM     24  C   UNL     1       5.068   5.481  15.954  0.00  0.00    +0.000 C 
ATOM     25  C   UNL     1       5.083   4.158  16.745  0.00  0.00    +0.000 C 
ATOM     26  N   UNL     1       6.102   4.163  17.818  0.00  0.00    +0.000 NA
ATOM     27  C   UNL     1       7.429   4.462  17.236  0.00  0.00    +0.000 C 
ATOM     28  C   UNL     1       7.428   5.803  16.469  0.00  0.00    +0.000 C 
BRANCH  23  29
ATOM     29  C   UNL     1       6.817   5.068  14.202  0.00  0.00    +0.000 C 
BRANCH  29  30
ATOM     30  C   UNL     1       5.753   4.049  13.779  0.00  0.00    +0.000 C 
BRANCH  30  31
ATOM     31  O   UNL     1       6.227   3.264  12.749  0.00  0.00    +0.000 OA
BRANCH  31  33
ATOM     32  O   UNL     1       4.457   3.331  11.487  0.00  0.00    +0.000 OA
ATOM     33  N   UNL     1       5.425   2.729  11.842  0.00  0.00    +0.000 N 
ATOM     34  O   UNL     1       5.690   1.553  11.312  0.00  0.00    +0.000 OA
ENDBRANCH  31  33
ENDBRANCH  30  31
ENDBRANCH  29  30
ENDBRANCH  23  29
ENDBRANCH  22  26
ENDBRANCH   1  22
TORSDOF 9
ENDMDL
MODEL 5
REMARK VINA RESULT:      -8.0      1.353      1.685
REMARK  Name = 
REMARK  9 active torsions:
REMARK  status: ('A' for Active; 'I' for Inactive)
REMARK    1  A    between atoms: N_2  and  O_4
REMARK    2  A    between atoms: O_4  and  C_5
REMARK    3  A    between atoms: C_5  and  C_6
REMARK    4  A    between atoms: C_6  and  N_7
REMARK    5  A    between atoms: N_10  and  C_11
REMARK    6  A    between atoms: C_11  and  C_12
REMARK    7  A    between atoms: C_14  and  N_15
REMARK    8  A    between atoms: N_15  and  C_16
REMARK    9  A    between atoms: C_29  and  O_30
REMARK                            x       y       z     vdW  Elec       q    Type
REMARK                         _______ _______ _______ _____ _____    ______ ____
ROOT
ATOM      1  C   UNL     1       3.881   4.627  19.458  0.00  0.00    +0.000 A 
ATOM      2  C   UNL     1       3.390   5.785  20.089  0.00  0.00    +0.000 A 
ATOM      3  C   UNL     1       2.073   5.829  20.575  0.00  0.00    +0.000 A 
ATOM      4  C   UNL     1       1.233   4.722  20.369  0.00  0.00    +0.000 A 
ATOM      5  C   UNL     1       1.704   3.580  19.734  0.00  0.00    +0.000 A 
ATOM      6  C   UNL     1       3.026   3.516  19.286  0.00  0.00    +0.000 A 
ENDROOT
BRANCH   3   7
ATOM      7  N   UNL     1       1.597   6.990  21.253  0.00  0.00    +0.000 N 
ATOM      8  H   UNL     1       1.370   6.903  22.253  0.00  0.00    +0.000 HD
BRANCH   7   9
ATOM      9  C   UNL     1       1.274   8.215  20.574  0.00  0.00    +0.000 A 
ATOM     10  C   UNL     1       1.687   8.402  19.236  0.00  0.00    +0.000 A 
ATOM     11  C   UNL     1       1.357   9.563  18.547  0.00  0.00    +0.000 A 
ATOM     12  N   UNL     1       0.623  10.524  19.150  0.00  0.00    +0.000 NA
ATOM     13  C   UNL     1       0.188  10.397  20.429  0.00  0.00    +0.000 A 
ATOM     14  C   UNL     1      -0.569  11.427  20.994  0.00  0.00    +0.000 A 
ATOM     15  C   UNL     1      -1.021  11.326  22.309  0.00  0.00    +0.000 A 
ATOM     16 CL   UNL     1      -1.968  12.625  23.009  0.00  0.00    +0.000 Cl
ATOM     17  C   UNL     1      -0.716  10.193  23.068  0.00  0.00    +0.000 A 
ATOM     18  C   UNL     1       0.037   9.152  22.515  0.00  0.00    +0.000 A 
ATOM     19  C   UNL     1       0.497   9.233  21.184  0.00  0.00    +0.000 A 
ENDBRANCH   7   9
ENDBRANCH   3   7
BRANCH   6  20
ATOM     20  O   UNL     1       3.473   2.389  18.692  0.00  0.00    +0.000 OA
ATOM     21  H   UNL     1       3.694   1.594  19.200  0.00  0.00    +0.000 HD
ENDBRANCH   6  20
BRANCH   1  22
ATOM     22  C   UNL     1       5.313   4.596  18.974  0.00  0.00    +0.000 C 
BRANCH  22  26
ATOM     23  N   UNL     1       6.351   4.034  15.477  0.00  0.00    +0.000 NA
ATOM     24  C   UNL     1       7.298   4.301  16.589  0.00  0.00    +0.000 C 
ATOM     25  C   UNL     1       6.944   5.581  17.372  0.00  0.00    +0.000 C 
ATOM     26  N   UNL     1       5.550   5.560  17.870  0.00  0.00    +0.000 NA
ATOM     27  C   UNL     1       4.625   5.344  16.737  0.00  0.00    +0.000 C 
ATOM     28  C   UNL     1       4.954   4.046  15.967  0.00  0.00    +0.000 C 
BRANCH  23  29
ATOM     29  C   UNL     1       6.529   4.874  14.268  0.00  0.00    +0.000 C 
BRANCH  29  30
ATOM     30  C   UNL     1       6.614   4.024  12.995  0.00  0.00    +0.000 C 
BRANCH  30  31
ATOM     31  O   UNL     1       7.596   4.515  12.159  0.00  0.00    +0.000 OA
BRANCH  31  33
ATOM     32  O   UNL     1       7.860   6.612  11.650  0.00  0.00    +0.000 OA
ATOM     33  N   UNL     1       8.162   5.695  12.352  0.00  0.00    +0.000 N 
ATOM     34  O   UNL     1       9.037   5.877  13.320  0.00  0.00    +0.000 OA
ENDBRANCH  31  33
ENDBRANCH  30  31
ENDBRANCH  29  30
ENDBRANCH  23  29
ENDBRANCH  22  26
ENDBRANCH   1  22
TORSDOF 9
ENDMDL
MODEL 6
REMARK VINA RESULT:      -7.9      3.294      4.657
REMARK  Name = 
REMARK  9 active torsions:
REMARK  status: ('A' for Active; 'I' for Inactive)
REMARK    1  A    between atoms: N_2  and  O_4
REMARK    2  A    between atoms: O_4  and  C_5
REMARK    3  A    between atoms: C_5  and  C_6
REMARK    4  A    between atoms: C_6  and  N_7
REMARK    5  A    between atoms: N_10  and  C_11
REMARK    6  A    between atoms: C_11  and  C_12
REMARK    7  A    between atoms: C_14  and  N_15
REMARK    8  A    between atoms: N_15  and  C_16
REMARK    9  A    between atoms: C_29  and  O_30
REMARK                            x       y       z     vdW  Elec       q    Type
REMARK                         _______ _______ _______ _____ _____    ______ ____
ROOT
ATOM      1  C   UNL     1       2.023   6.715  18.924  0.00  0.00    +0.000 A 
ATOM      2  C   UNL     1       1.725   7.900  18.226  0.00  0.00    +0.000 A 
ATOM      3  C   UNL     1       1.375   9.069  18.921  0.00  0.00    +0.000 A 
ATOM      4  C   UNL     1       1.270   9.024  20.323  0.00  0.00    +0.000 A 
ATOM      5  C   UNL     1       1.548   7.855  21.019  0.00  0.00    +0.000 A 
ATOM      6  C   UNL     1       1.937   6.700  20.334  0.00  0.00    +0.000 A 
ENDROOT
BRANCH   3   7
ATOM      7  N   UNL     1       1.118  10.278  18.209  0.00  0.00    +0.000 N 
ATOM      8  H   UNL     1       1.710  10.491  17.394  0.00  0.00    +0.000 HD
BRANCH   7   9
ATOM      9  C   UNL     1       0.188  11.273  18.669  0.00  0.00    +0.000 A 
ATOM     10  C   UNL     1       0.669  12.439  19.304  0.00  0.00    +0.000 A 
ATOM     11  C   UNL     1      -0.208  13.431  19.726  0.00  0.00    +0.000 A 
ATOM     12  N   UNL     1      -1.537  13.294  19.520  0.00  0.00    +0.000 NA
ATOM     13  C   UNL     1      -2.058  12.201  18.906  0.00  0.00    +0.000 A 
ATOM     14  C   UNL     1      -3.441  12.122  18.722  0.00  0.00    +0.000 A 
ATOM     15  C   UNL     1      -4.004  11.006  18.102  0.00  0.00    +0.000 A 
ATOM     16 CL   UNL     1      -5.740  10.915  17.878  0.00  0.00    +0.000 Cl
ATOM     17  C   UNL     1      -3.184   9.962  17.664  0.00  0.00    +0.000 A 
ATOM     18  C   UNL     1      -1.798  10.030  17.836  0.00  0.00    +0.000 A 
ATOM     19  C   UNL     1      -1.210  11.153  18.455  0.00  0.00    +0.000 A 
ENDBRANCH   7   9
ENDBRANCH   3   7
BRANCH   6  20
ATOM     20  O   UNL     1       2.225   5.580  21.030  0.00  0.00    +0.000 OA
ATOM     21  H   UNL     1       3.135   5.268  21.145  0.00  0.00    +0.000 HD
ENDBRANCH   6  20
BRANCH   1  22
ATOM     22  C   UNL     1       2.427   5.481  18.151  0.00  0.00    +0.000 C 
BRANCH  22  26
ATOM     23  N   UNL     1       5.238   4.572  15.938  0.00  0.00    +0.000 NA
ATOM     24  C   UNL     1       4.266   3.593  16.485  0.00  0.00    +0.000 C 
ATOM     25  C   UNL     1       4.141   3.679  18.019  0.00  0.00    +0.000 C 
ATOM     26  N   UNL     1       3.811   5.049  18.474  0.00  0.00    +0.000 NA
ATOM     27  C   UNL     1       4.822   5.997  17.959  0.00  0.00    +0.000 C 
ATOM     28  C   UNL     1       4.930   5.938  16.419  0.00  0.00    +0.000 C 
BRANCH  23  29
ATOM     29  C   UNL     1       6.668   4.223  16.116  0.00  0.00    +0.000 C 
BRANCH  29  30
ATOM     30  C   UNL     1       7.465   5.385  16.722  0.00  0.00    +0.000 C 
BRANCH  30  31
ATOM     31  O   UNL     1       8.000   5.014  17.937  0.00  0.00    +0.000 OA
BRANCH  31  33
ATOM     32  O   UNL     1       8.266   6.971  18.846  0.00  0.00    +0.000 OA
ATOM     33  N   UNL     1       7.991   5.818  18.988  0.00  0.00    +0.000 N 
ATOM     34  O   UNL     1       7.665   5.369  20.183  0.00  0.00    +0.000 OA
ENDBRANCH  31  33
ENDBRANCH  30  31
ENDBRANCH  29  30
ENDBRANCH  23  29
ENDBRANCH  22  26
ENDBRANCH   1  22
TORSDOF 9
ENDMDL
MODEL 7
REMARK VINA RESULT:      -7.9      3.454      5.620
REMARK  Name = 
REMARK  9 active torsions:
REMARK  status: ('A' for Active; 'I' for Inactive)
REMARK    1  A    between atoms: N_2  and  O_4
REMARK    2  A    between atoms: O_4  and  C_5
REMARK    3  A    between atoms: C_5  and  C_6
REMARK    4  A    between atoms: C_6  and  N_7
REMARK    5  A    between atoms: N_10  and  C_11
REMARK    6  A    between atoms: C_11  and  C_12
REMARK    7  A    between atoms: C_14  and  N_15
REMARK    8  A    between atoms: N_15  and  C_16
REMARK    9  A    between atoms: C_29  and  O_30
REMARK                            x       y       z     vdW  Elec       q    Type
REMARK                         _______ _______ _______ _____ _____    ______ ____
ROOT
ATOM      1  C   UNL     1       1.591   8.672  18.969  0.00  0.00    +0.000 A 
ATOM      2  C   UNL     1       0.882   9.629  18.220  0.00  0.00    +0.000 A 
ATOM      3  C   UNL     1       0.023  10.540  18.856  0.00  0.00    +0.000 A 
ATOM      4  C   UNL     1      -0.164  10.446  20.246  0.00  0.00    +0.000 A 
ATOM      5  C   UNL     1       0.520   9.494  20.992  0.00  0.00    +0.000 A 
ATOM      6  C   UNL     1       1.407   8.612  20.368  0.00  0.00    +0.000 A 
ENDROOT
BRANCH   3   7
ATOM      7  N   UNL     1      -0.657  11.536  18.095  0.00  0.00    +0.000 N 
ATOM      8  H   UNL     1      -0.183  12.439  17.951  0.00  0.00    +0.000 HD
BRANCH   7   9
ATOM      9  C   UNL     1      -2.020  11.394  17.662  0.00  0.00    +0.000 A 
ATOM     10  C   UNL     1      -2.299  10.784  16.418  0.00  0.00    +0.000 A 
ATOM     11  C   UNL     1      -3.609  10.604  15.993  0.00  0.00    +0.000 A 
ATOM     12  N   UNL     1      -4.636  11.001  16.777  0.00  0.00    +0.000 NA
ATOM     13  C   UNL     1      -4.433  11.583  17.986  0.00  0.00    +0.000 A 
ATOM     14  C   UNL     1      -5.539  11.970  18.748  0.00  0.00    +0.000 A 
ATOM     15  C   UNL     1      -5.358  12.578  19.990  0.00  0.00    +0.000 A 
ATOM     16 CL   UNL     1      -6.752  13.062  20.937  0.00  0.00    +0.000 Cl
ATOM     17  C   UNL     1      -4.067  12.805  20.475  0.00  0.00    +0.000 A 
ATOM     18  C   UNL     1      -2.951  12.419  19.727  0.00  0.00    +0.000 A 
ATOM     19  C   UNL     1      -3.113  11.796  18.471  0.00  0.00    +0.000 A 
ENDBRANCH   7   9
ENDBRANCH   3   7
BRANCH   6  20
ATOM     20  O   UNL     1       2.080   7.710  21.113  0.00  0.00    +0.000 OA
ATOM     21  H   UNL     1       1.967   7.651  22.074  0.00  0.00    +0.000 HD
ENDBRANCH   6  20
BRANCH   1  22
ATOM     22  C   UNL     1       2.533   7.725  18.262  0.00  0.00    +0.000 C 
BRANCH  22  26
ATOM     23  N   UNL     1       3.615   4.337  17.275  0.00  0.00    +0.000 NA
ATOM     24  C   UNL     1       2.198   4.726  17.479  0.00  0.00    +0.000 C 
ATOM     25  C   UNL     1       1.955   5.376  18.855  0.00  0.00    +0.000 C 
ATOM     26  N   UNL     1       2.850   6.533  19.088  0.00  0.00    +0.000 NA
ATOM     27  C   UNL     1       4.257   6.107  18.930  0.00  0.00    +0.000 C 
ATOM     28  C   UNL     1       4.514   5.483  17.541  0.00  0.00    +0.000 C 
BRANCH  23  29
ATOM     29  C   UNL     1       4.050   3.107  17.980  0.00  0.00    +0.000 C 
BRANCH  29  30
ATOM     30  C   UNL     1       3.011   1.986  17.858  0.00  0.00    +0.000 C 
BRANCH  30  31
ATOM     31  O   UNL     1       2.540   1.635  19.106  0.00  0.00    +0.000 OA
BRANCH  31  33
ATOM     32  O   UNL     1       1.291   2.421  20.703  0.00  0.00    +0.000 OA
ATOM     33  N   UNL     1       1.376   2.062  19.568  0.00  0.00    +0.000 N 
ATOM     34  O   UNL     1       0.316   2.116  18.788  0.00  0.00    +0.000 OA
ENDBRANCH  31  33
ENDBRANCH  30  31
ENDBRANCH  29  30
ENDBRANCH  23  29
ENDBRANCH  22  26
ENDBRANCH   1  22
TORSDOF 9
ENDMDL
MODEL 8
REMARK VINA RESULT:      -7.8      2.595      3.726
REMARK  Name = 
REMARK  9 active torsions:
REMARK  status: ('A' for Active; 'I' for Inactive)
REMARK    1  A    between atoms: N_2  and  O_4
REMARK    2  A    between atoms: O_4  and  C_5
REMARK    3  A    between atoms: C_5  and  C_6
REMARK    4  A    between atoms: C_6  and  N_7
REMARK    5  A    between atoms: N_10  and  C_11
REMARK    6  A    between atoms: C_11  and  C_12
REMARK    7  A    between atoms: C_14  and  N_15
REMARK    8  A    between atoms: N_15  and  C_16
REMARK    9  A    between atoms: C_29  and  O_30
REMARK                            x       y       z     vdW  Elec       q    Type
REMARK                         _______ _______ _______ _____ _____    ______ ____
ROOT
ATOM      1  C   UNL     1       2.260   6.727  19.038  0.00  0.00    +0.000 A 
ATOM      2  C   UNL     1       1.940   7.888  18.311  0.00  0.00    +0.000 A 
ATOM      3  C   UNL     1       1.408   9.013  18.960  0.00  0.00    +0.000 A 
ATOM      4  C   UNL     1       1.144   8.944  20.339  0.00  0.00    +0.000 A 
ATOM      5  C   UNL     1       1.442   7.797  21.064  0.00  0.00    +0.000 A 
ATOM      6  C   UNL     1       2.010   6.689  20.428  0.00  0.00    +0.000 A 
ENDROOT
BRANCH   3   7
ATOM      7  N   UNL     1       1.128  10.202  18.223  0.00  0.00    +0.000 N 
ATOM      8  H   UNL     1       1.700  10.396  17.389  0.00  0.00    +0.000 HD
BRANCH   7   9
ATOM      9  C   UNL     1       0.203  11.204  18.677  0.00  0.00    +0.000 A 
ATOM     10  C   UNL     1       0.689  12.362  19.325  0.00  0.00    +0.000 A 
ATOM     11  C   UNL     1      -0.182  13.360  19.743  0.00  0.00    +0.000 A 
ATOM     12  N   UNL     1      -1.509  13.238  19.521  0.00  0.00    +0.000 NA
ATOM     13  C   UNL     1      -2.035  12.155  18.894  0.00  0.00    +0.000 A 
ATOM     14  C   UNL     1      -3.417  12.091  18.694  0.00  0.00    +0.000 A 
ATOM     15  C   UNL     1      -3.984  10.986  18.061  0.00  0.00    +0.000 A 
ATOM     16 CL   UNL     1      -5.719  10.914  17.817  0.00  0.00    +0.000 Cl
ATOM     17  C   UNL     1      -3.171   9.936  17.627  0.00  0.00    +0.000 A 
ATOM     18  C   UNL     1      -1.786   9.987  17.816  0.00  0.00    +0.000 A 
ATOM     19  C   UNL     1      -1.193  11.101  18.448  0.00  0.00    +0.000 A 
ENDBRANCH   7   9
ENDBRANCH   3   7
BRANCH   6  20
ATOM     20  O   UNL     1       2.315   5.592  21.153  0.00  0.00    +0.000 OA
ATOM     21  H   UNL     1       2.472   4.730  20.739  0.00  0.00    +0.000 HD
ENDBRANCH   6  20
BRANCH   1  22
ATOM     22  C   UNL     1       2.862   5.542  18.318  0.00  0.00    +0.000 C 
BRANCH  22  26
ATOM     23  N   UNL     1       6.336   4.321  18.073  0.00  0.00    +0.000 NA
ATOM     24  C   UNL     1       5.923   5.481  18.902  0.00  0.00    +0.000 C 
ATOM     25  C   UNL     1       5.135   6.532  18.096  0.00  0.00    +0.000 C 
ATOM     26  N   UNL     1       3.965   5.942  17.409  0.00  0.00    +0.000 NA
ATOM     27  C   UNL     1       4.409   4.823  16.550  0.00  0.00    +0.000 C 
ATOM     28  C   UNL     1       5.172   3.750  17.358  0.00  0.00    +0.000 C 
BRANCH  23  29
ATOM     29  C   UNL     1       7.489   4.556  17.171  0.00  0.00    +0.000 C 
BRANCH  29  30
ATOM     30  C   UNL     1       7.135   4.264  15.708  0.00  0.00    +0.000 C 
BRANCH  30  31
ATOM     31  O   UNL     1       7.690   5.221  14.884  0.00  0.00    +0.000 OA
BRANCH  31  33
ATOM     32  O   UNL     1       8.259   5.892  12.896  0.00  0.00    +0.000 OA
ATOM     33  N   UNL     1       7.605   5.151  13.566  0.00  0.00    +0.000 N 
ATOM     34  O   UNL     1       6.824   4.265  12.982  0.00  0.00    +0.000 OA
ENDBRANCH  31  33
ENDBRANCH  30  31
ENDBRANCH  29  30
ENDBRANCH  23  29
ENDBRANCH  22  26
ENDBRANCH   1  22
TORSDOF 9
ENDMDL
MODEL 9
REMARK VINA RESULT:      -7.8      3.007      4.081
REMARK  Name = 
REMARK  9 active torsions:
REMARK  status: ('A' for Active; 'I' for Inactive)
REMARK    1  A    between atoms: N_2  and  O_4
REMARK    2  A    between atoms: O_4  and  C_5
REMARK    3  A    between atoms: C_5  and  C_6
REMARK    4  A    between atoms: C_6  and  N_7
REMARK    5  A    between atoms: N_10  and  C_11
REMARK    6  A    between atoms: C_11  and  C_12
REMARK    7  A    between atoms: C_14  and  N_15
REMARK    8  A    between atoms: N_15  and  C_16
REMARK    9  A    between atoms: C_29  and  O_30
REMARK                            x       y       z     vdW  Elec       q    Type
REMARK                         _______ _______ _______ _____ _____    ______ ____
ROOT
ATOM      1  C   UNL     1       2.611   4.111  18.327  0.00  0.00    +0.000 A 
ATOM      2  C   UNL     1       2.523   5.328  19.028  0.00  0.00    +0.000 A 
ATOM      3  C   UNL     1       1.891   5.387  20.281  0.00  0.00    +0.000 A 
ATOM      4  C   UNL     1       1.295   4.224  20.799  0.00  0.00    +0.000 A 
ATOM      5  C   UNL     1       1.363   3.021  20.108  0.00  0.00    +0.000 A 
ATOM      6  C   UNL     1       2.027   2.949  18.880  0.00  0.00    +0.000 A 
ENDROOT
BRANCH   3   7
ATOM      7  N   UNL     1       1.845   6.615  21.005  0.00  0.00    +0.000 N 
ATOM      8  H   UNL     1       1.900   6.568  22.033  0.00  0.00    +0.000 HD
BRANCH   7   9
ATOM      9  C   UNL     1       1.570   7.880  20.382  0.00  0.00    +0.000 A 
ATOM     10  C   UNL     1       1.978   8.106  19.049  0.00  0.00    +0.000 A 
ATOM     11  C   UNL     1       1.693   9.309  18.413  0.00  0.00    +0.000 A 
ATOM     12  N   UNL     1       1.007  10.273  19.065  0.00  0.00    +0.000 NA
ATOM     13  C   UNL     1       0.579  10.111  20.343  0.00  0.00    +0.000 A 
ATOM     14  C   UNL     1      -0.127  11.148  20.959  0.00  0.00    +0.000 A 
ATOM     15  C   UNL     1      -0.571  11.011  22.274  0.00  0.00    +0.000 A 
ATOM     16 CL   UNL     1      -1.453  12.318  23.039  0.00  0.00    +0.000 Cl
ATOM     17  C   UNL     1      -0.308   9.834  22.981  0.00  0.00    +0.000 A 
ATOM     18  C   UNL     1       0.393   8.786  22.376  0.00  0.00    +0.000 A 
ATOM     19  C   UNL     1       0.844   8.903  21.044  0.00  0.00    +0.000 A 
ENDBRANCH   7   9
ENDBRANCH   3   7
BRANCH   6  20
ATOM     20  O   UNL     1       2.104   1.766  18.234  0.00  0.00    +0.000 OA
ATOM     21  H   UNL     1       2.179   1.712  17.270  0.00  0.00    +0.000 HD
ENDBRANCH   6  20
BRANCH   1  22
ATOM     22  C   UNL     1       3.325   4.071  16.996  0.00  0.00    +0.000 C 
BRANCH  22  26
ATOM     23  N   UNL     1       6.106   6.492  16.829  0.00  0.00    +0.000 NA
ATOM     24  C   UNL     1       5.617   5.712  15.665  0.00  0.00    +0.000 C 
ATOM     25  C   UNL     1       5.578   4.196  15.943  0.00  0.00    +0.000 C 
ATOM     26  N   UNL     1       4.788   3.875  17.153  0.00  0.00    +0.000 NA
ATOM     27  C   UNL     1       5.328   4.624  18.308  0.00  0.00    +0.000 C 
ATOM     28  C   UNL     1       5.340   6.147  18.047  0.00  0.00    +0.000 C 
BRANCH  23  29
ATOM     29  C   UNL     1       7.571   6.454  17.056  0.00  0.00    +0.000 C 
BRANCH  29  30
ATOM     30  C   UNL     1       7.988   7.356  18.223  0.00  0.00    +0.000 C 
BRANCH  30  31
ATOM     31  O   UNL     1       7.860   8.683  17.869  0.00  0.00    +0.000 OA
BRANCH  31  33
ATOM     32  O   UNL     1       9.104  10.438  17.552  0.00  0.00    +0.000 OA
ATOM     33  N   UNL     1       8.689   9.615  18.310  0.00  0.00    +0.000 N 
ATOM     34  O   UNL     1       9.048   9.658  19.577  0.00  0.00    +0.000 OA
ENDBRANCH  31  33
ENDBRANCH  30  31
ENDBRANCH  29  30
ENDBRANCH  23  29
ENDBRANCH  22  26
ENDBRANCH   1  22
TORSDOF 9
ENDMDL
