MODEL 1
REMARK VINA RESULT:      -7.0      0.000      0.000
REMARK  Name = 
REMARK  8 active torsions:
REMARK  status: ('A' for Active; 'I' for Inactive)
REMARK    1  A    between atoms: C_2  and  C_3
REMARK    2  A    between atoms: C_9  and  C_11
REMARK    3  A    between atoms: C_11  and  N_12
REMARK    4  A    between atoms: C_11  and  C_13
REMARK    5  A    between atoms: C_13  and  C_14
REMARK    6  A    between atoms: C_14  and  N_15
REMARK    7  A    between atoms: N_15  and  C_16
REMARK    8  A    between atoms: C_16  and  C_17
REMARK                            x       y       z     vdW  Elec       q    Type
REMARK                         _______ _______ _______ _____ _____    ______ ____
ROOT
ATOM      1  C   UNL     1       4.527   5.848  17.699  0.00  0.00    +0.000 C 
ENDROOT
BRANCH   1   8
ATOM      2  C   UNL     1       3.657   3.113  18.682  0.00  0.00    +0.000 C 
ATOM      3  C   UNL     1       2.488   2.268  18.150  0.00  0.00    +0.000 C 
ATOM      4  C   UNL     1       1.426   2.030  19.230  0.00  0.00    +0.000 C 
ATOM      5  C   UNL     1       0.961   3.351  19.838  0.00  0.00    +0.000 C 
ATOM      6  C   UNL     1       2.133   4.218  20.304  0.00  0.00    +0.000 C 
ATOM      7  N   UNL     1       3.132   4.384  19.239  0.00  0.00    +0.000 N 
ATOM      8  C   UNL     1       3.492   5.667  18.844  0.00  0.00    +0.000 C 
ATOM      9  O   UNL     1       2.991   6.673  19.376  0.00  0.00    +0.000 OA
BRANCH   2  11
ATOM     10  N   UNL     1       5.014   1.666  20.631  0.00  0.00    +0.000 NA
ATOM     11  C   UNL     1       4.399   2.322  19.747  0.00  0.00    +0.000 C 
ENDBRANCH   2  11
ENDBRANCH   1   8
BRANCH   1  12
ATOM     12  N   UNL     1       4.153   6.991  16.835  0.00  0.00    +0.000 NA
ATOM     13  H   UNL     1       3.130   7.022  16.789  0.00  0.00    +0.000 HD
ATOM     14  H   UNL     1       4.445   6.813  15.872  0.00  0.00    +0.000 HD
ENDBRANCH   1  12
BRANCH   1  15
ATOM     15  C   UNL     1       5.928   6.092  18.275  0.00  0.00    +0.000 C 
BRANCH  15  16
ATOM     16  C   UNL     1       6.803   4.837  18.180  0.00  0.00    +0.000 C 
BRANCH  16  17
ATOM     17  N   UNL     1       6.708   4.230  16.854  0.00  0.00    +0.000 NA
ATOM     18  H   UNL     1       5.742   3.998  16.629  0.00  0.00    +0.000 HD
BRANCH  17  19
ATOM     19  C   UNL     1       7.229   5.151  15.838  0.00  0.00    +0.000 C 
BRANCH  19  20
ATOM     20  C   UNL     1       6.909   4.677  14.441  0.00  0.00    +0.000 A 
ATOM     21  C   UNL     1       5.799   3.852  14.207  0.00  0.00    +0.000 A 
ATOM     22  C   UNL     1       5.517   3.390  12.920  0.00  0.00    +0.000 A 
ATOM     23  C   UNL     1       6.333   3.760  11.852  0.00  0.00    +0.000 A 
ATOM     24  C   UNL     1       7.423   4.600  12.068  0.00  0.00    +0.000 A 
ATOM     25  C   UNL     1       7.710   5.058  13.355  0.00  0.00    +0.000 A 
ENDBRANCH  19  20
ENDBRANCH  17  19
ENDBRANCH  16  17
ENDBRANCH  15  16
ENDBRANCH   1  15
TORSDOF 8
ENDMDL
MODEL 2
REMARK VINA RESULT:      -6.9      4.160      6.125
REMARK  Name = 
REMARK  8 active torsions:
REMARK  status: ('A' for Active; 'I' for Inactive)
REMARK    1  A    between atoms: C_2  and  C_3
REMARK    2  A    between atoms: C_9  and  C_11
REMARK    3  A    between atoms: C_11  and  N_12
REMARK    4  A    between atoms: C_11  and  C_13
REMARK    5  A    between atoms: C_13  and  C_14
REMARK    6  A    between atoms: C_14  and  N_15
REMARK    7  A    between atoms: N_15  and  C_16
REMARK    8  A    between atoms: C_16  and  C_17
REMARK                            x       y       z     vdW  Elec       q    Type
REMARK                         _______ _______ _______ _____ _____    ______ ____
ROOT
ATOM      1  C   UNL     1       6.735   5.213  17.800  0.00  0.00    +0.000 C 
ENDROOT
BRANCH   1   8
ATOM      2  C   UNL     1       4.340   4.164  19.338  0.00  0.00    +0.000 C 
ATOM      3  C   UNL     1       4.129   2.732  19.856  0.00  0.00    +0.000 C 
ATOM      4  C   UNL     1       2.903   2.073  19.212  0.00  0.00    +0.000 C 
ATOM      5  C   UNL     1       2.987   2.136  17.689  0.00  0.00    +0.000 C 
ATOM      6  C   UNL     1       3.265   3.553  17.182  0.00  0.00    +0.000 C 
ATOM      7  N   UNL     1       4.430   4.143  17.858  0.00  0.00    +0.000 N 
ATOM      8  C   UNL     1       5.489   4.614  17.090  0.00  0.00    +0.000 C 
ATOM      9  O   UNL     1       5.468   4.550  15.849  0.00  0.00    +0.000 OA
BRANCH   2  11
ATOM     10  N   UNL     1       2.221   5.758  20.177  0.00  0.00    +0.000 NA
ATOM     11  C   UNL     1       3.182   5.035  19.797  0.00  0.00    +0.000 C 
ENDBRANCH   2  11
ENDBRANCH   1   8
BRANCH   1  12
ATOM     12  N   UNL     1       7.781   4.179  17.977  0.00  0.00    +0.000 NA
ATOM     13  H   UNL     1       7.595   3.699  18.862  0.00  0.00    +0.000 HD
ATOM     14  H   UNL     1       8.691   4.622  18.114  0.00  0.00    +0.000 HD
ENDBRANCH   1  12
BRANCH   1  15
ATOM     15  C   UNL     1       7.312   6.376  16.982  0.00  0.00    +0.000 C 
BRANCH  15  16
ATOM     16  C   UNL     1       6.989   7.730  17.623  0.00  0.00    +0.000 C 
BRANCH  16  17
ATOM     17  N   UNL     1       8.196   8.361  18.152  0.00  0.00    +0.000 NA
ATOM     18  H   UNL     1       9.029   7.851  17.862  0.00  0.00    +0.000 HD
BRANCH  17  19
ATOM     19  C   UNL     1       8.291   9.747  17.680  0.00  0.00    +0.000 C 
BRANCH  19  20
ATOM     20  C   UNL     1       9.320  10.530  18.460  0.00  0.00    +0.000 A 
ATOM     21  C   UNL     1      10.331  11.237  17.793  0.00  0.00    +0.000 A 
ATOM     22  C   UNL     1      11.299  11.939  18.514  0.00  0.00    +0.000 A 
ATOM     23  C   UNL     1      11.256  11.956  19.906  0.00  0.00    +0.000 A 
ATOM     24  C   UNL     1      10.241  11.279  20.580  0.00  0.00    +0.000 A 
ATOM     25  C   UNL     1       9.276  10.571  19.861  0.00  0.00    +0.000 A 
ENDBRANCH  19  20
ENDBRANCH  17  19
ENDBRANCH  16  17
ENDBRANCH  15  16
ENDBRANCH   1  15
TORSDOF 8
ENDMDL
MODEL 3
REMARK VINA RESULT:      -6.9      1.747      2.536
REMARK  Name = 
REMARK  8 active torsions:
REMARK  status: ('A' for Active; 'I' for Inactive)
REMARK    1  A    between atoms: C_2  and  C_3
REMARK    2  A    between atoms: C_9  and  C_11
REMARK    3  A    between atoms: C_11  and  N_12
REMARK    4  A    between atoms: C_11  and  C_13
REMARK    5  A    between atoms: C_13  and  C_14
REMARK    6  A    between atoms: C_14  and  N_15
REMARK    7  A    between atoms: N_15  and  C_16
REMARK    8  A    between atoms: C_16  and  C_17
REMARK                            x       y       z     vdW  Elec       q    Type
REMARK                         _______ _______ _______ _____ _____    ______ ____
ROOT
ATOM      1  C   UNL     1       5.527   5.423  19.230  0.00  0.00    +0.000 C 
ENDROOT
BRANCH   1   8
ATOM      2  C   UNL     1       2.537   4.915  19.271  0.00  0.00    +0.000 C 
ATOM      3  C   UNL     1       1.605   4.972  20.494  0.00  0.00    +0.000 C 
ATOM      4  C   UNL     1       0.959   3.610  20.775  0.00  0.00    +0.000 C 
ATOM      5  C   UNL     1       2.019   2.517  20.899  0.00  0.00    +0.000 C 
ATOM      6  C   UNL     1       2.985   2.511  19.712  0.00  0.00    +0.000 C 
ATOM      7  N   UNL     1       3.547   3.848  19.471  0.00  0.00    +0.000 N 
ATOM      8  C   UNL     1       4.928   4.007  19.456  0.00  0.00    +0.000 C 
ATOM      9  O   UNL     1       5.693   3.044  19.636  0.00  0.00    +0.000 OA
BRANCH   2  11
ATOM     10  N   UNL     1       1.019   4.425  16.993  0.00  0.00    +0.000 NA
ATOM     11  C   UNL     1       1.707   4.647  18.026  0.00  0.00    +0.000 C 
ENDBRANCH   2  11
ENDBRANCH   1   8
BRANCH   1  12
ATOM     12  N   UNL     1       6.907   5.496  19.764  0.00  0.00    +0.000 NA
ATOM     13  H   UNL     1       7.334   6.353  19.401  0.00  0.00    +0.000 HD
ATOM     14  H   UNL     1       7.474   4.743  19.369  0.00  0.00    +0.000 HD
ENDBRANCH   1  12
BRANCH   1  15
ATOM     15  C   UNL     1       5.547   5.766  17.736  0.00  0.00    +0.000 C 
BRANCH  15  16
ATOM     16  C   UNL     1       6.868   6.429  17.327  0.00  0.00    +0.000 C 
BRANCH  16  17
ATOM     17  N   UNL     1       7.384   5.850  16.088  0.00  0.00    +0.000 NA
ATOM     18  H   UNL     1       8.341   5.524  16.211  0.00  0.00    +0.000 HD
BRANCH  17  19
ATOM     19  C   UNL     1       6.543   4.724  15.668  0.00  0.00    +0.000 C 
BRANCH  19  20
ATOM     20  C   UNL     1       6.660   4.466  14.184  0.00  0.00    +0.000 A 
ATOM     21  C   UNL     1       5.851   3.503  13.564  0.00  0.00    +0.000 A 
ATOM     22  C   UNL     1       5.977   3.244  12.198  0.00  0.00    +0.000 A 
ATOM     23  C   UNL     1       6.901   3.956  11.436  0.00  0.00    +0.000 A 
ATOM     24  C   UNL     1       7.693   4.934  12.036  0.00  0.00    +0.000 A 
ATOM     25  C   UNL     1       7.572   5.189  13.403  0.00  0.00    +0.000 A 
ENDBRANCH  19  20
ENDBRANCH  17  19
ENDBRANCH  16  17
ENDBRANCH  15  16
ENDBRANCH   1  15
TORSDOF 8
ENDMDL
MODEL 4
REMARK VINA RESULT:      -6.9      1.425      1.713
REMARK  Name = 
REMARK  8 active torsions:
REMARK  status: ('A' for Active; 'I' for Inactive)
REMARK    1  A    between atoms: C_2  and  C_3
REMARK    2  A    between atoms: C_9  and  C_11
REMARK    3  A    between atoms: C_11  and  N_12
REMARK    4  A    between atoms: C_11  and  C_13
REMARK    5  A    between atoms: C_13  and  C_14
REMARK    6  A    between atoms: C_14  and  N_15
REMARK    7  A    between atoms: N_15  and  C_16
REMARK    8  A    between atoms: C_16  and  C_17
REMARK                            x       y       z     vdW  Elec       q    Type
REMARK                         _______ _______ _______ _____ _____    ______ ____
ROOT
ATOM      1  C   UNL     1       5.740   4.921  19.202  0.00  0.00    +0.000 C 
ENDROOT
BRANCH   1   8
ATOM      2  C   UNL     1       3.407   3.081  19.812  0.00  0.00    +0.000 C 
ATOM      3  C   UNL     1       2.798   2.019  18.881  0.00  0.00    +0.000 C 
ATOM      4  C   UNL     1       1.334   2.333  18.549  0.00  0.00    +0.000 C 
ATOM      5  C   UNL     1       1.191   3.748  17.993  0.00  0.00    +0.000 C 
ATOM      6  C   UNL     1       1.859   4.793  18.890  0.00  0.00    +0.000 C 
ATOM      7  N   UNL     1       3.248   4.422  19.200  0.00  0.00    +0.000 N 
ATOM      8  C   UNL     1       4.268   5.319  18.903  0.00  0.00    +0.000 C 
ATOM      9  O   UNL     1       4.028   6.424  18.387  0.00  0.00    +0.000 OA
BRANCH   2  11
ATOM     10  N   UNL     1       2.134   2.963  22.282  0.00  0.00    +0.000 NA
ATOM     11  C   UNL     1       2.711   3.016  21.162  0.00  0.00    +0.000 C 
ENDBRANCH   2  11
ENDBRANCH   1   8
BRANCH   1  12
ATOM     12  N   UNL     1       6.068   3.624  18.566  0.00  0.00    +0.000 NA
ATOM     13  H   UNL     1       5.218   3.278  18.112  0.00  0.00    +0.000 HD
ATOM     14  H   UNL     1       6.276   2.926  19.282  0.00  0.00    +0.000 HD
ENDBRANCH   1  12
BRANCH   1  15
ATOM     15  C   UNL     1       6.703   5.995  18.679  0.00  0.00    +0.000 C 
BRANCH  15  16
ATOM     16  C   UNL     1       7.277   5.618  17.308  0.00  0.00    +0.000 C 
BRANCH  16  17
ATOM     17  N   UNL     1       6.507   6.235  16.230  0.00  0.00    +0.000 NA
ATOM     18  H   UNL     1       7.124   6.597  15.505  0.00  0.00    +0.000 HD
BRANCH  17  19
ATOM     19  C   UNL     1       5.592   5.254  15.637  0.00  0.00    +0.000 C 
BRANCH  19  20
ATOM     20  C   UNL     1       6.095   4.763  14.300  0.00  0.00    +0.000 A 
ATOM     21  C   UNL     1       5.380   3.790  13.586  0.00  0.00    +0.000 A 
ATOM     22  C   UNL     1       5.857   3.314  12.363  0.00  0.00    +0.000 A 
ATOM     23  C   UNL     1       7.044   3.818  11.835  0.00  0.00    +0.000 A 
ATOM     24  C   UNL     1       7.750   4.804  12.522  0.00  0.00    +0.000 A 
ATOM     25  C   UNL     1       7.277   5.276  13.748  0.00  0.00    +0.000 A 
ENDBRANCH  19  20
ENDBRANCH  17  19
ENDBRANCH  16  17
ENDBRANCH  15  16
ENDBRANCH   1  15
TORSDOF 8
ENDMDL
MODEL 5
REMARK VINA RESULT:      -6.8      3.956      5.803
REMARK  Name = 
REMARK  8 active torsions:
REMARK  status: ('A' for Active; 'I' for Inactive)
REMARK    1  A    between atoms: C_2  and  C_3
REMARK    2  A    between atoms: C_9  and  C_11
REMARK    3  A    between atoms: C_11  and  N_12
REMARK    4  A    between atoms: C_11  and  C_13
REMARK    5  A    between atoms: C_13  and  C_14
REMARK    6  A    between atoms: C_14  and  N_15
REMARK    7  A    between atoms: N_15  and  C_16
REMARK    8  A    between atoms: C_16  and  C_17
REMARK                            x       y       z     vdW  Elec       q    Type
REMARK                         _______ _______ _______ _____ _____    ______ ____
ROOT
ATOM      1  C   UNL     1       6.587   4.709  18.454  0.00  0.00    +0.000 C 
ENDROOT
BRANCH   1   8
ATOM      2  C   UNL     1       4.211   2.922  19.052  0.00  0.00    +0.000 C 
ATOM      3  C   UNL     1       3.486   1.987  18.070  0.00  0.00    +0.000 C 
ATOM      4  C   UNL     1       2.021   2.397  17.877  0.00  0.00    +0.000 C 
ATOM      5  C   UNL     1       1.912   3.865  17.473  0.00  0.00    +0.000 C 
ATOM      6  C   UNL     1       2.693   4.784  18.416  0.00  0.00    +0.000 C 
ATOM      7  N   UNL     1       4.079   4.324  18.586  0.00  0.00    +0.000 N 
ATOM      8  C   UNL     1       5.120   5.200  18.303  0.00  0.00    +0.000 C 
ATOM      9  O   UNL     1       4.903   6.361  17.916  0.00  0.00    +0.000 OA
BRANCH   2  11
ATOM     10  N   UNL     1       3.105   2.614  21.586  0.00  0.00    +0.000 NA
ATOM     11  C   UNL     1       3.606   2.754  20.437  0.00  0.00    +0.000 C 
ENDBRANCH   2  11
ENDBRANCH   1   8
BRANCH   1  12
ATOM     12  N   UNL     1       7.154   4.350  17.133  0.00  0.00    +0.000 NA
ATOM     13  H   UNL     1       6.630   3.544  16.781  0.00  0.00    +0.000 HD
ATOM     14  H   UNL     1       8.109   4.003  17.245  0.00  0.00    +0.000 HD
ENDBRANCH   1  12
BRANCH   1  15
ATOM     15  C   UNL     1       7.455   5.801  19.092  0.00  0.00    +0.000 C 
BRANCH  15  16
ATOM     16  C   UNL     1       7.773   6.923  18.097  0.00  0.00    +0.000 C 
BRANCH  16  17
ATOM     17  N   UNL     1       8.463   8.029  18.757  0.00  0.00    +0.000 NA
ATOM     18  H   UNL     1       9.451   7.818  18.882  0.00  0.00    +0.000 HD
BRANCH  17  19
ATOM     19  C   UNL     1       8.330   9.255  17.962  0.00  0.00    +0.000 C 
BRANCH  19  20
ATOM     20  C   UNL     1       9.044  10.417  18.608  0.00  0.00    +0.000 A 
ATOM     21  C   UNL     1       9.347  11.568  17.866  0.00  0.00    +0.000 A 
ATOM     22  C   UNL     1      10.032  12.632  18.454  0.00  0.00    +0.000 A 
ATOM     23  C   UNL     1      10.407  12.564  19.795  0.00  0.00    +0.000 A 
ATOM     24  C   UNL     1      10.089  11.437  20.550  0.00  0.00    +0.000 A 
ATOM     25  C   UNL     1       9.410  10.369  19.961  0.00  0.00    +0.000 A 
ENDBRANCH  19  20
ENDBRANCH  17  19
ENDBRANCH  16  17
ENDBRANCH  15  16
ENDBRANCH   1  15
TORSDOF 8
ENDMDL
MODEL 6
REMARK VINA RESULT:      -6.8      4.281      6.008
REMARK  Name = 
REMARK  8 active torsions:
REMARK  status: ('A' for Active; 'I' for Inactive)
REMARK    1  A    between atoms: C_2  and  C_3
REMARK    2  A    between atoms: C_9  and  C_11
REMARK    3  A    between atoms: C_11  and  N_12
REMARK    4  A    between atoms: C_11  and  C_13
REMARK    5  A    between atoms: C_13  and  C_14
REMARK    6  A    between atoms: C_14  and  N_15
REMARK    7  A    between atoms: N_15  and  C_16
REMARK    8  A    between atoms: C_16  and  C_17
REMARK                            x       y       z     vdW  Elec       q    Type
REMARK                         _______ _______ _______ _____ _____    ______ ____
ROOT
ATOM      1  C   UNL     1       6.908   5.054  17.801  0.00  0.00    +0.000 C 
ENDROOT
BRANCH   1   8
ATOM      2  C   UNL     1       4.424   4.174  19.304  0.00  0.00    +0.000 C 
ATOM      3  C   UNL     1       4.107   2.761  19.819  0.00  0.00    +0.000 C 
ATOM      4  C   UNL     1       2.849   2.186  19.157  0.00  0.00    +0.000 C 
ATOM      5  C   UNL     1       2.960   2.241  17.635  0.00  0.00    +0.000 C 
ATOM      6  C   UNL     1       3.343   3.635  17.132  0.00  0.00    +0.000 C 
ATOM      7  N   UNL     1       4.535   4.145  17.825  0.00  0.00    +0.000 N 
ATOM      8  C   UNL     1       5.635   4.541  17.073  0.00  0.00    +0.000 C 
ATOM      9  O   UNL     1       5.628   4.477  15.832  0.00  0.00    +0.000 OA
BRANCH   2  11
ATOM     10  N   UNL     1       2.407   5.911  20.110  0.00  0.00    +0.000 NA
ATOM     11  C   UNL     1       3.322   5.123  19.744  0.00  0.00    +0.000 C 
ENDBRANCH   2  11
ENDBRANCH   1   8
BRANCH   1  12
ATOM     12  N   UNL     1       8.041   4.125  17.586  0.00  0.00    +0.000 NA
ATOM     13  H   UNL     1       7.905   3.323  18.208  0.00  0.00    +0.000 HD
ATOM     14  H   UNL     1       8.911   4.553  17.910  0.00  0.00    +0.000 HD
ENDBRANCH   1  12
BRANCH   1  15
ATOM     15  C   UNL     1       7.296   6.446  17.287  0.00  0.00    +0.000 C 
BRANCH  15  16
ATOM     16  C   UNL     1       8.048   7.252  18.353  0.00  0.00    +0.000 C 
BRANCH  16  17
ATOM     17  N   UNL     1       8.136   8.662  17.979  0.00  0.00    +0.000 NA
ATOM     18  H   UNL     1       7.211   9.087  17.945  0.00  0.00    +0.000 HD
BRANCH  17  19
ATOM     19  C   UNL     1       8.966   9.390  18.945  0.00  0.00    +0.000 C 
BRANCH  19  20
ATOM     20  C   UNL     1       9.306  10.776  18.452  0.00  0.00    +0.000 A 
ATOM     21  C   UNL     1      10.613  11.272  18.571  0.00  0.00    +0.000 A 
ATOM     22  C   UNL     1      10.924  12.563  18.141  0.00  0.00    +0.000 A 
ATOM     23  C   UNL     1       9.936  13.365  17.573  0.00  0.00    +0.000 A 
ATOM     24  C   UNL     1       8.640  12.874  17.425  0.00  0.00    +0.000 A 
ATOM     25  C   UNL     1       8.326  11.586  17.860  0.00  0.00    +0.000 A 
ENDBRANCH  19  20
ENDBRANCH  17  19
ENDBRANCH  16  17
ENDBRANCH  15  16
ENDBRANCH   1  15
TORSDOF 8
ENDMDL
MODEL 7
REMARK VINA RESULT:      -6.8      1.157      1.655
REMARK  Name = 
REMARK  8 active torsions:
REMARK  status: ('A' for Active; 'I' for Inactive)
REMARK    1  A    between atoms: C_2  and  C_3
REMARK    2  A    between atoms: C_9  and  C_11
REMARK    3  A    between atoms: C_11  and  N_12
REMARK    4  A    between atoms: C_11  and  C_13
REMARK    5  A    between atoms: C_13  and  C_14
REMARK    6  A    between atoms: C_14  and  N_15
REMARK    7  A    between atoms: N_15  and  C_16
REMARK    8  A    between atoms: C_16  and  C_17
REMARK                            x       y       z     vdW  Elec       q    Type
REMARK                         _______ _______ _______ _____ _____    ______ ____
ROOT
ATOM      1  C   UNL     1       3.142   7.006  17.846  0.00  0.00    +0.000 C 
ENDROOT
BRANCH   1   8
ATOM      2  C   UNL     1       2.971   4.066  18.572  0.00  0.00    +0.000 C 
ATOM      3  C   UNL     1       1.805   3.107  18.281  0.00  0.00    +0.000 C 
ATOM      4  C   UNL     1       1.182   2.567  19.574  0.00  0.00    +0.000 C 
ATOM      5  C   UNL     1       0.781   3.708  20.506  0.00  0.00    +0.000 C 
ATOM      6  C   UNL     1       1.927   4.696  20.737  0.00  0.00    +0.000 C 
ATOM      7  N   UNL     1       2.503   5.154  19.465  0.00  0.00    +0.000 N 
ATOM      8  C   UNL     1       2.559   6.518  19.201  0.00  0.00    +0.000 C 
ATOM      9  O   UNL     1       2.138   7.353  20.019  0.00  0.00    +0.000 OA
BRANCH   2  11
ATOM     10  N   UNL     1       5.047   2.641  19.755  0.00  0.00    +0.000 NA
ATOM     11  C   UNL     1       4.106   3.287  19.218  0.00  0.00    +0.000 C 
ENDBRANCH   2  11
ENDBRANCH   1   8
BRANCH   1  12
ATOM     12  N   UNL     1       2.898   8.456  17.666  0.00  0.00    +0.000 NA
ATOM     13  H   UNL     1       3.639   8.958  18.163  0.00  0.00    +0.000 HD
ATOM     14  H   UNL     1       2.039   8.729  18.148  0.00  0.00    +0.000 HD
ENDBRANCH   1  12
BRANCH   1  15
ATOM     15  C   UNL     1       4.651   6.739  17.782  0.00  0.00    +0.000 C 
BRANCH  15  16
ATOM     16  C   UNL     1       5.163   6.736  16.338  0.00  0.00    +0.000 C 
BRANCH  16  17
ATOM     17  N   UNL     1       6.593   6.436  16.289  0.00  0.00    +0.000 NA
ATOM     18  H   UNL     1       7.050   6.706  17.158  0.00  0.00    +0.000 HD
BRANCH  17  19
ATOM     19  C   UNL     1       6.801   5.002  16.061  0.00  0.00    +0.000 C 
BRANCH  19  20
ATOM     20  C   UNL     1       6.825   4.671  14.588  0.00  0.00    +0.000 A 
ATOM     21  C   UNL     1       7.705   5.339  13.724  0.00  0.00    +0.000 A 
ATOM     22  C   UNL     1       7.710   5.054  12.357  0.00  0.00    +0.000 A 
ATOM     23  C   UNL     1       6.847   4.087  11.844  0.00  0.00    +0.000 A 
ATOM     24  C   UNL     1       5.987   3.398  12.696  0.00  0.00    +0.000 A 
ATOM     25  C   UNL     1       5.976   3.686  14.062  0.00  0.00    +0.000 A 
ENDBRANCH  19  20
ENDBRANCH  17  19
ENDBRANCH  16  17
ENDBRANCH  15  16
ENDBRANCH   1  15
TORSDOF 8
ENDMDL
MODEL 8
REMARK VINA RESULT:      -6.8      0.725      1.281
REMARK  Name = 
REMARK  8 active torsions:
REMARK  status: ('A' for Active; 'I' for Inactive)
REMARK    1  A    between atoms: C_2  and  C_3
REMARK    2  A    between atoms: C_9  and  C_11
REMARK    3  A    between atoms: C_11  and  N_12
REMARK    4  A    between atoms: C_11  and  C_13
REMARK    5  A    between atoms: C_13  and  C_14
REMARK    6  A    between atoms: C_14  and  N_15
REMARK    7  A    between atoms: N_15  and  C_16
REMARK    8  A    between atoms: C_16  and  C_17
REMARK                            x       y       z     vdW  Elec       q    Type
REMARK                         _______ _______ _______ _____ _____    ______ ____
ROOT
ATOM      1  C   UNL     1       4.106   5.790  17.760  0.00  0.00    +0.000 C 
ENDROOT
BRANCH   1   8
ATOM      2  C   UNL     1       3.390   3.100  18.964  0.00  0.00    +0.000 C 
ATOM      3  C   UNL     1       2.124   2.271  18.690  0.00  0.00    +0.000 C 
ATOM      4  C   UNL     1       1.287   2.083  19.961  0.00  0.00    +0.000 C 
ATOM      5  C   UNL     1       0.973   3.428  20.613  0.00  0.00    +0.000 C 
ATOM      6  C   UNL     1       2.230   4.277  20.820  0.00  0.00    +0.000 C 
ATOM      7  N   UNL     1       3.007   4.395  19.578  0.00  0.00    +0.000 N 
ATOM      8  C   UNL     1       3.309   5.660  19.088  0.00  0.00    +0.000 C 
ATOM      9  O   UNL     1       2.940   6.688  19.680  0.00  0.00    +0.000 OA
BRANCH   2  11
ATOM     10  N   UNL     1       5.071   1.663  20.652  0.00  0.00    +0.000 NA
ATOM     11  C   UNL     1       4.309   2.315  19.887  0.00  0.00    +0.000 C 
ENDBRANCH   2  11
ENDBRANCH   1   8
BRANCH   1  12
ATOM     12  N   UNL     1       4.019   7.173  17.235  0.00  0.00    +0.000 NA
ATOM     13  H   UNL     1       3.687   7.116  16.268  0.00  0.00    +0.000 HD
ATOM     14  H   UNL     1       4.954   7.578  17.160  0.00  0.00    +0.000 HD
ENDBRANCH   1  12
BRANCH   1  15
ATOM     15  C   UNL     1       5.580   5.428  17.981  0.00  0.00    +0.000 C 
BRANCH  15  16
ATOM     16  C   UNL     1       6.510   6.575  17.571  0.00  0.00    +0.000 C 
BRANCH  16  17
ATOM     17  N   UNL     1       6.839   6.502  16.149  0.00  0.00    +0.000 NA
ATOM     18  H   UNL     1       7.501   7.232  15.891  0.00  0.00    +0.000 HD
BRANCH  17  19
ATOM     19  C   UNL     1       7.419   5.192  15.831  0.00  0.00    +0.000 C 
BRANCH  19  20
ATOM     20  C   UNL     1       6.919   4.670  14.506  0.00  0.00    +0.000 A 
ATOM     21  C   UNL     1       7.683   4.839  13.341  0.00  0.00    +0.000 A 
ATOM     22  C   UNL     1       7.209   4.381  12.110  0.00  0.00    +0.000 A 
ATOM     23  C   UNL     1       5.977   3.735  12.034  0.00  0.00    +0.000 A 
ATOM     24  C   UNL     1       5.222   3.537  13.188  0.00  0.00    +0.000 A 
ATOM     25  C   UNL     1       5.690   4.000  14.418  0.00  0.00    +0.000 A 
ENDBRANCH  19  20
ENDBRANCH  17  19
ENDBRANCH  16  17
ENDBRANCH  15  16
ENDBRANCH   1  15
TORSDOF 8
ENDMDL
MODEL 9
REMARK VINA RESULT:      -6.7      4.600      6.457
REMARK  Name = 
REMARK  8 active torsions:
REMARK  status: ('A' for Active; 'I' for Inactive)
REMARK    1  A    between atoms: C_2  and  C_3
REMARK    2  A    between atoms: C_9  and  C_11
REMARK    3  A    between atoms: C_11  and  N_12
REMARK    4  A    between atoms: C_11  and  C_13
REMARK    5  A    between atoms: C_13  and  C_14
REMARK    6  A    between atoms: C_14  and  N_15
REMARK    7  A    between atoms: N_15  and  C_16
REMARK    8  A    between atoms: C_16  and  C_17
REMARK                            x       y       z     vdW  Elec       q    Type
REMARK                         _______ _______ _______ _____ _____    ______ ____
ROOT
ATOM      1  C   UNL     1       7.570   6.029  19.187  0.00  0.00    +0.000 C 
ENDROOT
BRANCH   1   8
ATOM      2  C   UNL     1       4.574   5.652  18.897  0.00  0.00    +0.000 C 
ATOM      3  C   UNL     1       3.720   4.525  19.502  0.00  0.00    +0.000 C 
ATOM      4  C   UNL     1       3.053   3.675  18.414  0.00  0.00    +0.000 C 
ATOM      5  C   UNL     1       4.086   3.153  17.418  0.00  0.00    +0.000 C 
ATOM      6  C   UNL     1       4.977   4.271  16.870  0.00  0.00    +0.000 C 
ATOM      7  N   UNL     1       5.563   5.069  17.957  0.00  0.00    +0.000 N 
ATOM      8  C   UNL     1       6.944   5.209  18.024  0.00  0.00    +0.000 C 
ATOM      9  O   UNL     1       7.690   4.678  17.184  0.00  0.00    +0.000 OA
BRANCH   2  11
ATOM     10  N   UNL     1       2.907   7.453  17.587  0.00  0.00    +0.000 NA
ATOM     11  C   UNL     1       3.663   6.636  18.181  0.00  0.00    +0.000 C 
ENDBRANCH   2  11
ENDBRANCH   1   8
BRANCH   1  12
ATOM     12  N   UNL     1       8.475   5.179  19.995  0.00  0.00    +0.000 NA
ATOM     13  H   UNL     1       9.418   5.569  19.915  0.00  0.00    +0.000 HD
ATOM     14  H   UNL     1       8.547   4.249  19.577  0.00  0.00    +0.000 HD
ENDBRANCH   1  12
BRANCH   1  15
ATOM     15  C   UNL     1       8.359   7.223  18.638  0.00  0.00    +0.000 C 
BRANCH  15  16
ATOM     16  C   UNL     1       7.556   7.994  17.585  0.00  0.00    +0.000 C 
BRANCH  16  17
ATOM     17  N   UNL     1       7.730   9.436  17.745  0.00  0.00    +0.000 NA
ATOM     18  H   UNL     1       6.889   9.863  18.131  0.00  0.00    +0.000 HD
BRANCH  17  19
ATOM     19  C   UNL     1       8.862   9.713  18.636  0.00  0.00    +0.000 C 
BRANCH  19  20
ATOM     20  C   UNL     1       9.549  11.009  18.275  0.00  0.00    +0.000 A 
ATOM     21  C   UNL     1       8.801  12.115  17.847  0.00  0.00    +0.000 A 
ATOM     22  C   UNL     1       9.437  13.305  17.487  0.00  0.00    +0.000 A 
ATOM     23  C   UNL     1      10.825  13.405  17.566  0.00  0.00    +0.000 A 
ATOM     24  C   UNL     1      11.577  12.321  18.014  0.00  0.00    +0.000 A 
ATOM     25  C   UNL     1      10.943  11.129  18.369  0.00  0.00    +0.000 A 
ENDBRANCH  19  20
ENDBRANCH  17  19
ENDBRANCH  16  17
ENDBRANCH  15  16
ENDBRANCH   1  15
TORSDOF 8
ENDMDL
