MODEL 1
REMARK VINA RESULT:      -7.4      0.000      0.000
REMARK  Name = 
REMARK  3 active torsions:
REMARK  status: ('A' for Active; 'I' for Inactive)
REMARK    1  A    between atoms: C_1  and  O_2
REMARK    2  A    between atoms: O_2  and  C_3
REMARK    3  A    between atoms: C_9  and  C_10
REMARK                            x       y       z     vdW  Elec       q    Type
REMARK                         _______ _______ _______ _____ _____    ______ ____
ROOT
ATOM      1  C   UNL     1       6.782   6.118  16.699  0.00  0.00    +0.000 A 
ATOM      2  C   UNL     1       6.837   4.826  16.182  0.00  0.00    +0.000 A 
ATOM      3  C   UNL     1       5.743   3.959  16.284  0.00  0.00    +0.000 A 
ATOM      4  C   UNL     1       4.587   4.437  16.910  0.00  0.00    +0.000 A 
ATOM      5  N   UNL     1       3.389   3.805  17.143  0.00  0.00    +0.000 N 
ATOM      6  C   UNL     1       2.520   4.654  17.771  0.00  0.00    +0.000 A 
ATOM      7  C   UNL     1       3.152   5.871  17.962  0.00  0.00    +0.000 A 
ATOM      8  C   UNL     1       4.479   5.730  17.426  0.00  0.00    +0.000 A 
ATOM      9  C   UNL     1       5.610   6.572  17.323  0.00  0.00    +0.000 A 
ATOM     10  H   UNL     1       3.182   2.853  16.877  0.00  0.00    +0.000 HD
ENDROOT
BRANCH   7  11
ATOM     11  C   UNL     1       2.478   7.018  18.570  0.00  0.00    +0.000 A 
ATOM     12  C   UNL     1       2.169   8.159  17.814  0.00  0.00    +0.000 A 
ATOM     13  C   UNL     1       1.564   9.271  18.409  0.00  0.00    +0.000 A 
ATOM     14  C   UNL     1       1.248   9.251  19.765  0.00  0.00    +0.000 A 
ATOM     15  C   UNL     1       1.540   8.122  20.526  0.00  0.00    +0.000 A 
ATOM     16  C   UNL     1       2.158   7.017  19.934  0.00  0.00    +0.000 A 
ENDBRANCH   7  11
BRANCH   1  18
ATOM     17  C   UNL     1       7.743   8.091  17.617  0.00  0.00    +0.000 C 
ATOM     18  O   UNL     1       7.793   7.042  16.658  0.00  0.00    +0.000 OA
ENDBRANCH   1  18
TORSDOF 2
ENDMDL
MODEL 2
REMARK VINA RESULT:      -7.3      0.203      1.185
REMARK  Name = 
REMARK  3 active torsions:
REMARK  status: ('A' for Active; 'I' for Inactive)
REMARK    1  A    between atoms: C_1  and  O_2
REMARK    2  A    between atoms: O_2  and  C_3
REMARK    3  A    between atoms: C_9  and  C_10
REMARK                            x       y       z     vdW  Elec       q    Type
REMARK                         _______ _______ _______ _____ _____    ______ ____
ROOT
ATOM      1  C   UNL     1       6.607   6.080  16.619  0.00  0.00    +0.000 A 
ATOM      2  C   UNL     1       6.614   4.772  16.140  0.00  0.00    +0.000 A 
ATOM      3  C   UNL     1       5.502   3.937  16.301  0.00  0.00    +0.000 A 
ATOM      4  C   UNL     1       4.377   4.463  16.947  0.00  0.00    +0.000 A 
ATOM      5  N   UNL     1       3.172   3.870  17.235  0.00  0.00    +0.000 N 
ATOM      6  C   UNL     1       2.344   4.760  17.862  0.00  0.00    +0.000 A 
ATOM      7  C   UNL     1       3.012   5.965  17.996  0.00  0.00    +0.000 A 
ATOM      8  C   UNL     1       4.318   5.774  17.426  0.00  0.00    +0.000 A 
ATOM      9  C   UNL     1       5.466   6.582  17.263  0.00  0.00    +0.000 A 
ATOM     10  H   UNL     1       2.933   2.916  17.004  0.00  0.00    +0.000 HD
ENDROOT
BRANCH   7  11
ATOM     11  C   UNL     1       2.386   7.147  18.589  0.00  0.00    +0.000 A 
ATOM     12  C   UNL     1       2.080   7.193  19.958  0.00  0.00    +0.000 A 
ATOM     13  C   UNL     1       1.442   8.307  20.512  0.00  0.00    +0.000 A 
ATOM     14  C   UNL     1       1.113   9.395  19.708  0.00  0.00    +0.000 A 
ATOM     15  C   UNL     1       1.420   9.368  18.350  0.00  0.00    +0.000 A 
ATOM     16  C   UNL     1       2.044   8.248  17.793  0.00  0.00    +0.000 A 
ENDBRANCH   7  11
BRANCH   1  18
ATOM     17  C   UNL     1       7.816   7.873  17.608  0.00  0.00    +0.000 C 
ATOM     18  O   UNL     1       7.639   6.976  16.519  0.00  0.00    +0.000 OA
ENDBRANCH   1  18
TORSDOF 2
ENDMDL
MODEL 3
REMARK VINA RESULT:      -7.3      3.152      5.001
REMARK  Name = 
REMARK  3 active torsions:
REMARK  status: ('A' for Active; 'I' for Inactive)
REMARK    1  A    between atoms: C_1  and  O_2
REMARK    2  A    between atoms: O_2  and  C_3
REMARK    3  A    between atoms: C_9  and  C_10
REMARK                            x       y       z     vdW  Elec       q    Type
REMARK                         _______ _______ _______ _____ _____    ______ ____
ROOT
ATOM      1  C   UNL     1       5.835   3.495  12.461  0.00  0.00    +0.000 A 
ATOM      2  C   UNL     1       7.082   4.059  12.201  0.00  0.00    +0.000 A 
ATOM      3  C   UNL     1       7.725   4.861  13.150  0.00  0.00    +0.000 A 
ATOM      4  C   UNL     1       7.081   5.068  14.375  0.00  0.00    +0.000 A 
ATOM      5  N   UNL     1       7.481   5.803  15.465  0.00  0.00    +0.000 N 
ATOM      6  C   UNL     1       6.551   5.716  16.462  0.00  0.00    +0.000 A 
ATOM      7  C   UNL     1       5.512   4.911  16.028  0.00  0.00    +0.000 A 
ATOM      8  C   UNL     1       5.841   4.508  14.688  0.00  0.00    +0.000 A 
ATOM      9  C   UNL     1       5.211   3.719  13.697  0.00  0.00    +0.000 A 
ATOM     10  H   UNL     1       8.346   6.323  15.519  0.00  0.00    +0.000 HD
ENDROOT
BRANCH   7  11
ATOM     11  C   UNL     1       4.370   4.577  16.878  0.00  0.00    +0.000 A 
ATOM     12  C   UNL     1       4.014   3.241  17.119  0.00  0.00    +0.000 A 
ATOM     13  C   UNL     1       2.896   2.926  17.898  0.00  0.00    +0.000 A 
ATOM     14  C   UNL     1       2.125   3.942  18.456  0.00  0.00    +0.000 A 
ATOM     15  C   UNL     1       2.472   5.273  18.234  0.00  0.00    +0.000 A 
ATOM     16  C   UNL     1       3.581   5.588  17.444  0.00  0.00    +0.000 A 
ENDBRANCH   7  11
BRANCH   1  18
ATOM     17  C   UNL     1       3.893   3.231  11.114  0.00  0.00    +0.000 C 
ATOM     18  O   UNL     1       5.119   2.702  11.603  0.00  0.00    +0.000 OA
ENDBRANCH   1  18
TORSDOF 2
ENDMDL
MODEL 4
REMARK VINA RESULT:      -7.3      3.170      4.974
REMARK  Name = 
REMARK  3 active torsions:
REMARK  status: ('A' for Active; 'I' for Inactive)
REMARK    1  A    between atoms: C_1  and  O_2
REMARK    2  A    between atoms: O_2  and  C_3
REMARK    3  A    between atoms: C_9  and  C_10
REMARK                            x       y       z     vdW  Elec       q    Type
REMARK                         _______ _______ _______ _____ _____    ______ ____
ROOT
ATOM      1  C   UNL     1       5.843   3.498  12.430  0.00  0.00    +0.000 A 
ATOM      2  C   UNL     1       7.091   4.057  12.169  0.00  0.00    +0.000 A 
ATOM      3  C   UNL     1       7.739   4.856  13.118  0.00  0.00    +0.000 A 
ATOM      4  C   UNL     1       7.098   5.064  14.344  0.00  0.00    +0.000 A 
ATOM      5  N   UNL     1       7.502   5.796  15.434  0.00  0.00    +0.000 N 
ATOM      6  C   UNL     1       6.573   5.711  16.433  0.00  0.00    +0.000 A 
ATOM      7  C   UNL     1       5.530   4.911  15.999  0.00  0.00    +0.000 A 
ATOM      8  C   UNL     1       5.856   4.508  14.658  0.00  0.00    +0.000 A 
ATOM      9  C   UNL     1       5.222   3.723  13.668  0.00  0.00    +0.000 A 
ATOM     10  H   UNL     1       8.369   6.312  15.488  0.00  0.00    +0.000 HD
ENDROOT
BRANCH   7  11
ATOM     11  C   UNL     1       4.388   4.580  16.851  0.00  0.00    +0.000 A 
ATOM     12  C   UNL     1       3.630   5.587  17.467  0.00  0.00    +0.000 A 
ATOM     13  C   UNL     1       2.566   5.266  18.316  0.00  0.00    +0.000 A 
ATOM     14  C   UNL     1       2.237   3.933  18.549  0.00  0.00    +0.000 A 
ATOM     15  C   UNL     1       2.974   2.923  17.937  0.00  0.00    +0.000 A 
ATOM     16  C   UNL     1       4.047   3.244  17.100  0.00  0.00    +0.000 A 
ENDBRANCH   7  11
BRANCH   1  18
ATOM     17  C   UNL     1       3.884   3.231  11.108  0.00  0.00    +0.000 C 
ATOM     18  O   UNL     1       5.123   2.708  11.573  0.00  0.00    +0.000 OA
ENDBRANCH   1  18
TORSDOF 2
ENDMDL
MODEL 5
REMARK VINA RESULT:      -7.2      3.085      4.108
REMARK  Name = 
REMARK  3 active torsions:
REMARK  status: ('A' for Active; 'I' for Inactive)
REMARK    1  A    between atoms: C_1  and  O_2
REMARK    2  A    between atoms: O_2  and  C_3
REMARK    3  A    between atoms: C_9  and  C_10
REMARK                            x       y       z     vdW  Elec       q    Type
REMARK                         _______ _______ _______ _____ _____    ______ ____
ROOT
ATOM      1  C   UNL     1       5.705   4.260  14.890  0.00  0.00    +0.000 A 
ATOM      2  C   UNL     1       7.017   4.636  15.167  0.00  0.00    +0.000 A 
ATOM      3  C   UNL     1       7.436   4.891  16.479  0.00  0.00    +0.000 A 
ATOM      4  C   UNL     1       6.495   4.742  17.505  0.00  0.00    +0.000 A 
ATOM      5  N   UNL     1       6.636   4.928  18.858  0.00  0.00    +0.000 N 
ATOM      6  C   UNL     1       5.461   4.651  19.499  0.00  0.00    +0.000 A 
ATOM      7  C   UNL     1       4.521   4.276  18.555  0.00  0.00    +0.000 A 
ATOM      8  C   UNL     1       5.175   4.348  17.277  0.00  0.00    +0.000 A 
ATOM      9  C   UNL     1       4.783   4.119  15.938  0.00  0.00    +0.000 A 
ATOM     10  H   UNL     1       7.492   5.218  19.311  0.00  0.00    +0.000 HD
ENDROOT
BRANCH   7  11
ATOM     11  C   UNL     1       3.164   3.869  18.918  0.00  0.00    +0.000 A 
ATOM     12  C   UNL     1       2.427   4.581  19.876  0.00  0.00    +0.000 A 
ATOM     13  C   UNL     1       1.146   4.163  20.252  0.00  0.00    +0.000 A 
ATOM     14  C   UNL     1       0.580   3.035  19.665  0.00  0.00    +0.000 A 
ATOM     15  C   UNL     1       1.295   2.323  18.705  0.00  0.00    +0.000 A 
ATOM     16  C   UNL     1       2.581   2.733  18.341  0.00  0.00    +0.000 A 
ENDBRANCH   7  11
BRANCH   1  18
ATOM     17  C   UNL     1       6.102   3.498  12.673  0.00  0.00    +0.000 C 
ATOM     18  O   UNL     1       5.193   3.993  13.648  0.00  0.00    +0.000 OA
ENDBRANCH   1  18
TORSDOF 2
ENDMDL
MODEL 6
REMARK VINA RESULT:      -7.2      3.119      4.108
REMARK  Name = 
REMARK  3 active torsions:
REMARK  status: ('A' for Active; 'I' for Inactive)
REMARK    1  A    between atoms: C_1  and  O_2
REMARK    2  A    between atoms: O_2  and  C_3
REMARK    3  A    between atoms: C_9  and  C_10
REMARK                            x       y       z     vdW  Elec       q    Type
REMARK                         _______ _______ _______ _____ _____    ______ ____
ROOT
ATOM      1  C   UNL     1       5.712   4.258  14.865  0.00  0.00    +0.000 A 
ATOM      2  C   UNL     1       7.018   4.659  15.137  0.00  0.00    +0.000 A 
ATOM      3  C   UNL     1       7.440   4.912  16.447  0.00  0.00    +0.000 A 
ATOM      4  C   UNL     1       6.509   4.737  17.478  0.00  0.00    +0.000 A 
ATOM      5  N   UNL     1       6.655   4.916  18.832  0.00  0.00    +0.000 N 
ATOM      6  C   UNL     1       5.489   4.611  19.479  0.00  0.00    +0.000 A 
ATOM      7  C   UNL     1       4.551   4.223  18.537  0.00  0.00    +0.000 A 
ATOM      8  C   UNL     1       5.196   4.318  17.256  0.00  0.00    +0.000 A 
ATOM      9  C   UNL     1       4.800   4.090  15.917  0.00  0.00    +0.000 A 
ATOM     10  H   UNL     1       7.507   5.220  19.282  0.00  0.00    +0.000 HD
ENDROOT
BRANCH   7  11
ATOM     11  C   UNL     1       3.205   3.786  18.905  0.00  0.00    +0.000 A 
ATOM     12  C   UNL     1       2.623   2.658  18.308  0.00  0.00    +0.000 A 
ATOM     13  C   UNL     1       1.319   2.268  18.630  0.00  0.00    +0.000 A 
ATOM     14  C   UNL     1       0.584   2.993  19.564  0.00  0.00    +0.000 A 
ATOM     15  C   UNL     1       1.153   4.109  20.173  0.00  0.00    +0.000 A 
ATOM     16  C   UNL     1       2.450   4.508  19.840  0.00  0.00    +0.000 A 
ENDBRANCH   7  11
BRANCH   1  18
ATOM     17  C   UNL     1       6.107   3.502  12.645  0.00  0.00    +0.000 C 
ATOM     18  O   UNL     1       5.198   3.989  13.624  0.00  0.00    +0.000 OA
ENDBRANCH   1  18
TORSDOF 2
ENDMDL
MODEL 7
REMARK VINA RESULT:      -7.2      2.614      5.605
REMARK  Name = 
REMARK  3 active torsions:
REMARK  status: ('A' for Active; 'I' for Inactive)
REMARK    1  A    between atoms: C_1  and  O_2
REMARK    2  A    between atoms: O_2  and  C_3
REMARK    3  A    between atoms: C_9  and  C_10
REMARK                            x       y       z     vdW  Elec       q    Type
REMARK                         _______ _______ _______ _____ _____    ______ ____
ROOT
ATOM      1  C   UNL     1       1.694   5.210  20.286  0.00  0.00    +0.000 A 
ATOM      2  C   UNL     1       0.931   4.109  20.669  0.00  0.00    +0.000 A 
ATOM      3  C   UNL     1       1.149   2.847  20.105  0.00  0.00    +0.000 A 
ATOM      4  C   UNL     1       2.168   2.723  19.153  0.00  0.00    +0.000 A 
ATOM      5  N   UNL     1       2.585   1.618  18.452  0.00  0.00    +0.000 N 
ATOM      6  C   UNL     1       3.633   1.943  17.636  0.00  0.00    +0.000 A 
ATOM      7  C   UNL     1       3.916   3.289  17.795  0.00  0.00    +0.000 A 
ATOM      8  C   UNL     1       2.971   3.794  18.754  0.00  0.00    +0.000 A 
ATOM      9  C   UNL     1       2.709   5.058  19.330  0.00  0.00    +0.000 A 
ATOM     10  H   UNL     1       2.179   0.697  18.539  0.00  0.00    +0.000 HD
ENDROOT
BRANCH   7  11
ATOM     11  C   UNL     1       5.018   3.947  17.094  0.00  0.00    +0.000 A 
ATOM     12  C   UNL     1       5.018   4.064  15.696  0.00  0.00    +0.000 A 
ATOM     13  C   UNL     1       6.093   4.656  15.026  0.00  0.00    +0.000 A 
ATOM     14  C   UNL     1       7.178   5.149  15.746  0.00  0.00    +0.000 A 
ATOM     15  C   UNL     1       7.188   5.049  17.135  0.00  0.00    +0.000 A 
ATOM     16  C   UNL     1       6.119   4.445  17.803  0.00  0.00    +0.000 A 
ENDBRANCH   7  11
BRANCH   1  18
ATOM     17  C   UNL     1       2.058   7.536  19.952  0.00  0.00    +0.000 C 
ATOM     18  O   UNL     1       1.561   6.485  20.770  0.00  0.00    +0.000 OA
ENDBRANCH   1  18
TORSDOF 2
ENDMDL
MODEL 8
REMARK VINA RESULT:      -7.2      2.599      5.668
REMARK  Name = 
REMARK  3 active torsions:
REMARK  status: ('A' for Active; 'I' for Inactive)
REMARK    1  A    between atoms: C_1  and  O_2
REMARK    2  A    between atoms: O_2  and  C_3
REMARK    3  A    between atoms: C_9  and  C_10
REMARK                            x       y       z     vdW  Elec       q    Type
REMARK                         _______ _______ _______ _____ _____    ______ ____
ROOT
ATOM      1  C   UNL     1       1.724   5.257  20.302  0.00  0.00    +0.000 A 
ATOM      2  C   UNL     1       0.931   4.173  20.671  0.00  0.00    +0.000 A 
ATOM      3  C   UNL     1       1.121   2.910  20.099  0.00  0.00    +0.000 A 
ATOM      4  C   UNL     1       2.143   2.768  19.153  0.00  0.00    +0.000 A 
ATOM      5  N   UNL     1       2.537   1.658  18.446  0.00  0.00    +0.000 N 
ATOM      6  C   UNL     1       3.598   1.962  17.640  0.00  0.00    +0.000 A 
ATOM      7  C   UNL     1       3.913   3.299  17.811  0.00  0.00    +0.000 A 
ATOM      8  C   UNL     1       2.975   3.820  18.767  0.00  0.00    +0.000 A 
ATOM      9  C   UNL     1       2.741   5.087  19.351  0.00  0.00    +0.000 A 
ATOM     10  H   UNL     1       2.107   0.746  18.524  0.00  0.00    +0.000 HD
ENDROOT
BRANCH   7  11
ATOM     11  C   UNL     1       5.036   3.934  17.122  0.00  0.00    +0.000 A 
ATOM     12  C   UNL     1       6.147   4.410  17.836  0.00  0.00    +0.000 A 
ATOM     13  C   UNL     1       7.198   5.056  17.178  0.00  0.00    +0.000 A 
ATOM     14  C   UNL     1       7.160   5.223  15.797  0.00  0.00    +0.000 A 
ATOM     15  C   UNL     1       6.069   4.748  15.073  0.00  0.00    +0.000 A 
ATOM     16  C   UNL     1       5.011   4.115  15.733  0.00  0.00    +0.000 A 
ENDBRANCH   7  11
BRANCH   1  18
ATOM     17  C   UNL     1       2.017   7.588  19.928  0.00  0.00    +0.000 C 
ATOM     18  O   UNL     1       1.620   6.531  20.794  0.00  0.00    +0.000 OA
ENDBRANCH   1  18
TORSDOF 2
ENDMDL
MODEL 9
REMARK VINA RESULT:      -7.1      2.484      3.976
REMARK  Name = 
REMARK  3 active torsions:
REMARK  status: ('A' for Active; 'I' for Inactive)
REMARK    1  A    between atoms: C_1  and  O_2
REMARK    2  A    between atoms: O_2  and  C_3
REMARK    3  A    between atoms: C_9  and  C_10
REMARK                            x       y       z     vdW  Elec       q    Type
REMARK                         _______ _______ _______ _____ _____    ______ ____
ROOT
ATOM      1  C   UNL     1       5.324   4.756  15.804  0.00  0.00    +0.000 A 
ATOM      2  C   UNL     1       5.578   6.068  15.411  0.00  0.00    +0.000 A 
ATOM      3  C   UNL     1       4.942   7.147  16.036  0.00  0.00    +0.000 A 
ATOM      4  C   UNL     1       4.051   6.865  17.078  0.00  0.00    +0.000 A 
ATOM      5  N   UNL     1       3.302   7.721  17.848  0.00  0.00    +0.000 N 
ATOM      6  C   UNL     1       2.579   7.018  18.771  0.00  0.00    +0.000 A 
ATOM      7  C   UNL     1       2.851   5.670  18.611  0.00  0.00    +0.000 A 
ATOM      8  C   UNL     1       3.780   5.568  17.519  0.00  0.00    +0.000 A 
ATOM      9  C   UNL     1       4.427   4.502  16.851  0.00  0.00    +0.000 A 
ATOM     10  H   UNL     1       3.297   8.727  17.749  0.00  0.00    +0.000 HD
ENDROOT
BRANCH   7  11
ATOM     11  C   UNL     1       2.270   4.644  19.477  0.00  0.00    +0.000 A 
ATOM     12  C   UNL     1       2.627   4.554  20.831  0.00  0.00    +0.000 A 
ATOM     13  C   UNL     1       2.103   3.545  21.645  0.00  0.00    +0.000 A 
ATOM     14  C   UNL     1       1.205   2.620  21.119  0.00  0.00    +0.000 A 
ATOM     15  C   UNL     1       0.833   2.703  19.780  0.00  0.00    +0.000 A 
ATOM     16  C   UNL     1       1.369   3.703  18.963  0.00  0.00    +0.000 A 
ENDBRANCH   7  11
BRANCH   1  18
ATOM     17  C   UNL     1       6.260   3.704  13.887  0.00  0.00    +0.000 C 
ATOM     18  O   UNL     1       5.887   3.633  15.258  0.00  0.00    +0.000 OA
ENDBRANCH   1  18
TORSDOF 2
ENDMDL
