MODEL 1
REMARK VINA RESULT:      -7.5      0.000      0.000
REMARK  Name = 
REMARK  5 active torsions:
REMARK  status: ('A' for Active; 'I' for Inactive)
REMARK    1  A    between atoms: C_4  and  C_5
REMARK    2  A    between atoms: C_5  and  C_6
REMARK    3  A    between atoms: C_6  and  C_7
REMARK    4  A    between atoms: C_7  and  N_8
REMARK    5  A    between atoms: N_8  and  C_9
REMARK                            x       y       z     vdW  Elec       q    Type
REMARK                         _______ _______ _______ _____ _____    ______ ____
ROOT
ATOM      1  N   UNL     1       5.184   2.991  19.292  0.00  0.00    +0.000 N 
ATOM      2  H   UNL     1       5.786   2.815  20.114  0.00  0.00    +0.000 HD
ENDROOT
BRANCH   1   3
ATOM      3  C   UNL     1       5.624   3.919  18.302  0.00  0.00    +0.000 A 
ATOM      4  C   UNL     1       5.215   3.831  16.948  0.00  0.00    +0.000 A 
ATOM      5  C   UNL     1       5.671   4.760  15.994  0.00  0.00    +0.000 A 
ATOM      6 CL   UNL     1       5.154   4.632  14.323  0.00  0.00    +0.000 Cl
ATOM      7  C   UNL     1       6.541   5.786  16.388  0.00  0.00    +0.000 A 
ATOM      8  N   UNL     1       6.909   5.839  17.691  0.00  0.00    +0.000 N 
ATOM      9  C   UNL     1       7.716   6.684  18.366  0.00  0.00    +0.000 A 
ATOM     10  O   UNL     1       8.304   7.631  17.875  0.00  0.00    +0.000 OA
ATOM     11  N   UNL     1       7.781   6.329  19.675  0.00  0.00    +0.000 N 
ATOM     12  N   UNL     1       7.015   5.254  19.841  0.00  0.00    +0.000 NA
ATOM     13  C   UNL     1       6.493   4.969  18.626  0.00  0.00    +0.000 A 
ATOM     14  H   UNL     1       8.326   6.799  20.432  0.00  0.00    +0.000 HD
ENDBRANCH   1   3
BRANCH   1  15
ATOM     15  C   UNL     1       3.927   2.278  19.168  0.00  0.00    +0.000 C 
BRANCH  15  16
ATOM     16  C   UNL     1       2.920   2.722  20.236  0.00  0.00    +0.000 C 
BRANCH  16  17
ATOM     17  C   UNL     1       1.708   3.442  19.617  0.00  0.00    +0.000 C 
BRANCH  17  21
ATOM     18  N   UNL     1       1.713   8.082  21.432  0.00  0.00    +0.000 N 
ATOM     19  C   UNL     1       1.925   7.182  20.361  0.00  0.00    +0.000 A 
ATOM     20  C   UNL     1       1.723   5.807  20.536  0.00  0.00    +0.000 A 
ATOM     21  C   UNL     1       1.925   4.930  19.457  0.00  0.00    +0.000 A 
ATOM     22  C   UNL     1       2.335   5.458  18.223  0.00  0.00    +0.000 A 
ATOM     23  C   UNL     1       2.533   6.835  18.091  0.00  0.00    +0.000 A 
ATOM     24  N   UNL     1       2.324   7.659  19.150  0.00  0.00    +0.000 NA
ATOM     25  H   UNL     1       1.398   7.743  22.352  0.00  0.00    +0.000 HD
ATOM     26  H   UNL     1       1.862   9.092  21.298  0.00  0.00    +0.000 HD
ENDBRANCH  17  21
ENDBRANCH  16  17
ENDBRANCH  15  16
ENDBRANCH   1  15
TORSDOF 5
ENDMDL
MODEL 2
REMARK VINA RESULT:      -7.4      0.919      1.572
REMARK  Name = 
REMARK  5 active torsions:
REMARK  status: ('A' for Active; 'I' for Inactive)
REMARK    1  A    between atoms: C_4  and  C_5
REMARK    2  A    between atoms: C_5  and  C_6
REMARK    3  A    between atoms: C_6  and  C_7
REMARK    4  A    between atoms: C_7  and  N_8
REMARK    5  A    between atoms: N_8  and  C_9
REMARK                            x       y       z     vdW  Elec       q    Type
REMARK                         _______ _______ _______ _____ _____    ______ ____
ROOT
ATOM      1  N   UNL     1       4.492   2.613  18.533  0.00  0.00    +0.000 N 
ATOM      2  H   UNL     1       4.833   2.416  19.488  0.00  0.00    +0.000 HD
ENDROOT
BRANCH   1   3
ATOM      3  C   UNL     1       5.188   3.570  17.736  0.00  0.00    +0.000 A 
ATOM      4  C   UNL     1       5.064   3.612  16.325  0.00  0.00    +0.000 A 
ATOM      5  C   UNL     1       5.769   4.567  15.567  0.00  0.00    +0.000 A 
ATOM      6 CL   UNL     1       5.602   4.600  13.821  0.00  0.00    +0.000 Cl
ATOM      7  C   UNL     1       6.603   5.487  16.216  0.00  0.00    +0.000 A 
ATOM      8  N   UNL     1       6.694   5.417  17.566  0.00  0.00    +0.000 N 
ATOM      9  C   UNL     1       7.397   6.143  18.461  0.00  0.00    +0.000 A 
ATOM     10  O   UNL     1       8.134   7.072  18.182  0.00  0.00    +0.000 OA
ATOM     11  N   UNL     1       7.165   5.692  19.720  0.00  0.00    +0.000 N 
ATOM     12  N   UNL     1       6.312   4.674  19.634  0.00  0.00    +0.000 NA
ATOM     13  C   UNL     1       6.036   4.520  18.319  0.00  0.00    +0.000 A 
ATOM     14  H   UNL     1       7.570   6.060  20.610  0.00  0.00    +0.000 HD
ENDBRANCH   1   3
BRANCH   1  15
ATOM     15  C   UNL     1       3.332   1.899  18.033  0.00  0.00    +0.000 C 
BRANCH  15  16
ATOM     16  C   UNL     1       2.133   2.040  18.979  0.00  0.00    +0.000 C 
BRANCH  16  17
ATOM     17  C   UNL     1       1.171   3.152  18.524  0.00  0.00    +0.000 C 
BRANCH  17  21
ATOM     18  N   UNL     1       3.284   7.581  17.664  0.00  0.00    +0.000 N 
ATOM     19  C   UNL     1       2.632   6.681  18.540  0.00  0.00    +0.000 A 
ATOM     20  C   UNL     1       2.236   5.414  18.092  0.00  0.00    +0.000 A 
ATOM     21  C   UNL     1       1.603   4.528  18.980  0.00  0.00    +0.000 A 
ATOM     22  C   UNL     1       1.374   4.941  20.301  0.00  0.00    +0.000 A 
ATOM     23  C   UNL     1       1.778   6.216  20.707  0.00  0.00    +0.000 A 
ATOM     24  N   UNL     1       2.394   7.049  19.828  0.00  0.00    +0.000 NA
ATOM     25  H   UNL     1       3.486   7.317  16.689  0.00  0.00    +0.000 HD
ATOM     26  H   UNL     1       3.575   8.511  17.999  0.00  0.00    +0.000 HD
ENDBRANCH  17  21
ENDBRANCH  16  17
ENDBRANCH  15  16
ENDBRANCH   1  15
TORSDOF 5
ENDMDL
MODEL 3
REMARK VINA RESULT:      -7.2      4.175      6.913
REMARK  Name = 
REMARK  5 active torsions:
REMARK  status: ('A' for Active; 'I' for Inactive)
REMARK    1  A    between atoms: C_4  and  C_5
REMARK    2  A    between atoms: C_5  and  C_6
REMARK    3  A    between atoms: C_6  and  C_7
REMARK    4  A    between atoms: C_7  and  N_8
REMARK    5  A    between atoms: N_8  and  C_9
REMARK                            x       y       z     vdW  Elec       q    Type
REMARK                         _______ _______ _______ _____ _____    ______ ____
ROOT
ATOM      1  N   UNL     1       6.612   6.915  16.747  0.00  0.00    +0.000 N 
ATOM      2  H   UNL     1       6.656   6.911  15.715  0.00  0.00    +0.000 HD
ENDROOT
BRANCH   1   3
ATOM      3  C   UNL     1       5.374   6.602  17.384  0.00  0.00    +0.000 A 
ATOM      4  C   UNL     1       4.248   7.459  17.310  0.00  0.00    +0.000 A 
ATOM      5  C   UNL     1       3.041   7.124  17.954  0.00  0.00    +0.000 A 
ATOM      6 CL   UNL     1       1.660   8.199  17.850  0.00  0.00    +0.000 Cl
ATOM      7  C   UNL     1       2.953   5.927  18.678  0.00  0.00    +0.000 A 
ATOM      8  N   UNL     1       4.050   5.133  18.726  0.00  0.00    +0.000 N 
ATOM      9  C   UNL     1       4.279   3.947  19.327  0.00  0.00    +0.000 A 
ATOM     10  O   UNL     1       3.462   3.330  19.989  0.00  0.00    +0.000 OA
ATOM     11  N   UNL     1       5.550   3.535  19.089  0.00  0.00    +0.000 N 
ATOM     12  N   UNL     1       6.140   4.459  18.335  0.00  0.00    +0.000 NA
ATOM     13  C   UNL     1       5.215   5.423  18.123  0.00  0.00    +0.000 A 
ATOM     14  H   UNL     1       6.005   2.657  19.427  0.00  0.00    +0.000 HD
ENDBRANCH   1   3
BRANCH   1  15
ATOM     15  C   UNL     1       7.808   7.220  17.508  0.00  0.00    +0.000 C 
BRANCH  15  16
ATOM     16  C   UNL     1       7.920   8.721  17.804  0.00  0.00    +0.000 C 
BRANCH  16  17
ATOM     17  C   UNL     1       8.944   9.012  18.916  0.00  0.00    +0.000 C 
BRANCH  17  21
ATOM     18  N   UNL     1       9.799  13.559  17.068  0.00  0.00    +0.000 N 
ATOM     19  C   UNL     1       9.626  12.697  18.177  0.00  0.00    +0.000 A 
ATOM     20  C   UNL     1       9.370  11.332  17.983  0.00  0.00    +0.000 A 
ATOM     21  C   UNL     1       9.215  10.489  19.096  0.00  0.00    +0.000 A 
ATOM     22  C   UNL     1       9.314  11.039  20.383  0.00  0.00    +0.000 A 
ATOM     23  C   UNL     1       9.564  12.406  20.533  0.00  0.00    +0.000 A 
ATOM     24  N   UNL     1       9.715  13.196  19.439  0.00  0.00    +0.000 NA
ATOM     25  H   UNL     1       9.749  13.197  16.105  0.00  0.00    +0.000 HD
ATOM     26  H   UNL     1       9.988  14.561  17.215  0.00  0.00    +0.000 HD
ENDBRANCH  17  21
ENDBRANCH  16  17
ENDBRANCH  15  16
ENDBRANCH   1  15
TORSDOF 5
ENDMDL
MODEL 4
REMARK VINA RESULT:      -7.2      3.167      6.019
REMARK  Name = 
REMARK  5 active torsions:
REMARK  status: ('A' for Active; 'I' for Inactive)
REMARK    1  A    between atoms: C_4  and  C_5
REMARK    2  A    between atoms: C_5  and  C_6
REMARK    3  A    between atoms: C_6  and  C_7
REMARK    4  A    between atoms: C_7  and  N_8
REMARK    5  A    between atoms: N_8  and  C_9
REMARK                            x       y       z     vdW  Elec       q    Type
REMARK                         _______ _______ _______ _____ _____    ______ ____
ROOT
ATOM      1  N   UNL     1       3.294   4.369  17.028  0.00  0.00    +0.000 N 
ATOM      2  H   UNL     1       2.733   4.581  16.186  0.00  0.00    +0.000 HD
ENDROOT
BRANCH   1   3
ATOM      3  C   UNL     1       2.764   4.702  18.310  0.00  0.00    +0.000 A 
ATOM      4  C   UNL     1       2.563   6.043  18.720  0.00  0.00    +0.000 A 
ATOM      5  C   UNL     1       2.043   6.339  19.995  0.00  0.00    +0.000 A 
ATOM      6 CL   UNL     1       1.803   8.006  20.483  0.00  0.00    +0.000 Cl
ATOM      7  C   UNL     1       1.721   5.292  20.870  0.00  0.00    +0.000 A 
ATOM      8  N   UNL     1       1.925   4.023  20.442  0.00  0.00    +0.000 N 
ATOM      9  C   UNL     1       1.721   2.828  21.035  0.00  0.00    +0.000 A 
ATOM     10  O   UNL     1       1.275   2.672  22.158  0.00  0.00    +0.000 OA
ATOM     11  N   UNL     1       2.083   1.820  20.201  0.00  0.00    +0.000 N 
ATOM     12  N   UNL     1       2.521   2.368  19.071  0.00  0.00    +0.000 NA
ATOM     13  C   UNL     1       2.419   3.707  19.233  0.00  0.00    +0.000 A 
ATOM     14  H   UNL     1       2.035   0.793  20.390  0.00  0.00    +0.000 HD
ENDBRANCH   1   3
BRANCH   1  15
ATOM     15  C   UNL     1       4.586   3.728  16.877  0.00  0.00    +0.000 C 
BRANCH  15  16
ATOM     16  C   UNL     1       5.278   4.155  15.577  0.00  0.00    +0.000 C 
BRANCH  16  17
ATOM     17  C   UNL     1       6.806   4.241  15.742  0.00  0.00    +0.000 C 
BRANCH  17  21
ATOM     18  N   UNL     1       8.516   5.260  20.309  0.00  0.00    +0.000 N 
ATOM     19  C   UNL     1       8.066   5.697  19.041  0.00  0.00    +0.000 A 
ATOM     20  C   UNL     1       7.686   4.768  18.063  0.00  0.00    +0.000 A 
ATOM     21  C   UNL     1       7.229   5.221  16.814  0.00  0.00    +0.000 A 
ATOM     22  C   UNL     1       7.171   6.603  16.573  0.00  0.00    +0.000 A 
ATOM     23  C   UNL     1       7.566   7.496  17.573  0.00  0.00    +0.000 A 
ATOM     24  N   UNL     1       7.998   7.029  18.773  0.00  0.00    +0.000 NA
ATOM     25  H   UNL     1       8.561   4.256  20.537  0.00  0.00    +0.000 HD
ATOM     26  H   UNL     1       8.793   5.947  21.026  0.00  0.00    +0.000 HD
ENDBRANCH  17  21
ENDBRANCH  16  17
ENDBRANCH  15  16
ENDBRANCH   1  15
TORSDOF 5
ENDMDL
MODEL 5
REMARK VINA RESULT:      -7.2      4.261      7.233
REMARK  Name = 
REMARK  5 active torsions:
REMARK  status: ('A' for Active; 'I' for Inactive)
REMARK    1  A    between atoms: C_4  and  C_5
REMARK    2  A    between atoms: C_5  and  C_6
REMARK    3  A    between atoms: C_6  and  C_7
REMARK    4  A    between atoms: C_7  and  N_8
REMARK    5  A    between atoms: N_8  and  C_9
REMARK                            x       y       z     vdW  Elec       q    Type
REMARK                         _______ _______ _______ _____ _____    ______ ____
ROOT
ATOM      1  N   UNL     1       6.548   7.542  17.103  0.00  0.00    +0.000 N 
ATOM      2  H   UNL     1       5.921   8.338  16.903  0.00  0.00    +0.000 HD
ENDROOT
BRANCH   1   3
ATOM      3  C   UNL     1       6.122   6.225  16.755  0.00  0.00    +0.000 A 
ATOM      4  C   UNL     1       6.326   5.681  15.463  0.00  0.00    +0.000 A 
ATOM      5  C   UNL     1       5.889   4.379  15.151  0.00  0.00    +0.000 A 
ATOM      6 CL   UNL     1       6.152   3.725  13.545  0.00  0.00    +0.000 Cl
ATOM      7  C   UNL     1       5.242   3.613  16.129  0.00  0.00    +0.000 A 
ATOM      8  N   UNL     1       5.065   4.167  17.353  0.00  0.00    +0.000 N 
ATOM      9  C   UNL     1       4.492   3.697  18.481  0.00  0.00    +0.000 A 
ATOM     10  O   UNL     1       3.990   2.594  18.603  0.00  0.00    +0.000 OA
ATOM     11  N   UNL     1       4.551   4.631  19.465  0.00  0.00    +0.000 N 
ATOM     12  N   UNL     1       5.165   5.702  18.968  0.00  0.00    +0.000 NA
ATOM     13  C   UNL     1       5.470   5.404  17.685  0.00  0.00    +0.000 A 
ATOM     14  H   UNL     1       4.189   4.547  20.441  0.00  0.00    +0.000 HD
ENDBRANCH   1   3
BRANCH   1  15
ATOM     15  C   UNL     1       7.840   7.791  17.713  0.00  0.00    +0.000 C 
BRANCH  15  16
ATOM     16  C   UNL     1       8.145   9.292  17.793  0.00  0.00    +0.000 C 
BRANCH  16  17
ATOM     17  C   UNL     1       8.966   9.644  19.047  0.00  0.00    +0.000 C 
BRANCH  17  21
ATOM     18  N   UNL     1      12.192  12.644  16.721  0.00  0.00    +0.000 N 
ATOM     19  C   UNL     1      11.273  12.408  17.771  0.00  0.00    +0.000 A 
ATOM     20  C   UNL     1      10.600  11.182  17.863  0.00  0.00    +0.000 A 
ATOM     21  C   UNL     1       9.702  10.959  18.920  0.00  0.00    +0.000 A 
ATOM     22  C   UNL     1       9.493  11.982  19.859  0.00  0.00    +0.000 A 
ATOM     23  C   UNL     1      10.179  13.192  19.728  0.00  0.00    +0.000 A 
ATOM     24  N   UNL     1      11.046  13.376  18.698  0.00  0.00    +0.000 NA
ATOM     25  H   UNL     1      12.389  11.919  16.017  0.00  0.00    +0.000 HD
ATOM     26  H   UNL     1      12.686  13.547  16.658  0.00  0.00    +0.000 HD
ENDBRANCH  17  21
ENDBRANCH  16  17
ENDBRANCH  15  16
ENDBRANCH   1  15
TORSDOF 5
ENDMDL
MODEL 6
REMARK VINA RESULT:      -7.2      2.996      4.602
REMARK  Name = 
REMARK  5 active torsions:
REMARK  status: ('A' for Active; 'I' for Inactive)
REMARK    1  A    between atoms: C_4  and  C_5
REMARK    2  A    between atoms: C_5  and  C_6
REMARK    3  A    between atoms: C_6  and  C_7
REMARK    4  A    between atoms: C_7  and  N_8
REMARK    5  A    between atoms: N_8  and  C_9
REMARK                            x       y       z     vdW  Elec       q    Type
REMARK                         _______ _______ _______ _____ _____    ______ ____
ROOT
ATOM      1  N   UNL     1       3.453   7.814  17.856  0.00  0.00    +0.000 N 
ATOM      2  H   UNL     1       4.127   8.587  17.979  0.00  0.00    +0.000 HD
ENDROOT
BRANCH   1   3
ATOM      3  C   UNL     1       3.948   6.510  17.559  0.00  0.00    +0.000 A 
ATOM      4  C   UNL     1       3.141   5.350  17.674  0.00  0.00    +0.000 A 
ATOM      5  C   UNL     1       3.662   4.076  17.377  0.00  0.00    +0.000 A 
ATOM      6 CL   UNL     1       2.647   2.654  17.528  0.00  0.00    +0.000 Cl
ATOM      7  C   UNL     1       4.995   3.952  16.964  0.00  0.00    +0.000 A 
ATOM      8  N   UNL     1       5.735   5.083  16.865  0.00  0.00    +0.000 N 
ATOM      9  C   UNL     1       7.018   5.292  16.503  0.00  0.00    +0.000 A 
ATOM     10  O   UNL     1       7.802   4.420  16.173  0.00  0.00    +0.000 OA
ATOM     11  N   UNL     1       7.315   6.616  16.559  0.00  0.00    +0.000 N 
ATOM     12  N   UNL     1       6.220   7.258  16.958  0.00  0.00    +0.000 NA
ATOM     13  C   UNL     1       5.270   6.313  17.139  0.00  0.00    +0.000 A 
ATOM     14  H   UNL     1       8.229   7.070  16.335  0.00  0.00    +0.000 HD
ENDBRANCH   1   3
BRANCH   1  15
ATOM     15  C   UNL     1       2.035   8.079  18.005  0.00  0.00    +0.000 C 
BRANCH  15  16
ATOM     16  C   UNL     1       1.722   9.574  17.865  0.00  0.00    +0.000 C 
BRANCH  16  17
ATOM     17  C   UNL     1       0.268   9.895  18.255  0.00  0.00    +0.000 C 
BRANCH  17  21
ATOM     18  N   UNL     1      -0.628   9.262  23.114  0.00  0.00    +0.000 N 
ATOM     19  C   UNL     1      -0.295  10.104  22.027  0.00  0.00    +0.000 A 
ATOM     20  C   UNL     1      -0.177   9.580  20.733  0.00  0.00    +0.000 A 
ATOM     21  C   UNL     1       0.141  10.433  19.663  0.00  0.00    +0.000 A 
ATOM     22  C   UNL     1       0.343  11.798  19.920  0.00  0.00    +0.000 A 
ATOM     23  C   UNL     1       0.222  12.280  21.226  0.00  0.00    +0.000 A 
ATOM     24  N   UNL     1      -0.092  11.432  22.240  0.00  0.00    +0.000 NA
ATOM     25  H   UNL     1      -0.799   8.257  22.972  0.00  0.00    +0.000 HD
ATOM     26  H   UNL     1      -0.715   9.653  24.064  0.00  0.00    +0.000 HD
ENDBRANCH  17  21
ENDBRANCH  16  17
ENDBRANCH  15  16
ENDBRANCH   1  15
TORSDOF 5
ENDMDL
MODEL 7
REMARK VINA RESULT:      -7.2      4.573      7.630
REMARK  Name = 
REMARK  5 active torsions:
REMARK  status: ('A' for Active; 'I' for Inactive)
REMARK    1  A    between atoms: C_4  and  C_5
REMARK    2  A    between atoms: C_5  and  C_6
REMARK    3  A    between atoms: C_6  and  C_7
REMARK    4  A    between atoms: C_7  and  N_8
REMARK    5  A    between atoms: N_8  and  C_9
REMARK                            x       y       z     vdW  Elec       q    Type
REMARK                         _______ _______ _______ _____ _____    ______ ____
ROOT
ATOM      1  N   UNL     1       7.121   7.611  17.086  0.00  0.00    +0.000 N 
ATOM      2  H   UNL     1       7.330   7.727  16.081  0.00  0.00    +0.000 HD
ENDROOT
BRANCH   1   3
ATOM      3  C   UNL     1       5.862   7.061  17.470  0.00  0.00    +0.000 A 
ATOM      4  C   UNL     1       4.656   7.799  17.385  0.00  0.00    +0.000 A 
ATOM      5  C   UNL     1       3.430   7.228  17.776  0.00  0.00    +0.000 A 
ATOM      6 CL   UNL     1       1.949   8.161  17.664  0.00  0.00    +0.000 Cl
ATOM      7  C   UNL     1       3.402   5.912  18.257  0.00  0.00    +0.000 A 
ATOM      8  N   UNL     1       4.575   5.236  18.322  0.00  0.00    +0.000 N 
ATOM      9  C   UNL     1       4.873   3.985  18.730  0.00  0.00    +0.000 A 
ATOM     10  O   UNL     1       4.064   3.174  19.146  0.00  0.00    +0.000 OA
ATOM     11  N   UNL     1       6.206   3.755  18.612  0.00  0.00    +0.000 N 
ATOM     12  N   UNL     1       6.765   4.861  18.127  0.00  0.00    +0.000 NA
ATOM     13  C   UNL     1       5.761   5.751  17.957  0.00  0.00    +0.000 A 
ATOM     14  H   UNL     1       6.721   2.879  18.851  0.00  0.00    +0.000 HD
ENDBRANCH   1   3
BRANCH   1  15
ATOM     15  C   UNL     1       8.119   7.996  18.067  0.00  0.00    +0.000 C 
BRANCH  15  16
ATOM     16  C   UNL     1       8.415   9.499  18.009  0.00  0.00    +0.000 C 
BRANCH  16  17
ATOM     17  C   UNL     1       9.180   9.982  19.255  0.00  0.00    +0.000 C 
BRANCH  17  21
ATOM     18  N   UNL     1      11.322  13.182  16.094  0.00  0.00    +0.000 N 
ATOM     19  C   UNL     1      11.186  12.650  17.398  0.00  0.00    +0.000 A 
ATOM     20  C   UNL     1      10.269  11.622  17.654  0.00  0.00    +0.000 A 
ATOM     21  C   UNL     1      10.157  11.096  18.952  0.00  0.00    +0.000 A 
ATOM     22  C   UNL     1      10.968  11.623  19.969  0.00  0.00    +0.000 A 
ATOM     23  C   UNL     1      11.865  12.652  19.674  0.00  0.00    +0.000 A 
ATOM     24  N   UNL     1      11.955  13.137  18.409  0.00  0.00    +0.000 NA
ATOM     25  H   UNL     1      10.759  12.817  15.313  0.00  0.00    +0.000 HD
ATOM     26  H   UNL     1      11.999  13.937  15.911  0.00  0.00    +0.000 HD
ENDBRANCH  17  21
ENDBRANCH  16  17
ENDBRANCH  15  16
ENDBRANCH   1  15
TORSDOF 5
ENDMDL
MODEL 8
REMARK VINA RESULT:      -7.2      3.866      6.830
REMARK  Name = 
REMARK  5 active torsions:
REMARK  status: ('A' for Active; 'I' for Inactive)
REMARK    1  A    between atoms: C_4  and  C_5
REMARK    2  A    between atoms: C_5  and  C_6
REMARK    3  A    between atoms: C_6  and  C_7
REMARK    4  A    between atoms: C_7  and  N_8
REMARK    5  A    between atoms: N_8  and  C_9
REMARK                            x       y       z     vdW  Elec       q    Type
REMARK                         _______ _______ _______ _____ _____    ______ ____
ROOT
ATOM      1  N   UNL     1       5.728   4.249  19.223  0.00  0.00    +0.000 N 
ATOM      2  H   UNL     1       6.210   3.679  19.937  0.00  0.00    +0.000 HD
ENDROOT
BRANCH   1   3
ATOM      3  C   UNL     1       4.313   4.413  19.312  0.00  0.00    +0.000 A 
ATOM      4  C   UNL     1       3.720   5.604  19.799  0.00  0.00    +0.000 A 
ATOM      5  C   UNL     1       2.319   5.732  19.879  0.00  0.00    +0.000 A 
ATOM      6 CL   UNL     1       1.605   7.215  20.485  0.00  0.00    +0.000 Cl
ATOM      7  C   UNL     1       1.503   4.668  19.473  0.00  0.00    +0.000 A 
ATOM      8  N   UNL     1       2.107   3.546  19.013  0.00  0.00    +0.000 N 
ATOM      9  C   UNL     1       1.610   2.376  18.559  0.00  0.00    +0.000 A 
ATOM     10  O   UNL     1       0.425   2.105  18.477  0.00  0.00    +0.000 OA
ATOM     11  N   UNL     1       2.619   1.540  18.205  0.00  0.00    +0.000 N 
ATOM     12  N   UNL     1       3.767   2.174  18.432  0.00  0.00    +0.000 NA
ATOM     13  C   UNL     1       3.438   3.391  18.923  0.00  0.00    +0.000 A 
ATOM     14  H   UNL     1       2.535   0.572  17.822  0.00  0.00    +0.000 HD
ENDBRANCH   1   3
BRANCH   1  15
ATOM     15  C   UNL     1       6.505   4.873  18.169  0.00  0.00    +0.000 C 
BRANCH  15  16
ATOM     16  C   UNL     1       6.410   4.085  16.856  0.00  0.00    +0.000 C 
BRANCH  16  17
ATOM     17  C   UNL     1       5.674   4.879  15.762  0.00  0.00    +0.000 C 
BRANCH  17  21
ATOM     18  N   UNL     1       5.442   2.367  11.466  0.00  0.00    +0.000 N 
ATOM     19  C   UNL     1       6.053   3.346  12.284  0.00  0.00    +0.000 A 
ATOM     20  C   UNL     1       5.557   3.611  13.567  0.00  0.00    +0.000 A 
ATOM     21  C   UNL     1       6.185   4.577  14.371  0.00  0.00    +0.000 A 
ATOM     22  C   UNL     1       7.298   5.264  13.861  0.00  0.00    +0.000 A 
ATOM     23  C   UNL     1       7.758   4.975  12.573  0.00  0.00    +0.000 A 
ATOM     24  N   UNL     1       7.134   4.031  11.822  0.00  0.00    +0.000 NA
ATOM     25  H   UNL     1       4.632   1.827  11.803  0.00  0.00    +0.000 HD
ATOM     26  H   UNL     1       5.812   2.174  10.524  0.00  0.00    +0.000 HD
ENDBRANCH  17  21
ENDBRANCH  16  17
ENDBRANCH  15  16
ENDBRANCH   1  15
TORSDOF 5
ENDMDL
MODEL 9
REMARK VINA RESULT:      -7.1      3.775      5.076
REMARK  Name = 
REMARK  5 active torsions:
REMARK  status: ('A' for Active; 'I' for Inactive)
REMARK    1  A    between atoms: C_4  and  C_5
REMARK    2  A    between atoms: C_5  and  C_6
REMARK    3  A    between atoms: C_6  and  C_7
REMARK    4  A    between atoms: C_7  and  N_8
REMARK    5  A    between atoms: N_8  and  C_9
REMARK                            x       y       z     vdW  Elec       q    Type
REMARK                         _______ _______ _______ _____ _____    ______ ____
ROOT
ATOM      1  N   UNL     1       3.398   7.748  17.622  0.00  0.00    +0.000 N 
ATOM      2  H   UNL     1       3.798   8.521  17.064  0.00  0.00    +0.000 HD
ENDROOT
BRANCH   1   3
ATOM      3  C   UNL     1       3.946   6.439  17.477  0.00  0.00    +0.000 A 
ATOM      4  C   UNL     1       3.165   5.269  17.646  0.00  0.00    +0.000 A 
ATOM      5  C   UNL     1       3.737   3.991  17.500  0.00  0.00    +0.000 A 
ATOM      6 CL   UNL     1       2.752   2.556  17.715  0.00  0.00    +0.000 Cl
ATOM      7  C   UNL     1       5.098   3.874  17.185  0.00  0.00    +0.000 A 
ATOM      8  N   UNL     1       5.812   5.015  17.030  0.00  0.00    +0.000 N 
ATOM      9  C   UNL     1       7.111   5.232  16.732  0.00  0.00    +0.000 A 
ATOM     10  O   UNL     1       7.937   4.359  16.533  0.00  0.00    +0.000 OA
ATOM     11  N   UNL     1       7.368   6.564  16.686  0.00  0.00    +0.000 N 
ATOM     12  N   UNL     1       6.233   7.204  16.954  0.00  0.00    +0.000 NA
ATOM     13  C   UNL     1       5.298   6.249  17.161  0.00  0.00    +0.000 A 
ATOM     14  H   UNL     1       8.282   7.026  16.480  0.00  0.00    +0.000 HD
ENDBRANCH   1   3
BRANCH   1  15
ATOM     15  C   UNL     1       2.311   8.025  18.540  0.00  0.00    +0.000 C 
BRANCH  15  16
ATOM     16  C   UNL     1       1.669   9.390  18.260  0.00  0.00    +0.000 C 
BRANCH  16  17
ATOM     17  C   UNL     1       0.597   9.745  19.305  0.00  0.00    +0.000 C 
BRANCH  17  21
ATOM     18  N   UNL     1      -2.791   9.947  15.658  0.00  0.00    +0.000 N 
ATOM     19  C   UNL     1      -2.301  10.403  16.904  0.00  0.00    +0.000 A 
ATOM     20  C   UNL     1      -1.139   9.847  17.457  0.00  0.00    +0.000 A 
ATOM     21  C   UNL     1      -0.658  10.322  18.688  0.00  0.00    +0.000 A 
ATOM     22  C   UNL     1      -1.365  11.343  19.344  0.00  0.00    +0.000 A 
ATOM     23  C   UNL     1      -2.523  11.865  18.762  0.00  0.00    +0.000 A 
ATOM     24  N   UNL     1      -2.960  11.391  17.567  0.00  0.00    +0.000 NA
ATOM     25  H   UNL     1      -2.299   9.210  15.133  0.00  0.00    +0.000 HD
ATOM     26  H   UNL     1      -3.645  10.359  15.255  0.00  0.00    +0.000 HD
ENDBRANCH  17  21
ENDBRANCH  16  17
ENDBRANCH  15  16
ENDBRANCH   1  15
TORSDOF 5
ENDMDL
