MODEL 1
REMARK VINA RESULT:      -8.6      0.000      0.000
REMARK  Name = 
REMARK  9 active torsions:
REMARK  status: ('A' for Active; 'I' for Inactive)
REMARK    1  A    between atoms: C_1  and  O_2
REMARK    2  A    between atoms: O_2  and  C_3
REMARK    3  A    between atoms: C_5  and  N_6
REMARK    4  A    between atoms: C_11  and  S_12
REMARK    5  A    between atoms: S_12  and  C_13
REMARK    6  A    between atoms: C_26  and  O_27
REMARK    7  A    between atoms: O_27  and  C_28
REMARK    8  A    between atoms: C_28  and  C_29
REMARK    9  A    between atoms: C_29  and  N_30
REMARK                            x       y       z     vdW  Elec       q    Type
REMARK                         _______ _______ _______ _____ _____    ______ ____
ROOT
ATOM      1  N   UNL     1       0.953   9.114  20.289  0.00  0.00    +0.000 N 
ATOM      2  C   UNL     1       0.108   9.847  19.361  0.00  0.00    +0.000 C 
ATOM      3  C   UNL     1      -0.505  10.905  20.213  0.00  0.00    +0.000 A 
ATOM      4  C   UNL     1      -1.408  11.907  19.929  0.00  0.00    +0.000 A 
ATOM      5  C   UNL     1      -1.750  12.780  20.972  0.00  0.00    +0.000 A 
ATOM      6  C   UNL     1      -1.182  12.609  22.250  0.00  0.00    +0.000 A 
ATOM      7  N   UNL     1      -0.320  11.612  22.541  0.00  0.00    +0.000 NA
ATOM      8  C   UNL     1      -0.024  10.813  21.504  0.00  0.00    +0.000 A 
ATOM      9  C   UNL     1       0.902   9.675  21.570  0.00  0.00    +0.000 C 
ATOM     10  O   UNL     1       1.489   9.360  22.590  0.00  0.00    +0.000 OA
ENDROOT
BRANCH   1  13
ATOM     11  C   UNL     1       2.259   5.593  20.422  0.00  0.00    +0.000 A 
ATOM     12  C   UNL     1       1.603   6.791  20.745  0.00  0.00    +0.000 A 
ATOM     13  C   UNL     1       1.658   7.932  19.931  0.00  0.00    +0.000 A 
ATOM     14  C   UNL     1       2.408   7.857  18.755  0.00  0.00    +0.000 A 
ATOM     15  C   UNL     1       3.058   6.665  18.409  0.00  0.00    +0.000 A 
ATOM     16  C   UNL     1       2.959   5.519  19.212  0.00  0.00    +0.000 A 
BRANCH  11  18
ATOM     17  C   UNL     1       1.363   3.421  20.956  0.00  0.00    +0.000 C 
ATOM     18  O   UNL     1       2.256   4.494  21.235  0.00  0.00    +0.000 OA
ENDBRANCH  11  18
BRANCH  16  19
ATOM     19  O   UNL     1       3.613   4.432  18.694  0.00  0.00    +0.000 OA
BRANCH  19  20
ATOM     20  C   UNL     1       3.797   4.324  17.269  0.00  0.00    +0.000 C 
BRANCH  20  21
ATOM     21  C   UNL     1       5.279   4.242  16.866  0.00  0.00    +0.000 C 
BRANCH  21  22
ATOM     22  N   UNL     1       6.224   5.195  17.409  0.00  0.00    +0.000 NA
ATOM     23  C   UNL     1       7.476   4.776  17.992  0.00  0.00    +0.000 C 
ATOM     24  C   UNL     1       7.837   6.077  18.689  0.00  0.00    +0.000 C 
ATOM     25  C   UNL     1       7.435   7.155  17.681  0.00  0.00    +0.000 C 
ATOM     26  C   UNL     1       6.404   6.482  16.769  0.00  0.00    +0.000 C 
ENDBRANCH  21  22
ENDBRANCH  20  21
ENDBRANCH  19  20
ENDBRANCH  16  19
ENDBRANCH   1  13
BRANCH   6  27
ATOM     27  S   UNL     1      -1.474  13.814  23.524  0.00  0.00    +0.000 S 
BRANCH  27  28
ATOM     28  C   UNL     1      -3.244  13.750  23.716  0.00  0.00    +0.000 A 
ATOM     29  C   UNL     1      -3.912  12.597  24.153  0.00  0.00    +0.000 A 
ATOM     30  C   UNL     1      -5.298  12.614  24.335  0.00  0.00    +0.000 A 
ATOM     31  C   UNL     1      -6.018  13.780  24.089  0.00  0.00    +0.000 A 
ATOM     32 CL   UNL     1      -7.724  13.800  24.308  0.00  0.00    +0.000 Cl
ATOM     33  C   UNL     1      -5.364  14.936  23.672  0.00  0.00    +0.000 A 
ATOM     34  C   UNL     1      -3.979  14.922  23.489  0.00  0.00    +0.000 A 
ENDBRANCH  27  28
ENDBRANCH   6  27
TORSDOF 8
ENDMDL
MODEL 2
REMARK VINA RESULT:      -8.4      0.546      1.200
REMARK  Name = 
REMARK  9 active torsions:
REMARK  status: ('A' for Active; 'I' for Inactive)
REMARK    1  A    between atoms: C_1  and  O_2
REMARK    2  A    between atoms: O_2  and  C_3
REMARK    3  A    between atoms: C_5  and  N_6
REMARK    4  A    between atoms: C_11  and  S_12
REMARK    5  A    between atoms: S_12  and  C_13
REMARK    6  A    between atoms: C_26  and  O_27
REMARK    7  A    between atoms: O_27  and  C_28
REMARK    8  A    between atoms: C_28  and  C_29
REMARK    9  A    between atoms: C_29  and  N_30
REMARK                            x       y       z     vdW  Elec       q    Type
REMARK                         _______ _______ _______ _____ _____    ______ ____
ROOT
ATOM      1  N   UNL     1       0.919   9.160  20.219  0.00  0.00    +0.000 N 
ATOM      2  C   UNL     1       0.089   9.919  19.298  0.00  0.00    +0.000 C 
ATOM      3  C   UNL     1      -0.515  10.972  20.162  0.00  0.00    +0.000 A 
ATOM      4  C   UNL     1      -1.403  11.990  19.888  0.00  0.00    +0.000 A 
ATOM      5  C   UNL     1      -1.740  12.852  20.943  0.00  0.00    +0.000 A 
ATOM      6  C   UNL     1      -1.182  12.653  22.221  0.00  0.00    +0.000 A 
ATOM      7  N   UNL     1      -0.334  11.640  22.502  0.00  0.00    +0.000 NA
ATOM      8  C   UNL     1      -0.043  10.853  21.454  0.00  0.00    +0.000 A 
ATOM      9  C   UNL     1       0.867   9.703  21.508  0.00  0.00    +0.000 C 
ATOM     10  O   UNL     1       1.444   9.363  22.526  0.00  0.00    +0.000 OA
ENDROOT
BRANCH   1  13
ATOM     11  C   UNL     1       2.235   5.644  20.342  0.00  0.00    +0.000 A 
ATOM     12  C   UNL     1       1.592   6.844  20.678  0.00  0.00    +0.000 A 
ATOM     13  C   UNL     1       1.610   7.974  19.846  0.00  0.00    +0.000 A 
ATOM     14  C   UNL     1       2.310   7.885  18.641  0.00  0.00    +0.000 A 
ATOM     15  C   UNL     1       2.946   6.689  18.283  0.00  0.00    +0.000 A 
ATOM     16  C   UNL     1       2.884   5.554  19.105  0.00  0.00    +0.000 A 
BRANCH  11  18
ATOM     17  C   UNL     1       1.311   3.517  20.998  0.00  0.00    +0.000 C 
ATOM     18  O   UNL     1       2.270   4.555  21.170  0.00  0.00    +0.000 OA
ENDBRANCH  11  18
BRANCH  16  19
ATOM     19  O   UNL     1       3.517   4.461  18.574  0.00  0.00    +0.000 OA
BRANCH  19  20
ATOM     20  C   UNL     1       4.896   4.205  18.908  0.00  0.00    +0.000 C 
BRANCH  20  21
ATOM     21  C   UNL     1       5.856   4.537  17.752  0.00  0.00    +0.000 C 
BRANCH  21  22
ATOM     22  N   UNL     1       6.706   5.706  17.839  0.00  0.00    +0.000 NA
ATOM     23  C   UNL     1       6.282   6.991  17.337  0.00  0.00    +0.000 C 
ATOM     24  C   UNL     1       7.634   7.684  17.346  0.00  0.00    +0.000 C 
ATOM     25  C   UNL     1       8.282   7.204  18.646  0.00  0.00    +0.000 C 
ATOM     26  C   UNL     1       7.553   5.902  18.996  0.00  0.00    +0.000 C 
ENDBRANCH  21  22
ENDBRANCH  20  21
ENDBRANCH  19  20
ENDBRANCH  16  19
ENDBRANCH   1  13
BRANCH   6  27
ATOM     27  S   UNL     1      -1.465  13.842  23.512  0.00  0.00    +0.000 S 
BRANCH  27  28
ATOM     28  C   UNL     1      -3.232  13.771  23.720  0.00  0.00    +0.000 A 
ATOM     29  C   UNL     1      -4.086  14.777  23.248  0.00  0.00    +0.000 A 
ATOM     30  C   UNL     1      -5.471  14.650  23.392  0.00  0.00    +0.000 A 
ATOM     31  C   UNL     1      -6.006  13.517  24.000  0.00  0.00    +0.000 A 
ATOM     32 CL   UNL     1      -7.710  13.362  24.183  0.00  0.00    +0.000 Cl
ATOM     33  C   UNL     1      -5.170  12.503  24.457  0.00  0.00    +0.000 A 
ATOM     34  C   UNL     1      -3.786  12.628  24.314  0.00  0.00    +0.000 A 
ENDBRANCH  27  28
ENDBRANCH   6  27
TORSDOF 8
ENDMDL
MODEL 3
REMARK VINA RESULT:      -8.1      3.215      4.588
REMARK  Name = 
REMARK  9 active torsions:
REMARK  status: ('A' for Active; 'I' for Inactive)
REMARK    1  A    between atoms: C_1  and  O_2
REMARK    2  A    between atoms: O_2  and  C_3
REMARK    3  A    between atoms: C_5  and  N_6
REMARK    4  A    between atoms: C_11  and  S_12
REMARK    5  A    between atoms: S_12  and  C_13
REMARK    6  A    between atoms: C_26  and  O_27
REMARK    7  A    between atoms: O_27  and  C_28
REMARK    8  A    between atoms: C_28  and  C_29
REMARK    9  A    between atoms: C_29  and  N_30
REMARK                            x       y       z     vdW  Elec       q    Type
REMARK                         _______ _______ _______ _____ _____    ______ ____
ROOT
ATOM      1  N   UNL     1       2.391   7.668  18.776  0.00  0.00    +0.000 N 
ATOM      2  C   UNL     1       1.746   7.506  20.069  0.00  0.00    +0.000 C 
ATOM      3  C   UNL     1       1.005   8.786  20.249  0.00  0.00    +0.000 A 
ATOM      4  C   UNL     1       0.213   9.255  21.276  0.00  0.00    +0.000 A 
ATOM      5  C   UNL     1      -0.384  10.512  21.106  0.00  0.00    +0.000 A 
ATOM      6  C   UNL     1      -0.158  11.246  19.925  0.00  0.00    +0.000 A 
ATOM      7  N   UNL     1       0.640  10.805  18.928  0.00  0.00    +0.000 NA
ATOM      8  C   UNL     1       1.178   9.594  19.143  0.00  0.00    +0.000 A 
ATOM      9  C   UNL     1       2.061   8.899  18.198  0.00  0.00    +0.000 C 
ATOM     10  O   UNL     1       2.381   9.372  17.122  0.00  0.00    +0.000 OA
ENDROOT
BRANCH   1  13
ATOM     11  C   UNL     1       3.758   4.431  17.446  0.00  0.00    +0.000 A 
ATOM     12  C   UNL     1       2.904   5.396  17.999  0.00  0.00    +0.000 A 
ATOM     13  C   UNL     1       3.304   6.719  18.239  0.00  0.00    +0.000 A 
ATOM     14  C   UNL     1       4.616   7.071  17.914  0.00  0.00    +0.000 A 
ATOM     15  C   UNL     1       5.480   6.124  17.348  0.00  0.00    +0.000 A 
ATOM     16  C   UNL     1       5.052   4.816  17.075  0.00  0.00    +0.000 A 
BRANCH  11  18
ATOM     17  C   UNL     1       2.159   2.663  17.793  0.00  0.00    +0.000 C 
ATOM     18  O   UNL     1       3.395   3.126  17.259  0.00  0.00    +0.000 OA
ENDBRANCH  11  18
BRANCH  16  19
ATOM     19  O   UNL     1       6.011   4.043  16.474  0.00  0.00    +0.000 OA
BRANCH  19  20
ATOM     20  C   UNL     1       6.534   4.430  15.188  0.00  0.00    +0.000 C 
BRANCH  20  21
ATOM     21  C   UNL     1       5.513   4.245  14.052  0.00  0.00    +0.000 C 
BRANCH  21  22
ATOM     22  N   UNL     1       5.842   3.404  12.922  0.00  0.00    +0.000 NA
ATOM     23  C   UNL     1       4.858   3.048  11.927  0.00  0.00    +0.000 C 
ATOM     24  C   UNL     1       5.625   1.920  11.257  0.00  0.00    +0.000 C 
ATOM     25  C   UNL     1       7.063   2.438  11.201  0.00  0.00    +0.000 C 
ATOM     26  C   UNL     1       7.140   3.515  12.289  0.00  0.00    +0.000 C 
ENDBRANCH  21  22
ENDBRANCH  20  21
ENDBRANCH  19  20
ENDBRANCH  16  19
ENDBRANCH   1  13
BRANCH   6  27
ATOM     27  S   UNL     1      -1.050  12.755  19.628  0.00  0.00    +0.000 S 
BRANCH  27  28
ATOM     28  C   UNL     1      -2.682  12.164  19.225  0.00  0.00    +0.000 A 
ATOM     29  C   UNL     1      -2.910  11.206  18.228  0.00  0.00    +0.000 A 
ATOM     30  C   UNL     1      -4.205  10.738  17.985  0.00  0.00    +0.000 A 
ATOM     31  C   UNL     1      -5.272  11.220  18.739  0.00  0.00    +0.000 A 
ATOM     32 CL   UNL     1      -6.867  10.650  18.436  0.00  0.00    +0.000 Cl
ATOM     33  C   UNL     1      -5.056  12.160  19.744  0.00  0.00    +0.000 A 
ATOM     34  C   UNL     1      -3.763  12.628  19.988  0.00  0.00    +0.000 A 
ENDBRANCH  27  28
ENDBRANCH   6  27
TORSDOF 8
ENDMDL
MODEL 4
REMARK VINA RESULT:      -8.1      1.888      2.436
REMARK  Name = 
REMARK  9 active torsions:
REMARK  status: ('A' for Active; 'I' for Inactive)
REMARK    1  A    between atoms: C_1  and  O_2
REMARK    2  A    between atoms: O_2  and  C_3
REMARK    3  A    between atoms: C_5  and  N_6
REMARK    4  A    between atoms: C_11  and  S_12
REMARK    5  A    between atoms: S_12  and  C_13
REMARK    6  A    between atoms: C_26  and  O_27
REMARK    7  A    between atoms: O_27  and  C_28
REMARK    8  A    between atoms: C_28  and  C_29
REMARK    9  A    between atoms: C_29  and  N_30
REMARK                            x       y       z     vdW  Elec       q    Type
REMARK                         _______ _______ _______ _____ _____    ______ ____
ROOT
ATOM      1  N   UNL     1       1.255   8.348  20.251  0.00  0.00    +0.000 N 
ATOM      2  C   UNL     1       0.829   8.291  21.639  0.00  0.00    +0.000 C 
ATOM      3  C   UNL     1       0.184   9.616  21.858  0.00  0.00    +0.000 A 
ATOM      4  C   UNL     1      -0.404  10.181  22.970  0.00  0.00    +0.000 A 
ATOM      5  C   UNL     1      -0.967  11.457  22.822  0.00  0.00    +0.000 A 
ATOM      6  C   UNL     1      -0.911  12.112  21.577  0.00  0.00    +0.000 A 
ATOM      7  N   UNL     1      -0.311  11.576  20.492  0.00  0.00    +0.000 NA
ATOM      8  C   UNL     1       0.203  10.352  20.691  0.00  0.00    +0.000 A 
ATOM      9  C   UNL     1       0.885   9.561  19.659  0.00  0.00    +0.000 C 
ATOM     10  O   UNL     1       1.041   9.957  18.517  0.00  0.00    +0.000 OA
ENDROOT
BRANCH   1  13
ATOM     11  C   UNL     1       2.819   4.993  19.608  0.00  0.00    +0.000 A 
ATOM     12  C   UNL     1       2.097   6.042  20.195  0.00  0.00    +0.000 A 
ATOM     13  C   UNL     1       2.024   7.324  19.631  0.00  0.00    +0.000 A 
ATOM     14  C   UNL     1       2.713   7.550  18.437  0.00  0.00    +0.000 A 
ATOM     15  C   UNL     1       3.428   6.510  17.829  0.00  0.00    +0.000 A 
ATOM     16  C   UNL     1       3.457   5.222  18.383  0.00  0.00    +0.000 A 
BRANCH  11  18
ATOM     17  C   UNL     1       1.773   3.069  20.612  0.00  0.00    +0.000 C 
ATOM     18  O   UNL     1       2.941   3.755  20.178  0.00  0.00    +0.000 OA
ENDBRANCH  11  18
BRANCH  16  19
ATOM     19  O   UNL     1       4.160   4.319  17.629  0.00  0.00    +0.000 OA
BRANCH  19  20
ATOM     20  C   UNL     1       5.513   3.987  17.994  0.00  0.00    +0.000 C 
BRANCH  20  21
ATOM     21  C   UNL     1       6.556   4.663  17.087  0.00  0.00    +0.000 C 
BRANCH  21  22
ATOM     22  N   UNL     1       7.174   5.903  17.505  0.00  0.00    +0.000 NA
ATOM     23  C   UNL     1       6.622   7.187  17.141  0.00  0.00    +0.000 C 
ATOM     24  C   UNL     1       7.822   8.048  17.501  0.00  0.00    +0.000 C 
ATOM     25  C   UNL     1       8.334   7.434  18.805  0.00  0.00    +0.000 C 
ATOM     26  C   UNL     1       7.789   6.002  18.812  0.00  0.00    +0.000 C 
ENDBRANCH  21  22
ENDBRANCH  20  21
ENDBRANCH  19  20
ENDBRANCH  16  19
ENDBRANCH   1  13
BRANCH   6  27
ATOM     27  S   UNL     1      -1.775  13.647  21.337  0.00  0.00    +0.000 S 
BRANCH  27  28
ATOM     28  C   UNL     1      -3.433  13.104  20.981  0.00  0.00    +0.000 A 
ATOM     29  C   UNL     1      -3.797  12.558  19.743  0.00  0.00    +0.000 A 
ATOM     30  C   UNL     1      -5.101  12.100  19.530  0.00  0.00    +0.000 A 
ATOM     31  C   UNL     1      -6.041  12.179  20.555  0.00  0.00    +0.000 A 
ATOM     32 CL   UNL     1      -7.648  11.621  20.293  0.00  0.00    +0.000 Cl
ATOM     33  C   UNL     1      -5.688  12.703  21.795  0.00  0.00    +0.000 A 
ATOM     34  C   UNL     1      -4.385  13.161  22.009  0.00  0.00    +0.000 A 
ENDBRANCH  27  28
ENDBRANCH   6  27
TORSDOF 8
ENDMDL
MODEL 5
REMARK VINA RESULT:      -8.1      1.339      1.770
REMARK  Name = 
REMARK  9 active torsions:
REMARK  status: ('A' for Active; 'I' for Inactive)
REMARK    1  A    between atoms: C_1  and  O_2
REMARK    2  A    between atoms: O_2  and  C_3
REMARK    3  A    between atoms: C_5  and  N_6
REMARK    4  A    between atoms: C_11  and  S_12
REMARK    5  A    between atoms: S_12  and  C_13
REMARK    6  A    between atoms: C_26  and  O_27
REMARK    7  A    between atoms: O_27  and  C_28
REMARK    8  A    between atoms: C_28  and  C_29
REMARK    9  A    between atoms: C_29  and  N_30
REMARK                            x       y       z     vdW  Elec       q    Type
REMARK                         _______ _______ _______ _____ _____    ______ ____
ROOT
ATOM      1  N   UNL     1       1.113   8.392  20.443  0.00  0.00    +0.000 N 
ATOM      2  C   UNL     1       0.565   8.325  21.787  0.00  0.00    +0.000 C 
ATOM      3  C   UNL     1      -0.008   9.685  21.996  0.00  0.00    +0.000 A 
ATOM      4  C   UNL     1      -0.652  10.257  23.073  0.00  0.00    +0.000 A 
ATOM      5  C   UNL     1      -1.115  11.572  22.921  0.00  0.00    +0.000 A 
ATOM      6  C   UNL     1      -0.909  12.256  21.707  0.00  0.00    +0.000 A 
ATOM      7  N   UNL     1      -0.254  11.711  20.660  0.00  0.00    +0.000 NA
ATOM      8  C   UNL     1       0.160  10.450  20.860  0.00  0.00    +0.000 A 
ATOM      9  C   UNL     1       0.876   9.644  19.863  0.00  0.00    +0.000 C 
ATOM     10  O   UNL     1       1.155  10.060  18.752  0.00  0.00    +0.000 OA
ENDROOT
BRANCH   1  13
ATOM     11  C   UNL     1       2.679   5.013  19.945  0.00  0.00    +0.000 A 
ATOM     12  C   UNL     1       1.972   6.093  20.495  0.00  0.00    +0.000 A 
ATOM     13  C   UNL     1       1.864   7.337  19.855  0.00  0.00    +0.000 A 
ATOM     14  C   UNL     1       2.500   7.491  18.622  0.00  0.00    +0.000 A 
ATOM     15  C   UNL     1       3.198   6.420  18.050  0.00  0.00    +0.000 A 
ATOM     16  C   UNL     1       3.262   5.169  18.682  0.00  0.00    +0.000 A 
BRANCH  11  18
ATOM     17  C   UNL     1       1.747   2.900  20.631  0.00  0.00    +0.000 C 
ATOM     18  O   UNL     1       2.836   3.815  20.585  0.00  0.00    +0.000 OA
ENDBRANCH  11  18
BRANCH  16  19
ATOM     19  O   UNL     1       3.941   4.225  17.956  0.00  0.00    +0.000 OA
BRANCH  19  20
ATOM     20  C   UNL     1       4.843   4.643  16.913  0.00  0.00    +0.000 C 
BRANCH  20  21
ATOM     21  C   UNL     1       6.317   4.606  17.354  0.00  0.00    +0.000 C 
BRANCH  21  22
ATOM     22  N   UNL     1       7.008   5.842  17.650  0.00  0.00    +0.000 NA
ATOM     23  C   UNL     1       6.461   7.126  17.280  0.00  0.00    +0.000 C 
ATOM     24  C   UNL     1       7.715   7.962  17.481  0.00  0.00    +0.000 C 
ATOM     25  C   UNL     1       8.333   7.391  18.758  0.00  0.00    +0.000 C 
ATOM     26  C   UNL     1       7.751   5.980  18.886  0.00  0.00    +0.000 C 
ENDBRANCH  21  22
ENDBRANCH  20  21
ENDBRANCH  19  20
ENDBRANCH  16  19
ENDBRANCH   1  13
BRANCH   6  27
ATOM     27  S   UNL     1      -1.648  13.852  21.447  0.00  0.00    +0.000 S 
BRANCH  27  28
ATOM     28  C   UNL     1      -3.266  13.649  22.162  0.00  0.00    +0.000 A 
ATOM     29  C   UNL     1      -4.246  12.829  21.586  0.00  0.00    +0.000 A 
ATOM     30  C   UNL     1      -5.484  12.664  22.213  0.00  0.00    +0.000 A 
ATOM     31  C   UNL     1      -5.744  13.310  23.420  0.00  0.00    +0.000 A 
ATOM     32 CL   UNL     1      -7.270  13.111  24.191  0.00  0.00    +0.000 Cl
ATOM     33  C   UNL     1      -4.773  14.113  24.011  0.00  0.00    +0.000 A 
ATOM     34  C   UNL     1      -3.535  14.279  23.385  0.00  0.00    +0.000 A 
ENDBRANCH  27  28
ENDBRANCH   6  27
TORSDOF 8
ENDMDL
MODEL 6
REMARK VINA RESULT:      -8.0      2.600      3.305
REMARK  Name = 
REMARK  9 active torsions:
REMARK  status: ('A' for Active; 'I' for Inactive)
REMARK    1  A    between atoms: C_1  and  O_2
REMARK    2  A    between atoms: O_2  and  C_3
REMARK    3  A    between atoms: C_5  and  N_6
REMARK    4  A    between atoms: C_11  and  S_12
REMARK    5  A    between atoms: S_12  and  C_13
REMARK    6  A    between atoms: C_26  and  O_27
REMARK    7  A    between atoms: O_27  and  C_28
REMARK    8  A    between atoms: C_28  and  C_29
REMARK    9  A    between atoms: C_29  and  N_30
REMARK                            x       y       z     vdW  Elec       q    Type
REMARK                         _______ _______ _______ _____ _____    ______ ____
ROOT
ATOM      1  N   UNL     1       1.624   8.101  19.922  0.00  0.00    +0.000 N 
ATOM      2  C   UNL     1       1.082   8.076  21.271  0.00  0.00    +0.000 C 
ATOM      3  C   UNL     1       0.401   9.396  21.394  0.00  0.00    +0.000 A 
ATOM      4  C   UNL     1      -0.288   9.982  22.435  0.00  0.00    +0.000 A 
ATOM      5  C   UNL     1      -0.855  11.243  22.201  0.00  0.00    +0.000 A 
ATOM      6  C   UNL     1      -0.703  11.863  20.945  0.00  0.00    +0.000 A 
ATOM      7  N   UNL     1      -0.005  11.307  19.932  0.00  0.00    +0.000 NA
ATOM      8  C   UNL     1       0.509  10.099  20.211  0.00  0.00    +0.000 A 
ATOM      9  C   UNL     1       1.288   9.290  19.265  0.00  0.00    +0.000 C 
ATOM     10  O   UNL     1       1.534   9.656  18.129  0.00  0.00    +0.000 OA
ENDROOT
BRANCH   1  13
ATOM     11  C   UNL     1       3.308   4.765  19.532  0.00  0.00    +0.000 A 
ATOM     12  C   UNL     1       2.522   5.818  20.023  0.00  0.00    +0.000 A 
ATOM     13  C   UNL     1       2.458   7.074  19.401  0.00  0.00    +0.000 A 
ATOM     14  C   UNL     1       3.224   7.269  18.249  0.00  0.00    +0.000 A 
ATOM     15  C   UNL     1       4.004   6.224  17.737  0.00  0.00    +0.000 A 
ATOM     16  C   UNL     1       4.024   4.961  18.346  0.00  0.00    +0.000 A 
BRANCH  11  18
ATOM     17  C   UNL     1       2.446   3.181  21.131  0.00  0.00    +0.000 C 
ATOM     18  O   UNL     1       3.419   3.555  20.162  0.00  0.00    +0.000 OA
ENDBRANCH  11  18
BRANCH  16  19
ATOM     19  O   UNL     1       4.799   4.047  17.681  0.00  0.00    +0.000 OA
BRANCH  19  20
ATOM     20  C   UNL     1       5.653   4.485  16.606  0.00  0.00    +0.000 C 
BRANCH  20  21
ATOM     21  C   UNL     1       5.711   3.478  15.445  0.00  0.00    +0.000 C 
BRANCH  21  22
ATOM     22  N   UNL     1       6.355   3.849  14.204  0.00  0.00    +0.000 NA
ATOM     23  C   UNL     1       5.755   3.564  12.922  0.00  0.00    +0.000 C 
ATOM     24  C   UNL     1       6.976   3.812  12.051  0.00  0.00    +0.000 C 
ATOM     25  C   UNL     1       7.625   5.048  12.677  0.00  0.00    +0.000 C 
ATOM     26  C   UNL     1       7.100   5.088  14.116  0.00  0.00    +0.000 C 
ENDBRANCH  21  22
ENDBRANCH  20  21
ENDBRANCH  19  20
ENDBRANCH  16  19
ENDBRANCH   1  13
BRANCH   6  27
ATOM     27  S   UNL     1      -1.567  13.375  20.587  0.00  0.00    +0.000 S 
BRANCH  27  28
ATOM     28  C   UNL     1      -3.226  12.807  20.277  0.00  0.00    +0.000 A 
ATOM     29  C   UNL     1      -3.585  12.143  19.097  0.00  0.00    +0.000 A 
ATOM     30  C   UNL     1      -4.890  11.672  18.923  0.00  0.00    +0.000 A 
ATOM     31  C   UNL     1      -5.836  11.856  19.929  0.00  0.00    +0.000 A 
ATOM     32 CL   UNL     1      -7.444  11.282  19.714  0.00  0.00    +0.000 Cl
ATOM     33  C   UNL     1      -5.487  12.499  21.113  0.00  0.00    +0.000 A 
ATOM     34  C   UNL     1      -4.184  12.970  21.288  0.00  0.00    +0.000 A 
ENDBRANCH  27  28
ENDBRANCH   6  27
TORSDOF 8
ENDMDL
MODEL 7
REMARK VINA RESULT:      -8.0      2.383      4.107
REMARK  Name = 
REMARK  9 active torsions:
REMARK  status: ('A' for Active; 'I' for Inactive)
REMARK    1  A    between atoms: C_1  and  O_2
REMARK    2  A    between atoms: O_2  and  C_3
REMARK    3  A    between atoms: C_5  and  N_6
REMARK    4  A    between atoms: C_11  and  S_12
REMARK    5  A    between atoms: S_12  and  C_13
REMARK    6  A    between atoms: C_26  and  O_27
REMARK    7  A    between atoms: O_27  and  C_28
REMARK    8  A    between atoms: C_28  and  C_29
REMARK    9  A    between atoms: C_29  and  N_30
REMARK                            x       y       z     vdW  Elec       q    Type
REMARK                         _______ _______ _______ _____ _____    ______ ____
ROOT
ATOM      1  N   UNL     1       1.963   7.778  19.387  0.00  0.00    +0.000 N 
ATOM      2  C   UNL     1       1.470   7.855  20.752  0.00  0.00    +0.000 C 
ATOM      3  C   UNL     1       0.931   9.241  20.848  0.00  0.00    +0.000 A 
ATOM      4  C   UNL     1       0.343   9.930  21.888  0.00  0.00    +0.000 A 
ATOM      5  C   UNL     1      -0.101  11.234  21.625  0.00  0.00    +0.000 A 
ATOM      6  C   UNL     1       0.068  11.792  20.343  0.00  0.00    +0.000 A 
ATOM      7  N   UNL     1       0.669  11.133  19.330  0.00  0.00    +0.000 NA
ATOM      8  C   UNL     1       1.067   9.888  19.637  0.00  0.00    +0.000 A 
ATOM      9  C   UNL     1       1.726   8.972  18.697  0.00  0.00    +0.000 C 
ATOM     10  O   UNL     1       1.967   9.272  17.541  0.00  0.00    +0.000 OA
ENDROOT
BRANCH   1  13
ATOM     11  C   UNL     1       4.658   5.200  18.932  0.00  0.00    +0.000 A 
ATOM     12  C   UNL     1       3.934   6.314  19.382  0.00  0.00    +0.000 A 
ATOM     13  C   UNL     1       2.669   6.653  18.878  0.00  0.00    +0.000 A 
ATOM     14  C   UNL     1       2.126   5.840  17.881  0.00  0.00    +0.000 A 
ATOM     15  C   UNL     1       2.829   4.715  17.429  0.00  0.00    +0.000 A 
ATOM     16  C   UNL     1       4.074   4.365  17.972  0.00  0.00    +0.000 A 
BRANCH  11  18
ATOM     17  C   UNL     1       7.008   5.723  19.006  0.00  0.00    +0.000 C 
ATOM     18  O   UNL     1       5.914   4.892  19.377  0.00  0.00    +0.000 OA
ENDBRANCH  11  18
BRANCH  16  19
ATOM     19  O   UNL     1       4.591   3.208  17.449  0.00  0.00    +0.000 OA
BRANCH  19  20
ATOM     20  C   UNL     1       3.965   1.947  17.755  0.00  0.00    +0.000 C 
BRANCH  20  21
ATOM     21  C   UNL     1       3.833   1.702  19.268  0.00  0.00    +0.000 C 
BRANCH  21  22
ATOM     22  N   UNL     1       2.757   2.329  20.006  0.00  0.00    +0.000 NA
ATOM     23  C   UNL     1       1.402   2.345  19.506  0.00  0.00    +0.000 C 
ATOM     24  C   UNL     1       0.839   3.400  20.444  0.00  0.00    +0.000 C 
ATOM     25  C   UNL     1       1.477   3.068  21.794  0.00  0.00    +0.000 C 
ATOM     26  C   UNL     1       2.731   2.256  21.452  0.00  0.00    +0.000 C 
ENDBRANCH  21  22
ENDBRANCH  20  21
ENDBRANCH  19  20
ENDBRANCH  16  19
ENDBRANCH   1  13
BRANCH   6  27
ATOM     27  S   UNL     1      -0.650  13.372  19.956  0.00  0.00    +0.000 S 
BRANCH  27  28
ATOM     28  C   UNL     1      -2.384  13.087  20.241  0.00  0.00    +0.000 A 
ATOM     29  C   UNL     1      -3.174  12.322  19.372  0.00  0.00    +0.000 A 
ATOM     30  C   UNL     1      -4.520  12.086  19.667  0.00  0.00    +0.000 A 
ATOM     31  C   UNL     1      -5.079  12.606  20.832  0.00  0.00    +0.000 A 
ATOM     32 CL   UNL     1      -6.736  12.321  21.194  0.00  0.00    +0.000 Cl
ATOM     33  C   UNL     1      -4.301  13.354  21.712  0.00  0.00    +0.000 A 
ATOM     34  C   UNL     1      -2.955  13.590  21.419  0.00  0.00    +0.000 A 
ENDBRANCH  27  28
ENDBRANCH   6  27
TORSDOF 8
ENDMDL
MODEL 8
REMARK VINA RESULT:      -8.0      2.874      4.474
REMARK  Name = 
REMARK  9 active torsions:
REMARK  status: ('A' for Active; 'I' for Inactive)
REMARK    1  A    between atoms: C_1  and  O_2
REMARK    2  A    between atoms: O_2  and  C_3
REMARK    3  A    between atoms: C_5  and  N_6
REMARK    4  A    between atoms: C_11  and  S_12
REMARK    5  A    between atoms: S_12  and  C_13
REMARK    6  A    between atoms: C_26  and  O_27
REMARK    7  A    between atoms: O_27  and  C_28
REMARK    8  A    between atoms: C_28  and  C_29
REMARK    9  A    between atoms: C_29  and  N_30
REMARK                            x       y       z     vdW  Elec       q    Type
REMARK                         _______ _______ _______ _____ _____    ______ ____
ROOT
ATOM      1  N   UNL     1       2.029   7.632  19.395  0.00  0.00    +0.000 N 
ATOM      2  C   UNL     1       1.631   7.744  20.788  0.00  0.00    +0.000 C 
ATOM      3  C   UNL     1       1.031   9.105  20.869  0.00  0.00    +0.000 A 
ATOM      4  C   UNL     1       0.484   9.809  21.922  0.00  0.00    +0.000 A 
ATOM      5  C   UNL     1      -0.043  11.078  21.642  0.00  0.00    +0.000 A 
ATOM      6  C   UNL     1       0.006  11.588  20.330  0.00  0.00    +0.000 A 
ATOM      7  N   UNL     1       0.567  10.916  19.302  0.00  0.00    +0.000 NA
ATOM      8  C   UNL     1       1.048   9.706  19.627  0.00  0.00    +0.000 A 
ATOM      9  C   UNL     1       1.684   8.784  18.678  0.00  0.00    +0.000 C 
ATOM     10  O   UNL     1       1.826   9.045  17.496  0.00  0.00    +0.000 OA
ENDROOT
BRANCH   1  13
ATOM     11  C   UNL     1       4.744   5.073  18.956  0.00  0.00    +0.000 A 
ATOM     12  C   UNL     1       4.004   6.173  19.412  0.00  0.00    +0.000 A 
ATOM     13  C   UNL     1       2.753   6.522  18.880  0.00  0.00    +0.000 A 
ATOM     14  C   UNL     1       2.243   5.732  17.847  0.00  0.00    +0.000 A 
ATOM     15  C   UNL     1       2.961   4.620  17.389  0.00  0.00    +0.000 A 
ATOM     16  C   UNL     1       4.191   4.260  17.960  0.00  0.00    +0.000 A 
BRANCH  11  18
ATOM     17  C   UNL     1       7.064   5.665  19.223  0.00  0.00    +0.000 C 
ATOM     18  O   UNL     1       5.988   4.757  19.430  0.00  0.00    +0.000 OA
ENDBRANCH  11  18
BRANCH  16  19
ATOM     19  O   UNL     1       4.727   3.118  17.424  0.00  0.00    +0.000 OA
BRANCH  19  20
ATOM     20  C   UNL     1       3.994   1.880  17.511  0.00  0.00    +0.000 C 
BRANCH  20  21
ATOM     21  C   UNL     1       3.783   1.416  18.962  0.00  0.00    +0.000 C 
BRANCH  21  22
ATOM     22  N   UNL     1       2.667   1.931  19.725  0.00  0.00    +0.000 NA
ATOM     23  C   UNL     1       2.861   2.772  20.882  0.00  0.00    +0.000 C 
ATOM     24  C   UNL     1       1.456   2.683  21.454  0.00  0.00    +0.000 C 
ATOM     25  C   UNL     1       0.554   2.753  20.220  0.00  0.00    +0.000 C 
ATOM     26  C   UNL     1       1.447   2.323  19.051  0.00  0.00    +0.000 C 
ENDBRANCH  21  22
ENDBRANCH  20  21
ENDBRANCH  19  20
ENDBRANCH  16  19
ENDBRANCH   1  13
BRANCH   6  27
ATOM     27  S   UNL     1      -0.816  13.114  19.935  0.00  0.00    +0.000 S 
BRANCH  27  28
ATOM     28  C   UNL     1      -2.479  12.577  19.591  0.00  0.00    +0.000 A 
ATOM     29  C   UNL     1      -3.578  12.998  20.353  0.00  0.00    +0.000 A 
ATOM     30  C   UNL     1      -4.870  12.587  20.011  0.00  0.00    +0.000 A 
ATOM     31  C   UNL     1      -5.069  11.763  18.906  0.00  0.00    +0.000 A 
ATOM     32 CL   UNL     1      -6.657  11.252  18.488  0.00  0.00    +0.000 Cl
ATOM     33  C   UNL     1      -3.987  11.352  18.131  0.00  0.00    +0.000 A 
ATOM     34  C   UNL     1      -2.695  11.762  18.471  0.00  0.00    +0.000 A 
ENDBRANCH  27  28
ENDBRANCH   6  27
TORSDOF 8
ENDMDL
MODEL 9
REMARK VINA RESULT:      -7.9      3.143      4.630
REMARK  Name = 
REMARK  9 active torsions:
REMARK  status: ('A' for Active; 'I' for Inactive)
REMARK    1  A    between atoms: C_1  and  O_2
REMARK    2  A    between atoms: O_2  and  C_3
REMARK    3  A    between atoms: C_5  and  N_6
REMARK    4  A    between atoms: C_11  and  S_12
REMARK    5  A    between atoms: S_12  and  C_13
REMARK    6  A    between atoms: C_26  and  O_27
REMARK    7  A    between atoms: O_27  and  C_28
REMARK    8  A    between atoms: C_28  and  C_29
REMARK    9  A    between atoms: C_29  and  N_30
REMARK                            x       y       z     vdW  Elec       q    Type
REMARK                         _______ _______ _______ _____ _____    ______ ____
ROOT
ATOM      1  N   UNL     1       2.157   7.998  19.006  0.00  0.00    +0.000 N 
ATOM      2  C   UNL     1       1.572   7.819  20.324  0.00  0.00    +0.000 C 
ATOM      3  C   UNL     1       0.822   9.087  20.545  0.00  0.00    +0.000 A 
ATOM      4  C   UNL     1       0.070   9.538  21.610  0.00  0.00    +0.000 A 
ATOM      5  C   UNL     1      -0.552  10.787  21.474  0.00  0.00    +0.000 A 
ATOM      6  C   UNL     1      -0.389  11.531  20.289  0.00  0.00    +0.000 A 
ATOM      7  N   UNL     1       0.370  11.108  19.256  0.00  0.00    +0.000 NA
ATOM      8  C   UNL     1       0.934   9.904  19.439  0.00  0.00    +0.000 A 
ATOM      9  C   UNL     1       1.785   9.228  18.451  0.00  0.00    +0.000 C 
ATOM     10  O   UNL     1       2.050   9.712  17.365  0.00  0.00    +0.000 OA
ENDROOT
BRANCH   1  13
ATOM     11  C   UNL     1       5.176   6.622  17.242  0.00  0.00    +0.000 A 
ATOM     12  C   UNL     1       4.243   7.503  17.808  0.00  0.00    +0.000 A 
ATOM     13  C   UNL     1       3.060   7.066  18.423  0.00  0.00    +0.000 A 
ATOM     14  C   UNL     1       2.814   5.691  18.457  0.00  0.00    +0.000 A 
ATOM     15  C   UNL     1       3.741   4.796  17.910  0.00  0.00    +0.000 A 
ATOM     16  C   UNL     1       4.939   5.245  17.336  0.00  0.00    +0.000 A 
BRANCH  11  18
ATOM     17  C   UNL     1       7.463   7.372  17.350  0.00  0.00    +0.000 C 
ATOM     18  O   UNL     1       6.304   7.040  16.592  0.00  0.00    +0.000 OA
ENDBRANCH  11  18
BRANCH  16  19
ATOM     19  O   UNL     1       5.750   4.230  16.900  0.00  0.00    +0.000 OA
BRANCH  19  20
ATOM     20  C   UNL     1       5.384   3.483  15.723  0.00  0.00    +0.000 C 
BRANCH  20  21
ATOM     21  C   UNL     1       5.607   4.277  14.424  0.00  0.00    +0.000 C 
BRANCH  21  22
ATOM     22  N   UNL     1       5.873   3.571  13.188  0.00  0.00    +0.000 NA
ATOM     23  C   UNL     1       4.822   3.265  12.247  0.00  0.00    +0.000 C 
ATOM     24  C   UNL     1       5.577   2.252  11.402  0.00  0.00    +0.000 C 
ATOM     25  C   UNL     1       6.980   2.850  11.281  0.00  0.00    +0.000 C 
ATOM     26  C   UNL     1       7.104   3.815  12.465  0.00  0.00    +0.000 C 
ENDBRANCH  21  22
ENDBRANCH  20  21
ENDBRANCH  19  20
ENDBRANCH  16  19
ENDBRANCH   1  13
BRANCH   6  27
ATOM     27  S   UNL     1      -1.315  13.029  20.042  0.00  0.00    +0.000 S 
BRANCH  27  28
ATOM     28  C   UNL     1      -2.900  12.417  19.507  0.00  0.00    +0.000 A 
ATOM     29  C   UNL     1      -3.049  11.598  18.380  0.00  0.00    +0.000 A 
ATOM     30  C   UNL     1      -4.309  11.103  18.031  0.00  0.00    +0.000 A 
ATOM     31  C   UNL     1      -5.421  11.418  18.809  0.00  0.00    +0.000 A 
ATOM     32 CL   UNL     1      -6.973  10.814  18.377  0.00  0.00    +0.000 Cl
ATOM     33  C   UNL     1      -5.283  12.217  19.941  0.00  0.00    +0.000 A 
ATOM     34  C   UNL     1      -4.025  12.713  20.291  0.00  0.00    +0.000 A 
ENDBRANCH  27  28
ENDBRANCH   6  27
TORSDOF 8
ENDMDL
