MODEL 1
REMARK VINA RESULT:      -8.1      0.000      0.000
REMARK  Name = 
REMARK  7 active torsions:
REMARK  status: ('A' for Active; 'I' for Inactive)
REMARK    1  A    between atoms: C_1  and  C_2
REMARK    2  A    between atoms: C_2  and  C_3
REMARK    3  A    between atoms: C_7  and  C_8
REMARK    4  A    between atoms: C_9  and  N_10
REMARK    5  A    between atoms: C_13  and  C_14
REMARK    6  A    between atoms: C_16  and  C_17
REMARK    7  A    between atoms: C_19  and  C_20
REMARK                            x       y       z     vdW  Elec       q    Type
REMARK                         _______ _______ _______ _____ _____    ______ ____
ROOT
ATOM      1  N   UNL     1       2.179   6.441  20.448  0.00  0.00    +0.000 N 
ATOM      2  C   UNL     1       3.094   5.519  20.083  0.00  0.00    +0.000 A 
ATOM      3  N   UNL     1       4.271   5.676  19.528  0.00  0.00    +0.000 NA
ATOM      4  C   UNL     1       4.671   4.491  18.929  0.00  0.00    +0.000 A 
ATOM      5  C   UNL     1       3.992   3.375  19.358  0.00  0.00    +0.000 A 
ATOM      6  S   UNL     1       2.740   3.849  20.427  0.00  0.00    +0.000 S 
ATOM      7  H   UNL     1       1.433   6.028  20.992  0.00  0.00    +0.000 HD
ENDROOT
BRANCH   1  14
ATOM      8  C   UNL     1       1.346   8.837  20.768  0.00  0.00    +0.000 A 
ATOM      9  C   UNL     1       0.914  10.019  20.102  0.00  0.00    +0.000 A 
ATOM     10  C   UNL     1       1.008  10.182  18.731  0.00  0.00    +0.000 A 
ATOM     11  C   UNL     1       1.515   9.151  17.969  0.00  0.00    +0.000 A 
ATOM     12  C   UNL     1       1.900   7.940  18.573  0.00  0.00    +0.000 A 
ATOM     13  C   UNL     1       2.424   6.871  17.637  0.00  0.00    +0.000 C 
ATOM     14  C   UNL     1       1.819   7.743  19.998  0.00  0.00    +0.000 A 
BRANCH   8  16
ATOM     15  C   UNL     1      -0.077   9.515  22.785  0.00  0.00    +0.000 C 
ATOM     16  C   UNL     1       1.246   8.948  22.274  0.00  0.00    +0.000 C 
ENDBRANCH   8  16
ENDBRANCH   1  14
BRANCH   4  17
ATOM     17  C   UNL     1       5.665   4.524  17.812  0.00  0.00    +0.000 A 
ATOM     18  S   UNL     1       5.363   3.984  16.215  0.00  0.00    +0.000 S 
ATOM     19  C   UNL     1       6.816   4.741  15.697  0.00  0.00    +0.000 A 
ATOM     20  C   UNL     1       7.171   4.819  14.254  0.00  0.00    +0.000 C 
ATOM     21  N   UNL     1       7.567   5.230  16.659  0.00  0.00    +0.000 NA
ATOM     22  C   UNL     1       6.921   5.104  17.881  0.00  0.00    +0.000 A 
ATOM     23  C   UNL     1       7.629   5.588  19.097  0.00  0.00    +0.000 C 
ENDBRANCH   4  17
TORSDOF 3
ENDMDL
MODEL 2
REMARK VINA RESULT:      -8.0      0.857      2.506
REMARK  Name = 
REMARK  7 active torsions:
REMARK  status: ('A' for Active; 'I' for Inactive)
REMARK    1  A    between atoms: C_1  and  C_2
REMARK    2  A    between atoms: C_2  and  C_3
REMARK    3  A    between atoms: C_7  and  C_8
REMARK    4  A    between atoms: C_9  and  N_10
REMARK    5  A    between atoms: C_13  and  C_14
REMARK    6  A    between atoms: C_16  and  C_17
REMARK    7  A    between atoms: C_19  and  C_20
REMARK                            x       y       z     vdW  Elec       q    Type
REMARK                         _______ _______ _______ _____ _____    ______ ____
ROOT
ATOM      1  N   UNL     1       1.746   6.960  20.625  0.00  0.00    +0.000 N 
ATOM      2  C   UNL     1       2.556   5.912  20.365  0.00  0.00    +0.000 A 
ATOM      3  N   UNL     1       3.732   5.880  19.789  0.00  0.00    +0.000 NA
ATOM      4  C   UNL     1       3.998   4.598  19.332  0.00  0.00    +0.000 A 
ATOM      5  C   UNL     1       3.216   3.616  19.894  0.00  0.00    +0.000 A 
ATOM      6  S   UNL     1       2.039   4.339  20.907  0.00  0.00    +0.000 S 
ATOM      7  H   UNL     1       0.972   6.693  21.218  0.00  0.00    +0.000 HD
ENDROOT
BRANCH   1  14
ATOM      8  C   UNL     1       1.765   8.630  18.689  0.00  0.00    +0.000 A 
ATOM      9  C   UNL     1       1.583   9.995  18.325  0.00  0.00    +0.000 A 
ATOM     10  C   UNL     1       1.092  10.944  19.205  0.00  0.00    +0.000 A 
ATOM     11  C   UNL     1       0.790  10.565  20.495  0.00  0.00    +0.000 A 
ATOM     12  C   UNL     1       1.008   9.242  20.921  0.00  0.00    +0.000 A 
ATOM     13  C   UNL     1       0.659   8.945  22.364  0.00  0.00    +0.000 C 
ATOM     14  C   UNL     1       1.513   8.231  20.026  0.00  0.00    +0.000 A 
BRANCH   8  16
ATOM     15  C   UNL     1       3.708   7.768  17.262  0.00  0.00    +0.000 C 
ATOM     16  C   UNL     1       2.203   7.771  17.522  0.00  0.00    +0.000 C 
ENDBRANCH   8  16
ENDBRANCH   1  14
BRANCH   4  17
ATOM     17  C   UNL     1       4.969   4.397  18.213  0.00  0.00    +0.000 A 
ATOM     18  S   UNL     1       4.592   3.678  16.705  0.00  0.00    +0.000 S 
ATOM     19  C   UNL     1       6.093   4.232  16.078  0.00  0.00    +0.000 A 
ATOM     20  C   UNL     1       6.426   4.086  14.635  0.00  0.00    +0.000 C 
ATOM     21  N   UNL     1       6.901   4.777  16.960  0.00  0.00    +0.000 NA
ATOM     22  C   UNL     1       6.270   4.871  18.193  0.00  0.00    +0.000 A 
ATOM     23  C   UNL     1       7.039   5.449  19.328  0.00  0.00    +0.000 C 
ENDBRANCH   4  17
TORSDOF 3
ENDMDL
MODEL 3
REMARK VINA RESULT:      -7.7      5.292      7.957
REMARK  Name = 
REMARK  7 active torsions:
REMARK  status: ('A' for Active; 'I' for Inactive)
REMARK    1  A    between atoms: C_1  and  C_2
REMARK    2  A    between atoms: C_2  and  C_3
REMARK    3  A    between atoms: C_7  and  C_8
REMARK    4  A    between atoms: C_9  and  N_10
REMARK    5  A    between atoms: C_13  and  C_14
REMARK    6  A    between atoms: C_16  and  C_17
REMARK    7  A    between atoms: C_19  and  C_20
REMARK                            x       y       z     vdW  Elec       q    Type
REMARK                         _______ _______ _______ _____ _____    ______ ____
ROOT
ATOM      1  N   UNL     1      -2.906  12.871  19.611  0.00  0.00    +0.000 N 
ATOM      2  C   UNL     1      -1.610  12.499  19.654  0.00  0.00    +0.000 A 
ATOM      3  N   UNL     1      -0.987  11.546  19.006  0.00  0.00    +0.000 NA
ATOM      4  C   UNL     1       0.194  11.226  19.660  0.00  0.00    +0.000 A 
ATOM      5  C   UNL     1       0.631  12.177  20.551  0.00  0.00    +0.000 A 
ATOM      6  S   UNL     1      -0.536  13.426  20.665  0.00  0.00    +0.000 S 
ATOM      7  H   UNL     1      -3.059  13.740  20.106  0.00  0.00    +0.000 HD
ENDROOT
BRANCH   1  14
ATOM      8  C   UNL     1      -4.559  11.583  18.147  0.00  0.00    +0.000 A 
ATOM      9  C   UNL     1      -5.894  11.095  18.049  0.00  0.00    +0.000 A 
ATOM     10  C   UNL     1      -6.786  11.135  19.106  0.00  0.00    +0.000 A 
ATOM     11  C   UNL     1      -6.380  11.695  20.300  0.00  0.00    +0.000 A 
ATOM     12  C   UNL     1      -5.092  12.244  20.430  0.00  0.00    +0.000 A 
ATOM     13  C   UNL     1      -4.763  12.849  21.778  0.00  0.00    +0.000 C 
ATOM     14  C   UNL     1      -4.141  12.212  19.347  0.00  0.00    +0.000 A 
BRANCH   8  16
ATOM     15  C   UNL     1      -3.160   9.916  16.800  0.00  0.00    +0.000 C 
ATOM     16  C   UNL     1      -3.751  11.321  16.895  0.00  0.00    +0.000 C 
ENDBRANCH   8  16
ENDBRANCH   1  14
BRANCH   4  17
ATOM     17  C   UNL     1       0.805   9.874  19.467  0.00  0.00    +0.000 A 
ATOM     18  S   UNL     1       1.509   9.316  18.008  0.00  0.00    +0.000 S 
ATOM     19  C   UNL     1       2.187   7.986  18.859  0.00  0.00    +0.000 A 
ATOM     20  C   UNL     1       3.143   7.056  18.198  0.00  0.00    +0.000 C 
ATOM     21  N   UNL     1       1.797   7.861  20.108  0.00  0.00    +0.000 NA
ATOM     22  C   UNL     1       0.995   8.937  20.468  0.00  0.00    +0.000 A 
ATOM     23  C   UNL     1       0.441   8.962  21.848  0.00  0.00    +0.000 C 
ENDBRANCH   4  17
TORSDOF 3
ENDMDL
MODEL 4
REMARK VINA RESULT:      -7.7      4.922      7.433
REMARK  Name = 
REMARK  7 active torsions:
REMARK  status: ('A' for Active; 'I' for Inactive)
REMARK    1  A    between atoms: C_1  and  C_2
REMARK    2  A    between atoms: C_2  and  C_3
REMARK    3  A    between atoms: C_7  and  C_8
REMARK    4  A    between atoms: C_9  and  N_10
REMARK    5  A    between atoms: C_13  and  C_14
REMARK    6  A    between atoms: C_16  and  C_17
REMARK    7  A    between atoms: C_19  and  C_20
REMARK                            x       y       z     vdW  Elec       q    Type
REMARK                         _______ _______ _______ _____ _____    ______ ____
ROOT
ATOM      1  N   UNL     1      -2.090  12.618  18.958  0.00  0.00    +0.000 N 
ATOM      2  C   UNL     1      -0.844  12.136  19.156  0.00  0.00    +0.000 A 
ATOM      3  N   UNL     1      -0.235  11.124  18.590  0.00  0.00    +0.000 NA
ATOM      4  C   UNL     1       0.828  10.713  19.380  0.00  0.00    +0.000 A 
ATOM      5  C   UNL     1       1.239  11.636  20.313  0.00  0.00    +0.000 A 
ATOM      6  S   UNL     1       0.180  12.982  20.282  0.00  0.00    +0.000 S 
ATOM      7  H   UNL     1      -2.223  13.503  19.429  0.00  0.00    +0.000 HD
ENDROOT
BRANCH   1  14
ATOM      8  C   UNL     1      -3.660  11.436  17.323  0.00  0.00    +0.000 A 
ATOM      9  C   UNL     1      -5.011  11.066  17.066  0.00  0.00    +0.000 A 
ATOM     10  C   UNL     1      -6.020  11.220  18.001  0.00  0.00    +0.000 A 
ATOM     11  C   UNL     1      -5.716  11.779  19.225  0.00  0.00    +0.000 A 
ATOM     12  C   UNL     1      -4.409  12.215  19.506  0.00  0.00    +0.000 A 
ATOM     13  C   UNL     1      -4.196  12.831  20.872  0.00  0.00    +0.000 C 
ATOM     14  C   UNL     1      -3.337  12.063  18.554  0.00  0.00    +0.000 A 
BRANCH   8  16
ATOM     15  C   UNL     1      -3.409  10.379  15.005  0.00  0.00    +0.000 C 
ATOM     16  C   UNL     1      -2.729  11.063  16.190  0.00  0.00    +0.000 C 
ENDBRANCH   8  16
ENDBRANCH   1  14
BRANCH   4  17
ATOM     17  C   UNL     1       1.338   9.311  19.266  0.00  0.00    +0.000 A 
ATOM     18  S   UNL     1       2.075   8.647  17.871  0.00  0.00    +0.000 S 
ATOM     19  C   UNL     1       2.595   7.299  18.801  0.00  0.00    +0.000 A 
ATOM     20  C   UNL     1       3.508   6.273  18.228  0.00  0.00    +0.000 C 
ATOM     21  N   UNL     1       2.126   7.251  20.029  0.00  0.00    +0.000 NA
ATOM     22  C   UNL     1       1.394   8.398  20.306  0.00  0.00    +0.000 A 
ATOM     23  C   UNL     1       0.767   8.517  21.650  0.00  0.00    +0.000 C 
ENDBRANCH   4  17
TORSDOF 3
ENDMDL
MODEL 5
REMARK VINA RESULT:      -7.3      5.022      8.797
REMARK  Name = 
REMARK  7 active torsions:
REMARK  status: ('A' for Active; 'I' for Inactive)
REMARK    1  A    between atoms: C_1  and  C_2
REMARK    2  A    between atoms: C_2  and  C_3
REMARK    3  A    between atoms: C_7  and  C_8
REMARK    4  A    between atoms: C_9  and  N_10
REMARK    5  A    between atoms: C_13  and  C_14
REMARK    6  A    between atoms: C_16  and  C_17
REMARK    7  A    between atoms: C_19  and  C_20
REMARK                            x       y       z     vdW  Elec       q    Type
REMARK                         _______ _______ _______ _____ _____    ______ ____
ROOT
ATOM      1  N   UNL     1       1.190  10.299  19.785  0.00  0.00    +0.000 N 
ATOM      2  C   UNL     1       0.213  11.155  19.415  0.00  0.00    +0.000 A 
ATOM      3  N   UNL     1      -1.084  11.071  19.578  0.00  0.00    +0.000 NA
ATOM      4  C   UNL     1      -1.726  11.913  18.682  0.00  0.00    +0.000 A 
ATOM      5  C   UNL     1      -0.923  12.886  18.134  0.00  0.00    +0.000 A 
ATOM      6  S   UNL     1       0.692  12.646  18.653  0.00  0.00    +0.000 S 
ATOM      7  H   UNL     1       2.107  10.708  19.662  0.00  0.00    +0.000 HD
ENDROOT
BRANCH   1  14
ATOM      8  C   UNL     1       0.717   8.112  21.020  0.00  0.00    +0.000 A 
ATOM      9  C   UNL     1       1.041   6.727  21.104  0.00  0.00    +0.000 A 
ATOM     10  C   UNL     1       1.826   6.084  20.163  0.00  0.00    +0.000 A 
ATOM     11  C   UNL     1       2.341   6.814  19.113  0.00  0.00    +0.000 A 
ATOM     12  C   UNL     1       2.099   8.196  19.017  0.00  0.00    +0.000 A 
ATOM     13  C   UNL     1       2.730   8.898  17.833  0.00  0.00    +0.000 C 
ATOM     14  C   UNL     1       1.282   8.892  19.979  0.00  0.00    +0.000 A 
BRANCH   8  16
ATOM     15  C   UNL     1       0.338   9.529  23.119  0.00  0.00    +0.000 C 
ATOM     16  C   UNL     1      -0.246   8.550  22.102  0.00  0.00    +0.000 C 
ENDBRANCH   8  16
ENDBRANCH   1  14
BRANCH   4  17
ATOM     17  C   UNL     1      -3.140  11.632  18.284  0.00  0.00    +0.000 A 
ATOM     18  S   UNL     1      -4.523  12.156  19.148  0.00  0.00    +0.000 S 
ATOM     19  C   UNL     1      -5.509  11.723  17.808  0.00  0.00    +0.000 A 
ATOM     20  C   UNL     1      -6.959  12.058  17.779  0.00  0.00    +0.000 C 
ATOM     21  N   UNL     1      -4.890  11.085  16.840  0.00  0.00    +0.000 NA
ATOM     22  C   UNL     1      -3.528  11.019  17.104  0.00  0.00    +0.000 A 
ATOM     23  C   UNL     1      -2.661  10.314  16.123  0.00  0.00    +0.000 C 
ENDBRANCH   4  17
TORSDOF 3
ENDMDL
MODEL 6
REMARK VINA RESULT:      -7.3      8.622     10.829
REMARK  Name = 
REMARK  7 active torsions:
REMARK  status: ('A' for Active; 'I' for Inactive)
REMARK    1  A    between atoms: C_1  and  C_2
REMARK    2  A    between atoms: C_2  and  C_3
REMARK    3  A    between atoms: C_7  and  C_8
REMARK    4  A    between atoms: C_9  and  N_10
REMARK    5  A    between atoms: C_13  and  C_14
REMARK    6  A    between atoms: C_16  and  C_17
REMARK    7  A    between atoms: C_19  and  C_20
REMARK                            x       y       z     vdW  Elec       q    Type
REMARK                         _______ _______ _______ _____ _____    ______ ____
ROOT
ATOM      1  N   UNL     1       8.530  15.055  18.534  0.00  0.00    +0.000 N 
ATOM      2  C   UNL     1       7.798  14.992  19.666  0.00  0.00    +0.000 A 
ATOM      3  N   UNL     1       8.141  14.600  20.869  0.00  0.00    +0.000 NA
ATOM      4  C   UNL     1       7.008  14.277  21.600  0.00  0.00    +0.000 A 
ATOM      5  C   UNL     1       5.834  14.783  21.091  0.00  0.00    +0.000 A 
ATOM      6  S   UNL     1       6.153  15.558  19.596  0.00  0.00    +0.000 S 
ATOM      7  H   UNL     1       8.036  15.544  17.800  0.00  0.00    +0.000 HD
ENDROOT
BRANCH   1  14
ATOM      8  C   UNL     1       9.771  12.946  17.794  0.00  0.00    +0.000 A 
ATOM      9  C   UNL     1      11.028  12.418  17.381  0.00  0.00    +0.000 A 
ATOM     10  C   UNL     1      12.122  13.219  17.102  0.00  0.00    +0.000 A 
ATOM     11  C   UNL     1      12.004  14.584  17.254  0.00  0.00    +0.000 A 
ATOM     12  C   UNL     1      10.802  15.151  17.716  0.00  0.00    +0.000 A 
ATOM     13  C   UNL     1      10.794  16.658  17.864  0.00  0.00    +0.000 C 
ATOM     14  C   UNL     1       9.646  14.342  18.009  0.00  0.00    +0.000 A 
BRANCH   8  16
ATOM     15  C   UNL     1       9.229  10.504  18.339  0.00  0.00    +0.000 C 
ATOM     16  C   UNL     1       8.707  11.879  17.924  0.00  0.00    +0.000 C 
ENDBRANCH   8  16
ENDBRANCH   1  14
BRANCH   4  17
ATOM     17  C   UNL     1       7.114  13.331  22.753  0.00  0.00    +0.000 A 
ATOM     18  S   UNL     1       6.226  13.460  24.212  0.00  0.00    +0.000 S 
ATOM     19  C   UNL     1       6.716  11.869  24.637  0.00  0.00    +0.000 A 
ATOM     20  C   UNL     1       6.156  11.184  25.834  0.00  0.00    +0.000 C 
ATOM     21  N   UNL     1       7.608  11.325  23.838  0.00  0.00    +0.000 NA
ATOM     22  C   UNL     1       7.851  12.159  22.755  0.00  0.00    +0.000 A 
ATOM     23  C   UNL     1       8.851  11.717  21.746  0.00  0.00    +0.000 C 
ENDBRANCH   4  17
TORSDOF 3
ENDMDL
MODEL 7
REMARK VINA RESULT:      -7.2      5.303      8.181
REMARK  Name = 
REMARK  7 active torsions:
REMARK  status: ('A' for Active; 'I' for Inactive)
REMARK    1  A    between atoms: C_1  and  C_2
REMARK    2  A    between atoms: C_2  and  C_3
REMARK    3  A    between atoms: C_7  and  C_8
REMARK    4  A    between atoms: C_9  and  N_10
REMARK    5  A    between atoms: C_13  and  C_14
REMARK    6  A    between atoms: C_16  and  C_17
REMARK    7  A    between atoms: C_19  and  C_20
REMARK                            x       y       z     vdW  Elec       q    Type
REMARK                         _______ _______ _______ _____ _____    ______ ____
ROOT
ATOM      1  N   UNL     1      -2.961  12.929  19.717  0.00  0.00    +0.000 N 
ATOM      2  C   UNL     1      -1.669  12.612  19.946  0.00  0.00    +0.000 A 
ATOM      3  N   UNL     1      -0.939  11.645  19.448  0.00  0.00    +0.000 NA
ATOM      4  C   UNL     1       0.159  11.416  20.263  0.00  0.00    +0.000 A 
ATOM      5  C   UNL     1       0.449  12.440  21.134  0.00  0.00    +0.000 A 
ATOM      6  S   UNL     1      -0.762  13.645  21.016  0.00  0.00    +0.000 S 
ATOM      7  H   UNL     1      -3.203  13.820  20.129  0.00  0.00    +0.000 HD
ENDROOT
BRANCH   1  14
ATOM      8  C   UNL     1      -4.396  11.529  18.131  0.00  0.00    +0.000 A 
ATOM      9  C   UNL     1      -5.689  10.974  17.912  0.00  0.00    +0.000 A 
ATOM     10  C   UNL     1      -6.685  10.996  18.873  0.00  0.00    +0.000 A 
ATOM     11  C   UNL     1      -6.429  11.601  20.085  0.00  0.00    +0.000 A 
ATOM     12  C   UNL     1      -5.188  12.215  20.329  0.00  0.00    +0.000 A 
ATOM     13  C   UNL     1      -5.025  12.866  21.687  0.00  0.00    +0.000 C 
ATOM     14  C   UNL     1      -4.131  12.204  19.349  0.00  0.00    +0.000 A 
BRANCH   8  16
ATOM     15  C   UNL     1      -2.887   9.861  16.908  0.00  0.00    +0.000 C 
ATOM     16  C   UNL     1      -3.453  11.278  16.974  0.00  0.00    +0.000 C 
ENDBRANCH   8  16
ENDBRANCH   1  14
BRANCH   4  17
ATOM     17  C   UNL     1       0.832  10.081  20.241  0.00  0.00    +0.000 A 
ATOM     18  S   UNL     1       0.774   8.932  21.510  0.00  0.00    +0.000 S 
ATOM     19  C   UNL     1       1.432   7.748  20.454  0.00  0.00    +0.000 A 
ATOM     20  C   UNL     1       1.542   6.323  20.867  0.00  0.00    +0.000 C 
ATOM     21  N   UNL     1       1.824   8.198  19.282  0.00  0.00    +0.000 NA
ATOM     22  C   UNL     1       1.492   9.540  19.150  0.00  0.00    +0.000 A 
ATOM     23  C   UNL     1       1.873  10.232  17.889  0.00  0.00    +0.000 C 
ENDBRANCH   4  17
TORSDOF 3
ENDMDL
MODEL 8
REMARK VINA RESULT:      -7.1      6.803      9.895
REMARK  Name = 
REMARK  7 active torsions:
REMARK  status: ('A' for Active; 'I' for Inactive)
REMARK    1  A    between atoms: C_1  and  C_2
REMARK    2  A    between atoms: C_2  and  C_3
REMARK    3  A    between atoms: C_7  and  C_8
REMARK    4  A    between atoms: C_9  and  N_10
REMARK    5  A    between atoms: C_13  and  C_14
REMARK    6  A    between atoms: C_16  and  C_17
REMARK    7  A    between atoms: C_19  and  C_20
REMARK                            x       y       z     vdW  Elec       q    Type
REMARK                         _______ _______ _______ _____ _____    ______ ____
ROOT
ATOM      1  N   UNL     1      -0.253  15.880  19.947  0.00  0.00    +0.000 N 
ATOM      2  C   UNL     1      -0.689  14.615  20.127  0.00  0.00    +0.000 A 
ATOM      3  N   UNL     1      -0.462  13.539  19.415  0.00  0.00    +0.000 NA
ATOM      4  C   UNL     1      -1.432  12.584  19.683  0.00  0.00    +0.000 A 
ATOM      5  C   UNL     1      -2.135  12.793  20.846  0.00  0.00    +0.000 A 
ATOM      6  S   UNL     1      -1.659  14.288  21.535  0.00  0.00    +0.000 S 
ATOM      7  H   UNL     1      -0.467  16.463  20.746  0.00  0.00    +0.000 HD
ENDROOT
BRANCH   1  14
ATOM      8  C   UNL     1       1.365  16.704  18.148  0.00  0.00    +0.000 A 
ATOM      9  C   UNL     1       1.574  17.671  17.123  0.00  0.00    +0.000 A 
ATOM     10  C   UNL     1       0.582  18.538  16.699  0.00  0.00    +0.000 A 
ATOM     11  C   UNL     1      -0.654  18.487  17.308  0.00  0.00    +0.000 A 
ATOM     12  C   UNL     1      -0.893  17.591  18.365  0.00  0.00    +0.000 A 
ATOM     13  C   UNL     1      -2.279  17.636  18.971  0.00  0.00    +0.000 C 
ATOM     14  C   UNL     1       0.119  16.673  18.824  0.00  0.00    +0.000 A 
BRANCH   8  16
ATOM     15  C   UNL     1       3.515  15.732  17.156  0.00  0.00    +0.000 C 
ATOM     16  C   UNL     1       2.563  15.802  18.348  0.00  0.00    +0.000 C 
ENDBRANCH   8  16
ENDBRANCH   1  14
BRANCH   4  17
ATOM     17  C   UNL     1      -1.729  11.525  18.670  0.00  0.00    +0.000 A 
ATOM     18  S   UNL     1      -3.089  11.518  17.630  0.00  0.00    +0.000 S 
ATOM     19  C   UNL     1      -2.364  10.262  16.709  0.00  0.00    +0.000 A 
ATOM     20  C   UNL     1      -2.969   9.795  15.432  0.00  0.00    +0.000 C 
ATOM     21  N   UNL     1      -1.260   9.760  17.217  0.00  0.00    +0.000 NA
ATOM     22  C   UNL     1      -0.888  10.472  18.350  0.00  0.00    +0.000 A 
ATOM     23  C   UNL     1       0.335  10.037  19.077  0.00  0.00    +0.000 C 
ENDBRANCH   4  17
TORSDOF 3
ENDMDL
MODEL 9
REMARK VINA RESULT:      -7.1      3.727      7.584
REMARK  Name = 
REMARK  7 active torsions:
REMARK  status: ('A' for Active; 'I' for Inactive)
REMARK    1  A    between atoms: C_1  and  C_2
REMARK    2  A    between atoms: C_2  and  C_3
REMARK    3  A    between atoms: C_7  and  C_8
REMARK    4  A    between atoms: C_9  and  N_10
REMARK    5  A    between atoms: C_13  and  C_14
REMARK    6  A    between atoms: C_16  and  C_17
REMARK    7  A    between atoms: C_19  and  C_20
REMARK                            x       y       z     vdW  Elec       q    Type
REMARK                         _______ _______ _______ _____ _____    ______ ____
ROOT
ATOM      1  N   UNL     1       1.812   7.083  20.965  0.00  0.00    +0.000 N 
ATOM      2  C   UNL     1       1.061   8.202  21.043  0.00  0.00    +0.000 A 
ATOM      3  N   UNL     1      -0.030   8.529  20.394  0.00  0.00    +0.000 NA
ATOM      4  C   UNL     1      -0.212   9.903  20.443  0.00  0.00    +0.000 A 
ATOM      5  C   UNL     1       0.507  10.542  21.426  0.00  0.00    +0.000 A 
ATOM      6  S   UNL     1       1.530   9.410  22.206  0.00  0.00    +0.000 S 
ATOM      7  H   UNL     1       2.507   7.052  21.700  0.00  0.00    +0.000 HD
ENDROOT
BRANCH   1  14
ATOM      8  C   UNL     1       2.028   4.711  20.038  0.00  0.00    +0.000 A 
ATOM      9  C   UNL     1       2.488   3.925  18.942  0.00  0.00    +0.000 A 
ATOM     10  C   UNL     1       2.933   4.483  17.756  0.00  0.00    +0.000 A 
ATOM     11  C   UNL     1       2.961   5.856  17.633  0.00  0.00    +0.000 A 
ATOM     12  C   UNL     1       2.572   6.677  18.707  0.00  0.00    +0.000 A 
ATOM     13  C   UNL     1       2.662   8.169  18.467  0.00  0.00    +0.000 C 
ATOM     14  C   UNL     1       2.100   6.125  19.952  0.00  0.00    +0.000 A 
BRANCH   8  16
ATOM     15  C   UNL     1       2.383   2.698  21.580  0.00  0.00    +0.000 C 
ATOM     16  C   UNL     1       1.487   3.867  21.171  0.00  0.00    +0.000 C 
ENDBRANCH   8  16
ENDBRANCH   1  14
BRANCH   4  17
ATOM     17  C   UNL     1      -1.026  10.580  19.387  0.00  0.00    +0.000 A 
ATOM     18  S   UNL     1      -1.076  10.115  17.739  0.00  0.00    +0.000 S 
ATOM     19  C   UNL     1      -2.438  11.135  17.505  0.00  0.00    +0.000 A 
ATOM     20  C   UNL     1      -3.188  11.135  16.219  0.00  0.00    +0.000 C 
ATOM     21  N   UNL     1      -2.750  11.898  18.529  0.00  0.00    +0.000 NA
ATOM     22  C   UNL     1      -1.941  11.595  19.615  0.00  0.00    +0.000 A 
ATOM     23  C   UNL     1      -2.135  12.372  20.869  0.00  0.00    +0.000 C 
ENDBRANCH   4  17
TORSDOF 3
ENDMDL
