MODEL 1
REMARK VINA RESULT:      -7.5      0.000      0.000
REMARK  Name = 
REMARK  7 active torsions:
REMARK  status: ('A' for Active; 'I' for Inactive)
REMARK    1  A    between atoms: C_1  and  C_2
REMARK    2  A    between atoms: C_2  and  C_3
REMARK    3  A    between atoms: C_6  and  O_7
REMARK    4  A    between atoms: O_7  and  C_8
REMARK    5  A    between atoms: C_8  and  C_9
REMARK    6  A    between atoms: C_8  and  C_10
REMARK    7  A    between atoms: C_15  and  C_16
REMARK                            x       y       z     vdW  Elec       q    Type
REMARK                         _______ _______ _______ _____ _____    ______ ____
ROOT
ATOM      1  C   UNL     1       1.890   6.886  19.930  0.00  0.00    +0.000 C 
ATOM      2  O   UNL     1       1.638   6.393  21.036  0.00  0.00    +0.000 OA
ATOM      3  N   UNL     1       1.622   8.231  19.681  0.00  0.00    +0.000 N 
ATOM      4  C   UNL     1       1.309   9.108  20.812  0.00  0.00    +0.000 C 
ATOM      5  C   UNL     1       0.024   9.892  20.556  0.00  0.00    +0.000 C 
ATOM      6  C   UNL     1       0.085  10.679  19.236  0.00  0.00    +0.000 C 
ATOM      7  C   UNL     1       0.508   9.741  18.090  0.00  0.00    +0.000 C 
ATOM      8  C   UNL     1       1.763   8.916  18.399  0.00  0.00    +0.000 C 
ENDROOT
BRANCH   6   9
ATOM      9  C   UNL     1       0.990  11.885  19.367  0.00  0.00    +0.000 A 
ATOM     10  N   UNL     1       1.810  12.297  18.426  0.00  0.00    +0.000 NA
ATOM     11  C   UNL     1       2.587  13.344  18.884  0.00  0.00    +0.000 A 
ATOM     12  C   UNL     1       3.603  13.995  18.160  0.00  0.00    +0.000 A 
ATOM     13  C   UNL     1       4.331  15.029  18.749  0.00  0.00    +0.000 A 
ATOM     14  C   UNL     1       4.052  15.428  20.052  0.00  0.00    +0.000 A 
ATOM     15  C   UNL     1       3.041  14.806  20.792  0.00  0.00    +0.000 A 
ATOM     16  C   UNL     1       2.320  13.759  20.192  0.00  0.00    +0.000 A 
ATOM     17  S   UNL     1       1.047  12.788  20.832  0.00  0.00    +0.000 S 
ENDBRANCH   6   9
BRANCH   1  18
ATOM     18  C   UNL     1       2.504   6.013  18.803  0.00  0.00    +0.000 C 
ATOM     19  C   UNL     1       1.974   4.581  18.894  0.00  0.00    +0.000 C 
BRANCH  18  20
ATOM     20  O   UNL     1       3.926   6.021  19.008  0.00  0.00    +0.000 OA
BRANCH  20  24
ATOM     21  C   UNL     1       6.359   5.098  15.742  0.00  0.00    +0.000 A 
ATOM     22  C   UNL     1       6.535   4.498  16.994  0.00  0.00    +0.000 A 
ATOM     23  C   UNL     1       5.714   4.852  18.068  0.00  0.00    +0.000 A 
ATOM     24  C   UNL     1       4.726   5.826  17.917  0.00  0.00    +0.000 A 
ATOM     25  C   UNL     1       4.571   6.453  16.681  0.00  0.00    +0.000 A 
ATOM     26  C   UNL     1       5.375   6.084  15.599  0.00  0.00    +0.000 A 
BRANCH  21  28
ATOM     27  C   UNL     1       6.299   3.925  13.528  0.00  0.00    +0.000 C 
ATOM     28  C   UNL     1       7.165   4.649  14.550  0.00  0.00    +0.000 C 
ENDBRANCH  21  28
ENDBRANCH  20  24
ENDBRANCH  18  20
ENDBRANCH   1  18
TORSDOF 5
ENDMDL
MODEL 2
REMARK VINA RESULT:      -7.5      0.954      1.334
REMARK  Name = 
REMARK  7 active torsions:
REMARK  status: ('A' for Active; 'I' for Inactive)
REMARK    1  A    between atoms: C_1  and  C_2
REMARK    2  A    between atoms: C_2  and  C_3
REMARK    3  A    between atoms: C_6  and  O_7
REMARK    4  A    between atoms: O_7  and  C_8
REMARK    5  A    between atoms: C_8  and  C_9
REMARK    6  A    between atoms: C_8  and  C_10
REMARK    7  A    between atoms: C_15  and  C_16
REMARK                            x       y       z     vdW  Elec       q    Type
REMARK                         _______ _______ _______ _____ _____    ______ ____
ROOT
ATOM      1  C   UNL     1       1.988   6.667  19.652  0.00  0.00    +0.000 C 
ATOM      2  O   UNL     1       1.821   6.076  20.725  0.00  0.00    +0.000 OA
ATOM      3  N   UNL     1       1.765   8.040  19.563  0.00  0.00    +0.000 N 
ATOM      4  C   UNL     1       1.608   8.810  20.800  0.00  0.00    +0.000 C 
ATOM      5  C   UNL     1       0.345   9.667  20.754  0.00  0.00    +0.000 C 
ATOM      6  C   UNL     1       0.316  10.580  19.517  0.00  0.00    +0.000 C 
ATOM      7  C   UNL     1       0.577   9.747  18.248  0.00  0.00    +0.000 C 
ATOM      8  C   UNL     1       1.813   8.845  18.346  0.00  0.00    +0.000 C 
ENDROOT
BRANCH   6   9
ATOM      9  C   UNL     1       1.288  11.730  19.671  0.00  0.00    +0.000 A 
ATOM     10  N   UNL     1       1.490  12.378  20.796  0.00  0.00    +0.000 NA
ATOM     11  C   UNL     1       2.341  13.449  20.593  0.00  0.00    +0.000 A 
ATOM     12  C   UNL     1       2.735  14.384  21.568  0.00  0.00    +0.000 A 
ATOM     13  C   UNL     1       3.585  15.437  21.225  0.00  0.00    +0.000 A 
ATOM     14  C   UNL     1       4.055  15.561  19.922  0.00  0.00    +0.000 A 
ATOM     15  C   UNL     1       3.688  14.640  18.935  0.00  0.00    +0.000 A 
ATOM     16  C   UNL     1       2.823  13.589  19.289  0.00  0.00    +0.000 A 
ATOM     17  S   UNL     1       2.175  12.321  18.319  0.00  0.00    +0.000 S 
ENDBRANCH   6   9
BRANCH   1  18
ATOM     18  C   UNL     1       2.445   5.889  18.390  0.00  0.00    +0.000 C 
ATOM     19  C   UNL     1       1.673   4.574  18.269  0.00  0.00    +0.000 C 
BRANCH  18  20
ATOM     20  O   UNL     1       3.846   5.619  18.560  0.00  0.00    +0.000 OA
BRANCH  20  24
ATOM     21  C   UNL     1       6.010   4.958  15.051  0.00  0.00    +0.000 A 
ATOM     22  C   UNL     1       5.714   3.925  15.947  0.00  0.00    +0.000 A 
ATOM     23  C   UNL     1       5.008   4.193  17.123  0.00  0.00    +0.000 A 
ATOM     24  C   UNL     1       4.609   5.494  17.433  0.00  0.00    +0.000 A 
ATOM     25  C   UNL     1       4.934   6.532  16.560  0.00  0.00    +0.000 A 
ATOM     26  C   UNL     1       5.621   6.263  15.372  0.00  0.00    +0.000 A 
BRANCH  21  28
ATOM     27  C   UNL     1       6.007   3.506  13.006  0.00  0.00    +0.000 C 
ATOM     28  C   UNL     1       6.677   4.667  13.730  0.00  0.00    +0.000 C 
ENDBRANCH  21  28
ENDBRANCH  20  24
ENDBRANCH  18  20
ENDBRANCH   1  18
TORSDOF 5
ENDMDL
MODEL 3
REMARK VINA RESULT:      -7.2      3.323      6.110
REMARK  Name = 
REMARK  7 active torsions:
REMARK  status: ('A' for Active; 'I' for Inactive)
REMARK    1  A    between atoms: C_1  and  C_2
REMARK    2  A    between atoms: C_2  and  C_3
REMARK    3  A    between atoms: C_6  and  O_7
REMARK    4  A    between atoms: O_7  and  C_8
REMARK    5  A    between atoms: C_8  and  C_9
REMARK    6  A    between atoms: C_8  and  C_10
REMARK    7  A    between atoms: C_15  and  C_16
REMARK                            x       y       z     vdW  Elec       q    Type
REMARK                         _______ _______ _______ _____ _____    ______ ____
ROOT
ATOM      1  C   UNL     1       1.446  13.044  20.148  0.00  0.00    +0.000 C 
ATOM      2  O   UNL     1       1.107  13.205  21.326  0.00  0.00    +0.000 OA
ATOM      3  N   UNL     1       2.597  13.658  19.656  0.00  0.00    +0.000 N 
ATOM      4  C   UNL     1       3.538  14.255  20.607  0.00  0.00    +0.000 C 
ATOM      5  C   UNL     1       3.875  15.691  20.215  0.00  0.00    +0.000 C 
ATOM      6  C   UNL     1       4.401  15.784  18.773  0.00  0.00    +0.000 C 
ATOM      7  C   UNL     1       3.429  15.065  17.817  0.00  0.00    +0.000 C 
ATOM      8  C   UNL     1       3.055  13.649  18.269  0.00  0.00    +0.000 C 
ENDROOT
BRANCH   6   9
ATOM      9  C   UNL     1       5.814  15.253  18.677  0.00  0.00    +0.000 A 
ATOM     10  N   UNL     1       6.210  14.367  17.790  0.00  0.00    +0.000 NA
ATOM     11  C   UNL     1       7.518  13.991  18.031  0.00  0.00    +0.000 A 
ATOM     12  C   UNL     1       8.245  13.027  17.307  0.00  0.00    +0.000 A 
ATOM     13  C   UNL     1       9.558  12.722  17.668  0.00  0.00    +0.000 A 
ATOM     14  C   UNL     1      10.159  13.376  18.739  0.00  0.00    +0.000 A 
ATOM     15  C   UNL     1       9.463  14.344  19.471  0.00  0.00    +0.000 A 
ATOM     16  C   UNL     1       8.138  14.637  19.104  0.00  0.00    +0.000 A 
ATOM     17  S   UNL     1       7.020  15.746  19.803  0.00  0.00    +0.000 S 
ENDBRANCH   6   9
BRANCH   1  18
ATOM     18  C   UNL     1       0.593  12.160  19.199  0.00  0.00    +0.000 C 
ATOM     19  C   UNL     1      -0.687  12.895  18.798  0.00  0.00    +0.000 C 
BRANCH  18  20
ATOM     20  O   UNL     1       0.264  10.970  19.933  0.00  0.00    +0.000 OA
BRANCH  20  24
ATOM     21  C   UNL     1       2.365   7.604  18.635  0.00  0.00    +0.000 A 
ATOM     22  C   UNL     1       1.995   8.632  17.761  0.00  0.00    +0.000 A 
ATOM     23  C   UNL     1       1.271   9.731  18.231  0.00  0.00    +0.000 A 
ATOM     24  C   UNL     1       0.885   9.808  19.570  0.00  0.00    +0.000 A 
ATOM     25  C   UNL     1       1.220   8.768  20.437  0.00  0.00    +0.000 A 
ATOM     26  C   UNL     1       1.964   7.679  19.973  0.00  0.00    +0.000 A 
BRANCH  21  28
ATOM     27  C   UNL     1       2.439   5.181  17.996  0.00  0.00    +0.000 C 
ATOM     28  C   UNL     1       3.236   6.467  18.164  0.00  0.00    +0.000 C 
ENDBRANCH  21  28
ENDBRANCH  20  24
ENDBRANCH  18  20
ENDBRANCH   1  18
TORSDOF 5
ENDMDL
MODEL 4
REMARK VINA RESULT:      -7.2      2.943      4.707
REMARK  Name = 
REMARK  7 active torsions:
REMARK  status: ('A' for Active; 'I' for Inactive)
REMARK    1  A    between atoms: C_1  and  C_2
REMARK    2  A    between atoms: C_2  and  C_3
REMARK    3  A    between atoms: C_6  and  O_7
REMARK    4  A    between atoms: O_7  and  C_8
REMARK    5  A    between atoms: C_8  and  C_9
REMARK    6  A    between atoms: C_8  and  C_10
REMARK    7  A    between atoms: C_15  and  C_16
REMARK                            x       y       z     vdW  Elec       q    Type
REMARK                         _______ _______ _______ _____ _____    ______ ____
ROOT
ATOM      1  C   UNL     1       6.233   5.429  18.298  0.00  0.00    +0.000 C 
ATOM      2  O   UNL     1       6.419   4.361  18.894  0.00  0.00    +0.000 OA
ATOM      3  N   UNL     1       5.016   6.098  18.417  0.00  0.00    +0.000 N 
ATOM      4  C   UNL     1       4.079   5.677  19.461  0.00  0.00    +0.000 C 
ATOM      5  C   UNL     1       2.687   5.435  18.882  0.00  0.00    +0.000 C 
ATOM      6  C   UNL     1       2.161   6.663  18.120  0.00  0.00    +0.000 C 
ATOM      7  C   UNL     1       3.214   7.130  17.097  0.00  0.00    +0.000 C 
ATOM      8  C   UNL     1       4.617   7.301  17.690  0.00  0.00    +0.000 C 
ENDROOT
BRANCH   6   9
ATOM      9  C   UNL     1       1.751   7.759  19.078  0.00  0.00    +0.000 A 
ATOM     10  N   UNL     1       1.506   7.568  20.356  0.00  0.00    +0.000 NA
ATOM     11  C   UNL     1       1.038   8.731  20.939  0.00  0.00    +0.000 A 
ATOM     12  C   UNL     1       0.631   8.875  22.278  0.00  0.00    +0.000 A 
ATOM     13  C   UNL     1       0.155  10.103  22.738  0.00  0.00    +0.000 A 
ATOM     14  C   UNL     1       0.089  11.195  21.878  0.00  0.00    +0.000 A 
ATOM     15  C   UNL     1       0.496  11.083  20.544  0.00  0.00    +0.000 A 
ATOM     16  C   UNL     1       0.965   9.838  20.089  0.00  0.00    +0.000 A 
ATOM     17  S   UNL     1       1.512   9.371  18.523  0.00  0.00    +0.000 S 
ENDBRANCH   6   9
BRANCH   1  18
ATOM     18  C   UNL     1       7.349   6.037  17.409  0.00  0.00    +0.000 C 
ATOM     19  C   UNL     1       7.985   7.241  18.106  0.00  0.00    +0.000 C 
BRANCH  18  20
ATOM     20  O   UNL     1       6.718   6.456  16.188  0.00  0.00    +0.000 OA
BRANCH  20  24
ATOM     21  C   UNL     1       6.060   3.751  13.076  0.00  0.00    +0.000 A 
ATOM     22  C   UNL     1       5.109   3.978  14.077  0.00  0.00    +0.000 A 
ATOM     23  C   UNL     1       5.378   4.875  15.115  0.00  0.00    +0.000 A 
ATOM     24  C   UNL     1       6.605   5.537  15.184  0.00  0.00    +0.000 A 
ATOM     25  C   UNL     1       7.570   5.285  14.209  0.00  0.00    +0.000 A 
ATOM     26  C   UNL     1       7.294   4.406  13.157  0.00  0.00    +0.000 A 
BRANCH  21  28
ATOM     27  C   UNL     1       4.361   3.166  11.328  0.00  0.00    +0.000 C 
ATOM     28  C   UNL     1       5.743   2.869  11.896  0.00  0.00    +0.000 C 
ENDBRANCH  21  28
ENDBRANCH  20  24
ENDBRANCH  18  20
ENDBRANCH   1  18
TORSDOF 5
ENDMDL
MODEL 5
REMARK VINA RESULT:      -7.2      3.114      5.760
REMARK  Name = 
REMARK  7 active torsions:
REMARK  status: ('A' for Active; 'I' for Inactive)
REMARK    1  A    between atoms: C_1  and  C_2
REMARK    2  A    between atoms: C_2  and  C_3
REMARK    3  A    between atoms: C_6  and  O_7
REMARK    4  A    between atoms: O_7  and  C_8
REMARK    5  A    between atoms: C_8  and  C_9
REMARK    6  A    between atoms: C_8  and  C_10
REMARK    7  A    between atoms: C_15  and  C_16
REMARK                            x       y       z     vdW  Elec       q    Type
REMARK                         _______ _______ _______ _____ _____    ______ ____
ROOT
ATOM      1  C   UNL     1       1.152  12.810  20.476  0.00  0.00    +0.000 C 
ATOM      2  O   UNL     1       0.858  13.001  21.661  0.00  0.00    +0.000 OA
ATOM      3  N   UNL     1       2.256  13.448  19.912  0.00  0.00    +0.000 N 
ATOM      4  C   UNL     1       3.214  14.113  20.800  0.00  0.00    +0.000 C 
ATOM      5  C   UNL     1       3.479  15.545  20.343  0.00  0.00    +0.000 C 
ATOM      6  C   UNL     1       3.939  15.605  18.877  0.00  0.00    +0.000 C 
ATOM      7  C   UNL     1       2.955  14.817  17.991  0.00  0.00    +0.000 C 
ATOM      8  C   UNL     1       2.655  13.405  18.508  0.00  0.00    +0.000 C 
ENDROOT
BRANCH   6   9
ATOM      9  C   UNL     1       5.366  15.123  18.738  0.00  0.00    +0.000 A 
ATOM     10  N   UNL     1       5.779  14.307  17.794  0.00  0.00    +0.000 NA
ATOM     11  C   UNL     1       7.100  13.955  18.000  0.00  0.00    +0.000 A 
ATOM     12  C   UNL     1       7.847  13.061  17.212  0.00  0.00    +0.000 A 
ATOM     13  C   UNL     1       9.172  12.773  17.543  0.00  0.00    +0.000 A 
ATOM     14  C   UNL     1       9.763  13.375  18.649  0.00  0.00    +0.000 A 
ATOM     15  C   UNL     1       9.047  14.275  19.445  0.00  0.00    +0.000 A 
ATOM     16  C   UNL     1       7.710  14.551  19.107  0.00  0.00    +0.000 A 
ATOM     17  S   UNL     1       6.567  15.580  19.884  0.00  0.00    +0.000 S 
ENDBRANCH   6   9
BRANCH   1  18
ATOM     18  C   UNL     1       0.294  11.862  19.597  0.00  0.00    +0.000 C 
ATOM     19  C   UNL     1      -1.154  12.351  19.547  0.00  0.00    +0.000 C 
BRANCH  18  20
ATOM     20  O   UNL     1       0.351  10.567  20.216  0.00  0.00    +0.000 OA
BRANCH  20  24
ATOM     21  C   UNL     1       2.505   7.413  18.528  0.00  0.00    +0.000 A 
ATOM     22  C   UNL     1       2.097   7.402  19.867  0.00  0.00    +0.000 A 
ATOM     23  C   UNL     1       1.399   8.489  20.400  0.00  0.00    +0.000 A 
ATOM     24  C   UNL     1       1.119   9.609  19.615  0.00  0.00    +0.000 A 
ATOM     25  C   UNL     1       1.555   9.639  18.291  0.00  0.00    +0.000 A 
ATOM     26  C   UNL     1       2.234   8.543  17.749  0.00  0.00    +0.000 A 
BRANCH  21  28
ATOM     27  C   UNL     1       2.448   4.917  18.297  0.00  0.00    +0.000 C 
ATOM     28  C   UNL     1       3.164   6.205  17.912  0.00  0.00    +0.000 C 
ENDBRANCH  21  28
ENDBRANCH  20  24
ENDBRANCH  18  20
ENDBRANCH   1  18
TORSDOF 5
ENDMDL
MODEL 6
REMARK VINA RESULT:      -7.1      1.579      2.192
REMARK  Name = 
REMARK  7 active torsions:
REMARK  status: ('A' for Active; 'I' for Inactive)
REMARK    1  A    between atoms: C_1  and  C_2
REMARK    2  A    between atoms: C_2  and  C_3
REMARK    3  A    between atoms: C_6  and  O_7
REMARK    4  A    between atoms: O_7  and  C_8
REMARK    5  A    between atoms: C_8  and  C_9
REMARK    6  A    between atoms: C_8  and  C_10
REMARK    7  A    between atoms: C_15  and  C_16
REMARK                            x       y       z     vdW  Elec       q    Type
REMARK                         _______ _______ _______ _____ _____    ______ ____
ROOT
ATOM      1  C   UNL     1       2.175   6.385  19.422  0.00  0.00    +0.000 C 
ATOM      2  O   UNL     1       2.100   5.797  20.507  0.00  0.00    +0.000 OA
ATOM      3  N   UNL     1       1.819   7.730  19.324  0.00  0.00    +0.000 N 
ATOM      4  C   UNL     1       1.630   8.500  20.555  0.00  0.00    +0.000 C 
ATOM      5  C   UNL     1       0.291   9.232  20.542  0.00  0.00    +0.000 C 
ATOM      6  C   UNL     1       0.134  10.120  19.296  0.00  0.00    +0.000 C 
ATOM      7  C   UNL     1       0.432   9.296  18.029  0.00  0.00    +0.000 C 
ATOM      8  C   UNL     1       1.751   8.517  18.095  0.00  0.00    +0.000 C 
ENDROOT
BRANCH   6   9
ATOM      9  C   UNL     1       0.997  11.358  19.403  0.00  0.00    +0.000 A 
ATOM     10  N   UNL     1       1.683  11.867  18.403  0.00  0.00    +0.000 NA
ATOM     11  C   UNL     1       2.464  12.921  18.838  0.00  0.00    +0.000 A 
ATOM     12  C   UNL     1       3.359  13.665  18.047  0.00  0.00    +0.000 A 
ATOM     13  C   UNL     1       4.109  14.695  18.617  0.00  0.00    +0.000 A 
ATOM     14  C   UNL     1       3.968  14.999  19.967  0.00  0.00    +0.000 A 
ATOM     15  C   UNL     1       3.078  14.283  20.775  0.00  0.00    +0.000 A 
ATOM     16  C   UNL     1       2.335  13.241  20.193  0.00  0.00    +0.000 A 
ATOM     17  S   UNL     1       1.189  12.171  20.908  0.00  0.00    +0.000 S 
ENDBRANCH   6   9
BRANCH   1  18
ATOM     18  C   UNL     1       2.663   5.635  18.154  0.00  0.00    +0.000 C 
ATOM     19  C   UNL     1       1.600   4.639  17.687  0.00  0.00    +0.000 C 
BRANCH  18  20
ATOM     20  O   UNL     1       3.859   4.933  18.528  0.00  0.00    +0.000 OA
BRANCH  20  24
ATOM     21  C   UNL     1       7.338   7.159  17.908  0.00  0.00    +0.000 A 
ATOM     22  C   UNL     1       6.178   7.366  17.154  0.00  0.00    +0.000 A 
ATOM     23  C   UNL     1       5.042   6.583  17.376  0.00  0.00    +0.000 A 
ATOM     24  C   UNL     1       5.054   5.569  18.335  0.00  0.00    +0.000 A 
ATOM     25  C   UNL     1       6.219   5.334  19.063  0.00  0.00    +0.000 A 
ATOM     26  C   UNL     1       7.349   6.131  18.858  0.00  0.00    +0.000 A 
BRANCH  21  28
ATOM     27  C   UNL     1       8.161   9.526  17.965  0.00  0.00    +0.000 C 
ATOM     28  C   UNL     1       8.533   8.064  17.753  0.00  0.00    +0.000 C 
ENDBRANCH  21  28
ENDBRANCH  20  24
ENDBRANCH  18  20
ENDBRANCH   1  18
TORSDOF 5
ENDMDL
MODEL 7
REMARK VINA RESULT:      -7.0      0.820      1.214
REMARK  Name = 
REMARK  7 active torsions:
REMARK  status: ('A' for Active; 'I' for Inactive)
REMARK    1  A    between atoms: C_1  and  C_2
REMARK    2  A    between atoms: C_2  and  C_3
REMARK    3  A    between atoms: C_6  and  O_7
REMARK    4  A    between atoms: O_7  and  C_8
REMARK    5  A    between atoms: C_8  and  C_9
REMARK    6  A    between atoms: C_8  and  C_10
REMARK    7  A    between atoms: C_15  and  C_16
REMARK                            x       y       z     vdW  Elec       q    Type
REMARK                         _______ _______ _______ _____ _____    ______ ____
ROOT
ATOM      1  C   UNL     1       2.056   7.146  19.559  0.00  0.00    +0.000 C 
ATOM      2  O   UNL     1       2.094   6.506  20.616  0.00  0.00    +0.000 OA
ATOM      3  N   UNL     1       1.548   8.444  19.540  0.00  0.00    +0.000 N 
ATOM      4  C   UNL     1       1.325   9.132  20.814  0.00  0.00    +0.000 C 
ATOM      5  C   UNL     1      -0.087   9.707  20.885  0.00  0.00    +0.000 C 
ATOM      6  C   UNL     1      -0.394  10.626  19.690  0.00  0.00    +0.000 C 
ATOM      7  C   UNL     1      -0.059   9.897  18.374  0.00  0.00    +0.000 C 
ATOM      8  C   UNL     1       1.340   9.272  18.355  0.00  0.00    +0.000 C 
ENDROOT
BRANCH   6   9
ATOM      9  C   UNL     1       0.328  11.948  19.826  0.00  0.00    +0.000 A 
ATOM     10  N   UNL     1       0.988  12.531  18.849  0.00  0.00    +0.000 NA
ATOM     11  C   UNL     1       1.638  13.661  19.310  0.00  0.00    +0.000 A 
ATOM     12  C   UNL     1       2.474  14.498  18.549  0.00  0.00    +0.000 A 
ATOM     13  C   UNL     1       3.091  15.600  19.143  0.00  0.00    +0.000 A 
ATOM     14  C   UNL     1       2.875  15.882  20.488  0.00  0.00    +0.000 A 
ATOM     15  C   UNL     1       2.041  15.072  21.266  0.00  0.00    +0.000 A 
ATOM     16  C   UNL     1       1.432  13.959  20.660  0.00  0.00    +0.000 A 
ATOM     17  S   UNL     1       0.384  12.771  21.337  0.00  0.00    +0.000 S 
ENDBRANCH   6   9
BRANCH   1  18
ATOM     18  C   UNL     1       2.571   6.513  18.239  0.00  0.00    +0.000 C 
ATOM     19  C   UNL     1       1.894   5.162  18.000  0.00  0.00    +0.000 C 
BRANCH  18  20
ATOM     20  O   UNL     1       3.987   6.328  18.399  0.00  0.00    +0.000 OA
BRANCH  20  24
ATOM     21  C   UNL     1       6.215   5.002  15.126  0.00  0.00    +0.000 A 
ATOM     22  C   UNL     1       5.466   6.183  15.086  0.00  0.00    +0.000 A 
ATOM     23  C   UNL     1       4.715   6.580  16.195  0.00  0.00    +0.000 A 
ATOM     24  C   UNL     1       4.679   5.794  17.348  0.00  0.00    +0.000 A 
ATOM     25  C   UNL     1       5.395   4.597  17.379  0.00  0.00    +0.000 A 
ATOM     26  C   UNL     1       6.165   4.210  16.278  0.00  0.00    +0.000 A 
BRANCH  21  28
ATOM     27  C   UNL     1       6.365   3.809  12.926  0.00  0.00    +0.000 C 
ATOM     28  C   UNL     1       7.113   4.618  13.977  0.00  0.00    +0.000 C 
ENDBRANCH  21  28
ENDBRANCH  20  24
ENDBRANCH  18  20
ENDBRANCH   1  18
TORSDOF 5
ENDMDL
MODEL 8
REMARK VINA RESULT:      -6.9      1.217      1.715
REMARK  Name = 
REMARK  7 active torsions:
REMARK  status: ('A' for Active; 'I' for Inactive)
REMARK    1  A    between atoms: C_1  and  C_2
REMARK    2  A    between atoms: C_2  and  C_3
REMARK    3  A    between atoms: C_6  and  O_7
REMARK    4  A    between atoms: O_7  and  C_8
REMARK    5  A    between atoms: C_8  and  C_9
REMARK    6  A    between atoms: C_8  and  C_10
REMARK    7  A    between atoms: C_15  and  C_16
REMARK                            x       y       z     vdW  Elec       q    Type
REMARK                         _______ _______ _______ _____ _____    ______ ____
ROOT
ATOM      1  C   UNL     1       2.057   7.211  19.710  0.00  0.00    +0.000 C 
ATOM      2  O   UNL     1       2.108   6.589  20.778  0.00  0.00    +0.000 OA
ATOM      3  N   UNL     1       1.605   8.529  19.685  0.00  0.00    +0.000 N 
ATOM      4  C   UNL     1       1.461   9.250  20.952  0.00  0.00    +0.000 C 
ATOM      5  C   UNL     1       0.079   9.887  21.066  0.00  0.00    +0.000 C 
ATOM      6  C   UNL     1      -0.234  10.796  19.866  0.00  0.00    +0.000 C 
ATOM      7  C   UNL     1       0.018  10.031  18.553  0.00  0.00    +0.000 C 
ATOM      8  C   UNL     1       1.388   9.345  18.492  0.00  0.00    +0.000 C 
ENDROOT
BRANCH   6   9
ATOM      9  C   UNL     1       0.548  12.088  19.948  0.00  0.00    +0.000 A 
ATOM     10  N   UNL     1       1.094  12.551  21.051  0.00  0.00    +0.000 NA
ATOM     11  C   UNL     1       1.635  13.805  20.836  0.00  0.00    +0.000 A 
ATOM     12  C   UNL     1       2.253  14.613  21.808  0.00  0.00    +0.000 A 
ATOM     13  C   UNL     1       2.740  15.875  21.464  0.00  0.00    +0.000 A 
ATOM     14  C   UNL     1       2.625  16.336  20.157  0.00  0.00    +0.000 A 
ATOM     15  C   UNL     1       2.024  15.550  19.168  0.00  0.00    +0.000 A 
ATOM     16  C   UNL     1       1.528  14.285  19.528  0.00  0.00    +0.000 A 
ATOM     17  S   UNL     1       0.727  13.100  18.566  0.00  0.00    +0.000 S 
ENDBRANCH   6   9
BRANCH   1  18
ATOM     18  C   UNL     1       2.493   6.533  18.384  0.00  0.00    +0.000 C 
ATOM     19  C   UNL     1       1.748   5.210  18.196  0.00  0.00    +0.000 C 
BRANCH  18  20
ATOM     20  O   UNL     1       3.904   6.287  18.495  0.00  0.00    +0.000 OA
BRANCH  20  24
ATOM     21  C   UNL     1       5.994   4.819  15.191  0.00  0.00    +0.000 A 
ATOM     22  C   UNL     1       5.459   6.112  15.218  0.00  0.00    +0.000 A 
ATOM     23  C   UNL     1       4.746   6.556  16.335  0.00  0.00    +0.000 A 
ATOM     24  C   UNL     1       4.534   5.713  17.426  0.00  0.00    +0.000 A 
ATOM     25  C   UNL     1       5.033   4.411  17.388  0.00  0.00    +0.000 A 
ATOM     26  C   UNL     1       5.767   3.972  16.282  0.00  0.00    +0.000 A 
BRANCH  21  28
ATOM     27  C   UNL     1       6.031   3.676  12.960  0.00  0.00    +0.000 C 
ATOM     28  C   UNL     1       6.855   4.364  14.041  0.00  0.00    +0.000 C 
ENDBRANCH  21  28
ENDBRANCH  20  24
ENDBRANCH  18  20
ENDBRANCH   1  18
TORSDOF 5
ENDMDL
MODEL 9
REMARK VINA RESULT:      -6.9      2.557      4.764
REMARK  Name = 
REMARK  7 active torsions:
REMARK  status: ('A' for Active; 'I' for Inactive)
REMARK    1  A    between atoms: C_1  and  C_2
REMARK    2  A    between atoms: C_2  and  C_3
REMARK    3  A    between atoms: C_6  and  O_7
REMARK    4  A    between atoms: O_7  and  C_8
REMARK    5  A    between atoms: C_8  and  C_9
REMARK    6  A    between atoms: C_8  and  C_10
REMARK    7  A    between atoms: C_15  and  C_16
REMARK                            x       y       z     vdW  Elec       q    Type
REMARK                         _______ _______ _______ _____ _____    ______ ____
ROOT
ATOM      1  C   UNL     1       1.031  11.683  20.506  0.00  0.00    +0.000 C 
ATOM      2  O   UNL     1       0.632  11.787  21.671  0.00  0.00    +0.000 OA
ATOM      3  N   UNL     1       1.869  12.654  19.959  0.00  0.00    +0.000 N 
ATOM      4  C   UNL     1       2.491  13.633  20.854  0.00  0.00    +0.000 C 
ATOM      5  C   UNL     1       2.260  15.056  20.351  0.00  0.00    +0.000 C 
ATOM      6  C   UNL     1       2.740  15.237  18.902  0.00  0.00    +0.000 C 
ATOM      7  C   UNL     1       2.138  14.133  18.012  0.00  0.00    +0.000 C 
ATOM      8  C   UNL     1       2.325  12.719  18.573  0.00  0.00    +0.000 C 
ENDROOT
BRANCH   6   9
ATOM      9  C   UNL     1       4.251  15.283  18.834  0.00  0.00    +0.000 A 
ATOM     10  N   UNL     1       4.975  14.545  18.022  0.00  0.00    +0.000 NA
ATOM     11  C   UNL     1       6.322  14.721  18.277  0.00  0.00    +0.000 A 
ATOM     12  C   UNL     1       7.378  14.053  17.630  0.00  0.00    +0.000 A 
ATOM     13  C   UNL     1       8.699  14.307  18.000  0.00  0.00    +0.000 A 
ATOM     14  C   UNL     1       8.981  15.229  19.003  0.00  0.00    +0.000 A 
ATOM     15  C   UNL     1       7.952  15.915  19.657  0.00  0.00    +0.000 A 
ATOM     16  C   UNL     1       6.624  15.644  19.283  0.00  0.00    +0.000 A 
ATOM     17  S   UNL     1       5.151  16.294  19.898  0.00  0.00    +0.000 S 
ENDBRANCH   6   9
BRANCH   1  18
ATOM     18  C   UNL     1       0.602  10.473  19.634  0.00  0.00    +0.000 C 
ATOM     19  C   UNL     1      -0.916  10.467  19.446  0.00  0.00    +0.000 C 
BRANCH  18  20
ATOM     20  O   UNL     1       1.010   9.292  20.343  0.00  0.00    +0.000 OA
BRANCH  20  24
ATOM     21  C   UNL     1       3.327   6.635  18.105  0.00  0.00    +0.000 A 
ATOM     22  C   UNL     1       2.922   7.875  17.600  0.00  0.00    +0.000 A 
ATOM     23  C   UNL     1       2.126   8.725  18.373  0.00  0.00    +0.000 A 
ATOM     24  C   UNL     1       1.704   8.342  19.647  0.00  0.00    +0.000 A 
ATOM     25  C   UNL     1       2.075   7.092  20.140  0.00  0.00    +0.000 A 
ATOM     26  C   UNL     1       2.890   6.249  19.377  0.00  0.00    +0.000 A 
BRANCH  21  28
ATOM     27  C   UNL     1       5.036   6.546  16.273  0.00  0.00    +0.000 C 
ATOM     28  C   UNL     1       4.271   5.755  17.326  0.00  0.00    +0.000 C 
ENDBRANCH  21  28
ENDBRANCH  20  24
ENDBRANCH  18  20
ENDBRANCH   1  18
TORSDOF 5
ENDMDL
