MODEL 1
REMARK VINA RESULT:      -7.7      0.000      0.000
REMARK  Name = 
REMARK  11 active torsions:
REMARK  status: ('A' for Active; 'I' for Inactive)
REMARK    1  A    between atoms: C_1  and  C_2
REMARK    2  A    between atoms: C_2  and  C_3
REMARK    3  A    between atoms: C_4  and  O_5
REMARK    4  A    between atoms: C_9  and  C_10
REMARK    5  A    between atoms: C_13  and  C_14
REMARK    6  A    between atoms: C_14  and  C_15
REMARK    7  A    between atoms: C_14  and  C_16
REMARK    8  A    between atoms: C_22  and  C_23
REMARK    9  A    between atoms: C_22  and  C_25
REMARK   10  A    between atoms: C_23  and  C_24
REMARK   11  A    between atoms: C_25  and  C_26
REMARK                            x       y       z     vdW  Elec       q    Type
REMARK                         _______ _______ _______ _____ _____    ______ ____
ROOT
ATOM      1  C   UNL     1      -2.127  12.284  21.504  0.00  0.00    +0.000 C 
ATOM      2  C   UNL     1      -1.291  11.477  22.175  0.00  0.00    +0.000 C 
ATOM      3  C   UNL     1      -0.428  10.494  21.533  0.00  0.00    +0.000 A 
ATOM      4  C   UNL     1      -0.411  10.358  20.184  0.00  0.00    +0.000 A 
ATOM      5  O   UNL     1       0.437   9.492  19.510  0.00  0.00    +0.000 OA
ATOM      6  C   UNL     1       1.283   8.670  20.227  0.00  0.00    +0.000 A 
ATOM      7  C   UNL     1       1.369   8.696  21.559  0.00  0.00    +0.000 A 
ATOM      8  C   UNL     1       0.527   9.635  22.313  0.00  0.00    +0.000 A 
ATOM      9  O   UNL     1       0.663   9.655  23.535  0.00  0.00    +0.000 OA
ATOM     10  C   UNL     1      -1.294  11.194  19.267  0.00  0.00    +0.000 C 
ATOM     11  C   UNL     1      -2.226  12.159  20.017  0.00  0.00    +0.000 C 
ATOM     12  O   UNL     1      -3.033  12.865  19.412  0.00  0.00    +0.000 OA
ENDROOT
BRANCH   6  13
ATOM     13  C   UNL     1       2.087   7.744  19.431  0.00  0.00    +0.000 A 
ATOM     14  C   UNL     1       2.616   8.136  18.196  0.00  0.00    +0.000 A 
ATOM     15  C   UNL     1       3.457   7.275  17.481  0.00  0.00    +0.000 A 
ATOM     16  C   UNL     1       3.766   5.993  17.965  0.00  0.00    +0.000 A 
ATOM     17  C   UNL     1       3.187   5.590  19.177  0.00  0.00    +0.000 A 
ATOM     18  C   UNL     1       2.354   6.455  19.901  0.00  0.00    +0.000 A 
BRANCH  16  19
ATOM     19  C   UNL     1       4.717   5.096  17.185  0.00  0.00    +0.000 C 
ATOM     20  C   UNL     1       5.318   5.805  15.967  0.00  0.00    +0.000 C 
ATOM     21  C   UNL     1       5.844   4.526  18.052  0.00  0.00    +0.000 C 
ENDBRANCH  16  19
ENDBRANCH   6  13
BRANCH   1  23
ATOM     22  C   UNL     1      -4.283  12.769  22.638  0.00  0.00    +0.000 C 
ATOM     23  C   UNL     1      -2.980  13.363  22.121  0.00  0.00    +0.000 C 
ENDBRANCH   1  23
BRANCH   2  24
ATOM     24  O   UNL     1      -1.134  11.551  23.539  0.00  0.00    +0.000 OA
ATOM     25  H   UNL     1      -0.206  11.680  23.784  0.00  0.00    +0.000 HD
ENDBRANCH   2  24
BRANCH  10  26
ATOM     26  C   UNL     1      -0.394  12.091  18.360  0.00  0.00    +0.000 C 
ATOM     27  C   UNL     1       0.533  13.033  19.141  0.00  0.00    +0.000 C 
ENDBRANCH  10  26
BRANCH  10  28
ATOM     28  C   UNL     1      -2.223  10.287  18.397  0.00  0.00    +0.000 C 
ATOM     29  C   UNL     1      -2.145  10.521  16.884  0.00  0.00    +0.000 C 
ENDBRANCH  10  28
TORSDOF 6
ENDMDL
MODEL 2
REMARK VINA RESULT:      -7.7      0.569      1.112
REMARK  Name = 
REMARK  11 active torsions:
REMARK  status: ('A' for Active; 'I' for Inactive)
REMARK    1  A    between atoms: C_1  and  C_2
REMARK    2  A    between atoms: C_2  and  C_3
REMARK    3  A    between atoms: C_4  and  O_5
REMARK    4  A    between atoms: C_9  and  C_10
REMARK    5  A    between atoms: C_13  and  C_14
REMARK    6  A    between atoms: C_14  and  C_15
REMARK    7  A    between atoms: C_14  and  C_16
REMARK    8  A    between atoms: C_22  and  C_23
REMARK    9  A    between atoms: C_22  and  C_25
REMARK   10  A    between atoms: C_23  and  C_24
REMARK   11  A    between atoms: C_25  and  C_26
REMARK                            x       y       z     vdW  Elec       q    Type
REMARK                         _______ _______ _______ _____ _____    ______ ____
ROOT
ATOM      1  C   UNL     1      -1.949  12.246  21.430  0.00  0.00    +0.000 C 
ATOM      2  C   UNL     1      -1.146  11.438  22.138  0.00  0.00    +0.000 C 
ATOM      3  C   UNL     1      -0.316  10.398  21.543  0.00  0.00    +0.000 A 
ATOM      4  C   UNL     1      -0.299  10.205  20.202  0.00  0.00    +0.000 A 
ATOM      5  O   UNL     1       0.519   9.282  19.569  0.00  0.00    +0.000 OA
ATOM      6  C   UNL     1       1.332   8.460  20.325  0.00  0.00    +0.000 A 
ATOM      7  C   UNL     1       1.413   8.539  21.655  0.00  0.00    +0.000 A 
ATOM      8  C   UNL     1       0.603   9.539  22.364  0.00  0.00    +0.000 A 
ATOM      9  O   UNL     1       0.735   9.606  23.585  0.00  0.00    +0.000 OA
ATOM     10  C   UNL     1      -1.148  11.033  19.245  0.00  0.00    +0.000 C 
ATOM     11  C   UNL     1      -2.047  12.062  19.948  0.00  0.00    +0.000 C 
ATOM     12  O   UNL     1      -2.825  12.771  19.310  0.00  0.00    +0.000 OA
ENDROOT
BRANCH   6  13
ATOM     13  C   UNL     1       2.104   7.472  19.572  0.00  0.00    +0.000 A 
ATOM     14  C   UNL     1       2.197   6.149  20.016  0.00  0.00    +0.000 A 
ATOM     15  C   UNL     1       2.864   5.189  19.245  0.00  0.00    +0.000 A 
ATOM     16  C   UNL     1       3.479   5.532  18.030  0.00  0.00    +0.000 A 
ATOM     17  C   UNL     1       3.426   6.873  17.621  0.00  0.00    +0.000 A 
ATOM     18  C   UNL     1       2.749   7.833  18.385  0.00  0.00    +0.000 A 
BRANCH  16  19
ATOM     19  C   UNL     1       4.160   4.458  17.193  0.00  0.00    +0.000 C 
ATOM     20  C   UNL     1       5.672   4.683  17.078  0.00  0.00    +0.000 C 
ATOM     21  C   UNL     1       3.892   3.041  17.709  0.00  0.00    +0.000 C 
ENDBRANCH  16  19
ENDBRANCH   6  13
BRANCH   1  23
ATOM     22  C   UNL     1      -4.076  12.852  22.561  0.00  0.00    +0.000 C 
ATOM     23  C   UNL     1      -2.765  13.380  21.996  0.00  0.00    +0.000 C 
ENDBRANCH   1  23
BRANCH   2  24
ATOM     24  O   UNL     1      -0.992  11.564  23.499  0.00  0.00    +0.000 OA
ATOM     25  H   UNL     1      -0.151  11.188  23.799  0.00  0.00    +0.000 HD
ENDBRANCH   2  24
BRANCH  10  26
ATOM     26  C   UNL     1      -0.212  11.858  18.306  0.00  0.00    +0.000 C 
ATOM     27  C   UNL     1       0.743  12.800  19.052  0.00  0.00    +0.000 C 
ENDBRANCH  10  26
BRANCH  10  28
ATOM     28  C   UNL     1      -2.105  10.124  18.409  0.00  0.00    +0.000 C 
ATOM     29  C   UNL     1      -1.881  10.148  16.893  0.00  0.00    +0.000 C 
ENDBRANCH  10  28
TORSDOF 6
ENDMDL
MODEL 3
REMARK VINA RESULT:      -7.6      1.446      2.039
REMARK  Name = 
REMARK  11 active torsions:
REMARK  status: ('A' for Active; 'I' for Inactive)
REMARK    1  A    between atoms: C_1  and  C_2
REMARK    2  A    between atoms: C_2  and  C_3
REMARK    3  A    between atoms: C_4  and  O_5
REMARK    4  A    between atoms: C_9  and  C_10
REMARK    5  A    between atoms: C_13  and  C_14
REMARK    6  A    between atoms: C_14  and  C_15
REMARK    7  A    between atoms: C_14  and  C_16
REMARK    8  A    between atoms: C_22  and  C_23
REMARK    9  A    between atoms: C_22  and  C_25
REMARK   10  A    between atoms: C_23  and  C_24
REMARK   11  A    between atoms: C_25  and  C_26
REMARK                            x       y       z     vdW  Elec       q    Type
REMARK                         _______ _______ _______ _____ _____    ______ ____
ROOT
ATOM      1  C   UNL     1      -0.783  13.018  21.101  0.00  0.00    +0.000 C 
ATOM      2  C   UNL     1      -0.476  11.998  21.915  0.00  0.00    +0.000 C 
ATOM      3  C   UNL     1       0.129  10.753  21.458  0.00  0.00    +0.000 A 
ATOM      4  C   UNL     1       0.442  10.570  20.152  0.00  0.00    +0.000 A 
ATOM      5  O   UNL     1       1.081   9.440  19.666  0.00  0.00    +0.000 OA
ATOM      6  C   UNL     1       1.380   8.402  20.528  0.00  0.00    +0.000 A 
ATOM      7  C   UNL     1       1.127   8.446  21.838  0.00  0.00    +0.000 A 
ATOM      8  C   UNL     1       0.497   9.646  22.406  0.00  0.00    +0.000 A 
ATOM      9  O   UNL     1       0.316   9.663  23.622  0.00  0.00    +0.000 OA
ATOM     10  C   UNL     1       0.165  11.625  19.089  0.00  0.00    +0.000 C 
ATOM     11  C   UNL     1      -0.536  12.880  19.632  0.00  0.00    +0.000 C 
ATOM     12  O   UNL     1      -0.868  13.800  18.883  0.00  0.00    +0.000 OA
ENDROOT
BRANCH   6  13
ATOM     13  C   UNL     1       1.991   7.226  19.910  0.00  0.00    +0.000 A 
ATOM     14  C   UNL     1       1.926   5.976  20.535  0.00  0.00    +0.000 A 
ATOM     15  C   UNL     1       2.434   4.838  19.896  0.00  0.00    +0.000 A 
ATOM     16  C   UNL     1       3.045   4.925  18.634  0.00  0.00    +0.000 A 
ATOM     17  C   UNL     1       3.153   6.192  18.041  0.00  0.00    +0.000 A 
ATOM     18  C   UNL     1       2.634   7.330  18.673  0.00  0.00    +0.000 A 
BRANCH  16  19
ATOM     19  C   UNL     1       3.551   3.664  17.946  0.00  0.00    +0.000 C 
ATOM     20  C   UNL     1       2.412   2.710  17.571  0.00  0.00    +0.000 C 
ATOM     21  C   UNL     1       4.398   3.961  16.705  0.00  0.00    +0.000 C 
ENDBRANCH  16  19
ENDBRANCH   6  13
BRANCH   1  23
ATOM     22  C   UNL     1      -0.208  15.281  21.950  0.00  0.00    +0.000 C 
ATOM     23  C   UNL     1      -1.340  14.349  21.541  0.00  0.00    +0.000 C 
ENDBRANCH   1  23
BRANCH   2  24
ATOM     24  O   UNL     1      -0.657  12.063  23.277  0.00  0.00    +0.000 OA
ATOM     25  H   UNL     1      -0.431  11.225  23.707  0.00  0.00    +0.000 HD
ENDBRANCH   2  24
BRANCH  10  26
ATOM     26  C   UNL     1       1.518  12.121  18.489  0.00  0.00    +0.000 C 
ATOM     27  C   UNL     1       2.310  13.047  19.421  0.00  0.00    +0.000 C 
ENDBRANCH  10  26
BRANCH  10  28
ATOM     28  C   UNL     1      -0.765  11.064  17.965  0.00  0.00    +0.000 C 
ATOM     29  C   UNL     1      -2.085  10.450  18.445  0.00  0.00    +0.000 C 
ENDBRANCH  10  28
TORSDOF 6
ENDMDL
MODEL 4
REMARK VINA RESULT:      -7.5      1.184      1.514
REMARK  Name = 
REMARK  11 active torsions:
REMARK  status: ('A' for Active; 'I' for Inactive)
REMARK    1  A    between atoms: C_1  and  C_2
REMARK    2  A    between atoms: C_2  and  C_3
REMARK    3  A    between atoms: C_4  and  O_5
REMARK    4  A    between atoms: C_9  and  C_10
REMARK    5  A    between atoms: C_13  and  C_14
REMARK    6  A    between atoms: C_14  and  C_15
REMARK    7  A    between atoms: C_14  and  C_16
REMARK    8  A    between atoms: C_22  and  C_23
REMARK    9  A    between atoms: C_22  and  C_25
REMARK   10  A    between atoms: C_23  and  C_24
REMARK   11  A    between atoms: C_25  and  C_26
REMARK                            x       y       z     vdW  Elec       q    Type
REMARK                         _______ _______ _______ _____ _____    ______ ____
ROOT
ATOM      1  C   UNL     1      -0.867  12.960  21.122  0.00  0.00    +0.000 C 
ATOM      2  C   UNL     1      -0.520  11.937  21.916  0.00  0.00    +0.000 C 
ATOM      3  C   UNL     1       0.117  10.718  21.431  0.00  0.00    +0.000 A 
ATOM      4  C   UNL     1       0.419  10.566  20.119  0.00  0.00    +0.000 A 
ATOM      5  O   UNL     1       1.086   9.463  19.607  0.00  0.00    +0.000 OA
ATOM      6  C   UNL     1       1.427   8.422  20.448  0.00  0.00    +0.000 A 
ATOM      7  C   UNL     1       1.188   8.437  21.761  0.00  0.00    +0.000 A 
ATOM      8  C   UNL     1       0.530   9.608  22.356  0.00  0.00    +0.000 A 
ATOM      9  O   UNL     1       0.363   9.600  23.574  0.00  0.00    +0.000 OA
ATOM     10  C   UNL     1       0.098  11.629  19.076  0.00  0.00    +0.000 C 
ATOM     11  C   UNL     1      -0.634  12.854  19.648  0.00  0.00    +0.000 C 
ATOM     12  O   UNL     1      -1.003  13.775  18.918  0.00  0.00    +0.000 OA
ENDROOT
BRANCH   6  13
ATOM     13  C   UNL     1       2.065   7.274  19.803  0.00  0.00    +0.000 A 
ATOM     14  C   UNL     1       2.657   7.401  18.542  0.00  0.00    +0.000 A 
ATOM     15  C   UNL     1       3.343   6.323  17.971  0.00  0.00    +0.000 A 
ATOM     16  C   UNL     1       3.429   5.085  18.629  0.00  0.00    +0.000 A 
ATOM     17  C   UNL     1       2.785   4.953  19.869  0.00  0.00    +0.000 A 
ATOM     18  C   UNL     1       2.108   6.035  20.448  0.00  0.00    +0.000 A 
BRANCH  16  19
ATOM     19  C   UNL     1       4.217   3.943  18.001  0.00  0.00    +0.000 C 
ATOM     20  C   UNL     1       3.437   2.624  18.011  0.00  0.00    +0.000 C 
ATOM     21  C   UNL     1       4.680   4.252  16.575  0.00  0.00    +0.000 C 
ENDBRANCH  16  19
ENDBRANCH   6  13
BRANCH   1  23
ATOM     22  C   UNL     1      -2.965  14.127  21.762  0.00  0.00    +0.000 C 
ATOM     23  C   UNL     1      -1.458  14.266  21.590  0.00  0.00    +0.000 C 
ENDBRANCH   1  23
BRANCH   2  24
ATOM     24  O   UNL     1      -0.686  11.975  23.280  0.00  0.00    +0.000 OA
ATOM     25  H   UNL     1      -0.631  12.880  23.620  0.00  0.00    +0.000 HD
ENDBRANCH   2  24
BRANCH  10  26
ATOM     26  C   UNL     1       1.428  12.175  18.469  0.00  0.00    +0.000 C 
ATOM     27  C   UNL     1       2.295  12.954  19.468  0.00  0.00    +0.000 C 
ENDBRANCH  10  26
BRANCH  10  28
ATOM     28  C   UNL     1      -0.828  11.059  17.955  0.00  0.00    +0.000 C 
ATOM     29  C   UNL     1      -2.147  10.445  18.436  0.00  0.00    +0.000 C 
ENDBRANCH  10  28
TORSDOF 6
ENDMDL
MODEL 5
REMARK VINA RESULT:      -7.3      0.969      1.258
REMARK  Name = 
REMARK  11 active torsions:
REMARK  status: ('A' for Active; 'I' for Inactive)
REMARK    1  A    between atoms: C_1  and  C_2
REMARK    2  A    between atoms: C_2  and  C_3
REMARK    3  A    between atoms: C_4  and  O_5
REMARK    4  A    between atoms: C_9  and  C_10
REMARK    5  A    between atoms: C_13  and  C_14
REMARK    6  A    between atoms: C_14  and  C_15
REMARK    7  A    between atoms: C_14  and  C_16
REMARK    8  A    between atoms: C_22  and  C_23
REMARK    9  A    between atoms: C_22  and  C_25
REMARK   10  A    between atoms: C_23  and  C_24
REMARK   11  A    between atoms: C_25  and  C_26
REMARK                            x       y       z     vdW  Elec       q    Type
REMARK                         _______ _______ _______ _____ _____    ______ ____
ROOT
ATOM      1  C   UNL     1      -1.260  12.904  21.637  0.00  0.00    +0.000 C 
ATOM      2  C   UNL     1      -0.885  11.754  22.215  0.00  0.00    +0.000 C 
ATOM      3  C   UNL     1      -0.143  10.707  21.526  0.00  0.00    +0.000 A 
ATOM      4  C   UNL     1       0.237  10.859  20.234  0.00  0.00    +0.000 A 
ATOM      5  O   UNL     1       1.004   9.932  19.544  0.00  0.00    +0.000 OA
ATOM      6  C   UNL     1       1.371   8.754  20.165  0.00  0.00    +0.000 A 
ATOM      7  C   UNL     1       1.064   8.471  21.433  0.00  0.00    +0.000 A 
ATOM      8  C   UNL     1       0.297   9.447  22.219  0.00  0.00    +0.000 A 
ATOM      9  O   UNL     1       0.067   9.167  23.394  0.00  0.00    +0.000 OA
ATOM     10  C   UNL     1      -0.102  12.103  19.422  0.00  0.00    +0.000 C 
ATOM     11  C   UNL     1      -0.944  13.132  20.192  0.00  0.00    +0.000 C 
ATOM     12  O   UNL     1      -1.337  14.167  19.652  0.00  0.00    +0.000 OA
ENDROOT
BRANCH   6  13
ATOM     13  C   UNL     1       2.118   7.810  19.334  0.00  0.00    +0.000 A 
ATOM     14  C   UNL     1       2.637   8.203  18.096  0.00  0.00    +0.000 A 
ATOM     15  C   UNL     1       3.427   7.322  17.347  0.00  0.00    +0.000 A 
ATOM     16  C   UNL     1       3.692   6.020  17.801  0.00  0.00    +0.000 A 
ATOM     17  C   UNL     1       3.122   5.618  19.019  0.00  0.00    +0.000 A 
ATOM     18  C   UNL     1       2.342   6.503  19.775  0.00  0.00    +0.000 A 
BRANCH  16  19
ATOM     19  C   UNL     1       4.589   5.099  16.985  0.00  0.00    +0.000 C 
ATOM     20  C   UNL     1       5.252   5.825  15.809  0.00  0.00    +0.000 C 
ATOM     21  C   UNL     1       5.664   4.410  17.831  0.00  0.00    +0.000 C 
ENDBRANCH  16  19
ENDBRANCH   6  13
BRANCH   1  23
ATOM     22  C   UNL     1      -0.952  14.909  23.072  0.00  0.00    +0.000 C 
ATOM     23  C   UNL     1      -1.963  14.043  22.332  0.00  0.00    +0.000 C 
ENDBRANCH   1  23
BRANCH   2  24
ATOM     24  O   UNL     1      -1.125  11.487  23.543  0.00  0.00    +0.000 OA
ATOM     25  H   UNL     1      -0.517  11.975  24.119  0.00  0.00    +0.000 HD
ENDBRANCH   2  24
BRANCH  10  26
ATOM     26  C   UNL     1       1.218  12.840  19.033  0.00  0.00    +0.000 C 
ATOM     27  C   UNL     1       2.073  13.261  20.235  0.00  0.00    +0.000 C 
ENDBRANCH  10  26
BRANCH  10  28
ATOM     28  C   UNL     1      -0.927  11.738  18.147  0.00  0.00    +0.000 C 
ATOM     29  C   UNL     1      -2.185  10.898  18.392  0.00  0.00    +0.000 C 
ENDBRANCH  10  28
TORSDOF 6
ENDMDL
MODEL 6
REMARK VINA RESULT:      -7.0      1.060      1.495
REMARK  Name = 
REMARK  11 active torsions:
REMARK  status: ('A' for Active; 'I' for Inactive)
REMARK    1  A    between atoms: C_1  and  C_2
REMARK    2  A    between atoms: C_2  and  C_3
REMARK    3  A    between atoms: C_4  and  O_5
REMARK    4  A    between atoms: C_9  and  C_10
REMARK    5  A    between atoms: C_13  and  C_14
REMARK    6  A    between atoms: C_14  and  C_15
REMARK    7  A    between atoms: C_14  and  C_16
REMARK    8  A    between atoms: C_22  and  C_23
REMARK    9  A    between atoms: C_22  and  C_25
REMARK   10  A    between atoms: C_23  and  C_24
REMARK   11  A    between atoms: C_25  and  C_26
REMARK                            x       y       z     vdW  Elec       q    Type
REMARK                         _______ _______ _______ _____ _____    ______ ____
ROOT
ATOM      1  C   UNL     1      -3.293  12.544  20.619  0.00  0.00    +0.000 C 
ATOM      2  C   UNL     1      -2.335  12.058  21.421  0.00  0.00    +0.000 C 
ATOM      3  C   UNL     1      -1.300  11.134  20.976  0.00  0.00    +0.000 A 
ATOM      4  C   UNL     1      -1.240  10.726  19.685  0.00  0.00    +0.000 A 
ATOM      5  O   UNL     1      -0.242   9.904  19.184  0.00  0.00    +0.000 OA
ATOM      6  C   UNL     1       0.730   9.415  20.035  0.00  0.00    +0.000 A 
ATOM      7  C   UNL     1       0.792   9.732  21.330  0.00  0.00    +0.000 A 
ATOM      8  C   UNL     1      -0.216  10.642  21.893  0.00  0.00    +0.000 A 
ATOM      9  O   UNL     1      -0.102  10.940  23.081  0.00  0.00    +0.000 OA
ATOM     10  C   UNL     1      -2.248  11.180  18.636  0.00  0.00    +0.000 C 
ATOM     11  C   UNL     1      -3.349  12.096  19.192  0.00  0.00    +0.000 C 
ATOM     12  O   UNL     1      -4.262  12.505  18.474  0.00  0.00    +0.000 OA
ENDROOT
BRANCH   6  13
ATOM     13  C   UNL     1       1.698   8.502  19.428  0.00  0.00    +0.000 A 
ATOM     14  C   UNL     1       2.055   7.310  20.068  0.00  0.00    +0.000 A 
ATOM     15  C   UNL     1       2.913   6.400  19.440  0.00  0.00    +0.000 A 
ATOM     16  C   UNL     1       3.460   6.670  18.175  0.00  0.00    +0.000 A 
ATOM     17  C   UNL     1       3.138   7.892  17.566  0.00  0.00    +0.000 A 
ATOM     18  C   UNL     1       2.269   8.800  18.187  0.00  0.00    +0.000 A 
BRANCH  16  19
ATOM     19  C   UNL     1       4.358   5.642  17.499  0.00  0.00    +0.000 C 
ATOM     20  C   UNL     1       5.078   6.215  16.274  0.00  0.00    +0.000 C 
ATOM     21  C   UNL     1       5.385   5.028  18.455  0.00  0.00    +0.000 C 
ENDBRANCH  16  19
ENDBRANCH   6  13
BRANCH   1  23
ATOM     22  C   UNL     1      -5.501  12.864  21.712  0.00  0.00    +0.000 C 
ATOM     23  C   UNL     1      -4.335  13.558  21.019  0.00  0.00    +0.000 C 
ENDBRANCH   1  23
BRANCH   2  24
ATOM     24  O   UNL     1      -2.212  12.441  22.736  0.00  0.00    +0.000 OA
ATOM     25  H   UNL     1      -1.370  12.893  22.898  0.00  0.00    +0.000 HD
ENDBRANCH   2  24
BRANCH  10  26
ATOM     26  C   UNL     1      -1.513  12.015  17.541  0.00  0.00    +0.000 C 
ATOM     27  C   UNL     1      -0.585  13.099  18.105  0.00  0.00    +0.000 C 
ENDBRANCH  10  26
BRANCH  10  28
ATOM     28  C   UNL     1      -2.986   9.960  17.997  0.00  0.00    +0.000 C 
ATOM     29  C   UNL     1      -2.784   9.783  16.487  0.00  0.00    +0.000 C 
ENDBRANCH  10  28
TORSDOF 6
ENDMDL
MODEL 7
REMARK VINA RESULT:      -6.9      1.653      2.176
REMARK  Name = 
REMARK  11 active torsions:
REMARK  status: ('A' for Active; 'I' for Inactive)
REMARK    1  A    between atoms: C_1  and  C_2
REMARK    2  A    between atoms: C_2  and  C_3
REMARK    3  A    between atoms: C_4  and  O_5
REMARK    4  A    between atoms: C_9  and  C_10
REMARK    5  A    between atoms: C_13  and  C_14
REMARK    6  A    between atoms: C_14  and  C_15
REMARK    7  A    between atoms: C_14  and  C_16
REMARK    8  A    between atoms: C_22  and  C_23
REMARK    9  A    between atoms: C_22  and  C_25
REMARK   10  A    between atoms: C_23  and  C_24
REMARK   11  A    between atoms: C_25  and  C_26
REMARK                            x       y       z     vdW  Elec       q    Type
REMARK                         _______ _______ _______ _____ _____    ______ ____
ROOT
ATOM      1  C   UNL     1      -0.612  14.160  21.622  0.00  0.00    +0.000 C 
ATOM      2  C   UNL     1      -0.671  12.980  22.256  0.00  0.00    +0.000 C 
ATOM      3  C   UNL     1      -0.142  11.739  21.706  0.00  0.00    +0.000 A 
ATOM      4  C   UNL     1       0.475  11.720  20.499  0.00  0.00    +0.000 A 
ATOM      5  O   UNL     1       1.060  10.589  19.952  0.00  0.00    +0.000 OA
ATOM      6  C   UNL     1       0.979   9.386  20.625  0.00  0.00    +0.000 A 
ATOM      7  C   UNL     1       0.399   9.257  21.821  0.00  0.00    +0.000 A 
ATOM      8  C   UNL     1      -0.189  10.441  22.463  0.00  0.00    +0.000 A 
ATOM      9  O   UNL     1      -0.679  10.290  23.580  0.00  0.00    +0.000 OA
ATOM     10  C   UNL     1       0.633  12.970  19.642  0.00  0.00    +0.000 C 
ATOM     11  C   UNL     1      -0.009  14.225  20.254  0.00  0.00    +0.000 C 
ATOM     12  O   UNL     1      -0.004  15.301  19.655  0.00  0.00    +0.000 OA
ENDROOT
BRANCH   6  13
ATOM     13  C   UNL     1       1.565   8.236  19.937  0.00  0.00    +0.000 A 
ATOM     14  C   UNL     1       2.047   8.357  18.629  0.00  0.00    +0.000 A 
ATOM     15  C   UNL     1       2.687   7.277  18.008  0.00  0.00    +0.000 A 
ATOM     16  C   UNL     1       2.833   6.044  18.665  0.00  0.00    +0.000 A 
ATOM     17  C   UNL     1       2.297   5.918  19.955  0.00  0.00    +0.000 A 
ATOM     18  C   UNL     1       1.668   7.001  20.583  0.00  0.00    +0.000 A 
BRANCH  16  19
ATOM     19  C   UNL     1       3.570   4.901  17.980  0.00  0.00    +0.000 C 
ATOM     20  C   UNL     1       2.612   3.837  17.432  0.00  0.00    +0.000 C 
ATOM     21  C   UNL     1       4.499   5.377  16.859  0.00  0.00    +0.000 C 
ENDBRANCH  16  19
ENDBRANCH   6  13
BRANCH   1  23
ATOM     22  C   UNL     1      -2.577  15.640  21.968  0.00  0.00    +0.000 C 
ATOM     23  C   UNL     1      -1.079  15.478  22.186  0.00  0.00    +0.000 C 
ENDBRANCH   1  23
BRANCH   2  24
ATOM     24  O   UNL     1      -1.192  12.851  23.522  0.00  0.00    +0.000 OA
ATOM     25  H   UNL     1      -0.557  12.441  24.129  0.00  0.00    +0.000 HD
ENDBRANCH   2  24
BRANCH  10  26
ATOM     26  C   UNL     1       2.151  13.302  19.487  0.00  0.00    +0.000 C 
ATOM     27  C   UNL     1       2.846  13.661  20.808  0.00  0.00    +0.000 C 
ENDBRANCH  10  26
BRANCH  10  28
ATOM     28  C   UNL     1      -0.036  12.784  18.242  0.00  0.00    +0.000 C 
ATOM     29  C   UNL     1      -1.460  12.218  18.261  0.00  0.00    +0.000 C 
ENDBRANCH  10  28
TORSDOF 6
ENDMDL
MODEL 8
REMARK VINA RESULT:      -6.9      1.149      1.696
REMARK  Name = 
REMARK  11 active torsions:
REMARK  status: ('A' for Active; 'I' for Inactive)
REMARK    1  A    between atoms: C_1  and  C_2
REMARK    2  A    between atoms: C_2  and  C_3
REMARK    3  A    between atoms: C_4  and  O_5
REMARK    4  A    between atoms: C_9  and  C_10
REMARK    5  A    between atoms: C_13  and  C_14
REMARK    6  A    between atoms: C_14  and  C_15
REMARK    7  A    between atoms: C_14  and  C_16
REMARK    8  A    between atoms: C_22  and  C_23
REMARK    9  A    between atoms: C_22  and  C_25
REMARK   10  A    between atoms: C_23  and  C_24
REMARK   11  A    between atoms: C_25  and  C_26
REMARK                            x       y       z     vdW  Elec       q    Type
REMARK                         _______ _______ _______ _____ _____    ______ ____
ROOT
ATOM      1  C   UNL     1      -1.231  13.316  21.651  0.00  0.00    +0.000 C 
ATOM      2  C   UNL     1      -1.099  12.088  22.174  0.00  0.00    +0.000 C 
ATOM      3  C   UNL     1      -0.353  11.012  21.533  0.00  0.00    +0.000 A 
ATOM      4  C   UNL     1       0.281  11.213  20.352  0.00  0.00    +0.000 A 
ATOM      5  O   UNL     1       1.062  10.254  19.726  0.00  0.00    +0.000 OA
ATOM      6  C   UNL     1       1.176   8.996  20.285  0.00  0.00    +0.000 A 
ATOM      7  C   UNL     1       0.603   8.659  21.443  0.00  0.00    +0.000 A 
ATOM      8  C   UNL     1      -0.192   9.660  22.168  0.00  0.00    +0.000 A 
ATOM      9  O   UNL     1      -0.671   9.322  23.249  0.00  0.00    +0.000 OA
ATOM     10  C   UNL     1       0.238  12.548  19.617  0.00  0.00    +0.000 C 
ATOM     11  C   UNL     1      -0.622  13.612  20.317  0.00  0.00    +0.000 C 
ATOM     12  O   UNL     1      -0.790  14.725  19.818  0.00  0.00    +0.000 OA
ENDROOT
BRANCH   6  13
ATOM     13  C   UNL     1       1.964   8.034  19.517  0.00  0.00    +0.000 A 
ATOM     14  C   UNL     1       2.213   6.752  20.019  0.00  0.00    +0.000 A 
ATOM     15  C   UNL     1       2.892   5.806  19.240  0.00  0.00    +0.000 A 
ATOM     16  C   UNL     1       3.364   6.126  17.956  0.00  0.00    +0.000 A 
ATOM     17  C   UNL     1       3.156   7.431  17.485  0.00  0.00    +0.000 A 
ATOM     18  C   UNL     1       2.466   8.375  18.258  0.00  0.00    +0.000 A 
BRANCH  16  19
ATOM     19  C   UNL     1       4.062   5.065  17.117  0.00  0.00    +0.000 C 
ATOM     20  C   UNL     1       5.140   5.661  16.206  0.00  0.00    +0.000 C 
ATOM     21  C   UNL     1       4.671   3.942  17.962  0.00  0.00    +0.000 C 
ENDBRANCH  16  19
ENDBRANCH   6  13
BRANCH   1  23
ATOM     22  C   UNL     1      -3.427  14.404  22.056  0.00  0.00    +0.000 C 
ATOM     23  C   UNL     1      -1.929  14.476  22.315  0.00  0.00    +0.000 C 
ENDBRANCH   1  23
BRANCH   2  24
ATOM     24  O   UNL     1      -1.615  11.753  23.404  0.00  0.00    +0.000 OA
ATOM     25  H   UNL     1      -0.913  11.577  24.049  0.00  0.00    +0.000 HD
ENDBRANCH   2  24
BRANCH  10  26
ATOM     26  C   UNL     1       1.679  13.145  19.547  0.00  0.00    +0.000 C 
ATOM     27  C   UNL     1       2.323  13.053  18.157  0.00  0.00    +0.000 C 
ENDBRANCH  10  26
BRANCH  10  28
ATOM     28  C   UNL     1      -0.361  12.384  18.184  0.00  0.00    +0.000 C 
ATOM     29  C   UNL     1      -1.767  11.776  18.121  0.00  0.00    +0.000 C 
ENDBRANCH  10  28
TORSDOF 6
ENDMDL
MODEL 9
REMARK VINA RESULT:      -6.6      1.919      2.593
REMARK  Name = 
REMARK  11 active torsions:
REMARK  status: ('A' for Active; 'I' for Inactive)
REMARK    1  A    between atoms: C_1  and  C_2
REMARK    2  A    between atoms: C_2  and  C_3
REMARK    3  A    between atoms: C_4  and  O_5
REMARK    4  A    between atoms: C_9  and  C_10
REMARK    5  A    between atoms: C_13  and  C_14
REMARK    6  A    between atoms: C_14  and  C_15
REMARK    7  A    between atoms: C_14  and  C_16
REMARK    8  A    between atoms: C_22  and  C_23
REMARK    9  A    between atoms: C_22  and  C_25
REMARK   10  A    between atoms: C_23  and  C_24
REMARK   11  A    between atoms: C_25  and  C_26
REMARK                            x       y       z     vdW  Elec       q    Type
REMARK                         _______ _______ _______ _____ _____    ______ ____
ROOT
ATOM      1  C   UNL     1      -0.373  14.676  21.883  0.00  0.00    +0.000 C 
ATOM      2  C   UNL     1      -0.620  13.452  22.372  0.00  0.00    +0.000 C 
ATOM      3  C   UNL     1      -0.139  12.222  21.755  0.00  0.00    +0.000 A 
ATOM      4  C   UNL     1       0.624  12.258  20.636  0.00  0.00    +0.000 A 
ATOM      5  O   UNL     1       1.170  11.130  20.041  0.00  0.00    +0.000 OA
ATOM      6  C   UNL     1       0.894   9.882  20.565  0.00  0.00    +0.000 A 
ATOM      7  C   UNL     1       0.155   9.699  21.662  0.00  0.00    +0.000 A 
ATOM      8  C   UNL     1      -0.401  10.869  22.355  0.00  0.00    +0.000 A 
ATOM      9  O   UNL     1      -1.043  10.661  23.383  0.00  0.00    +0.000 OA
ATOM     10  C   UNL     1       1.004  13.562  19.946  0.00  0.00    +0.000 C 
ATOM     11  C   UNL     1       0.405  14.811  20.611  0.00  0.00    +0.000 C 
ATOM     12  O   UNL     1       0.584  15.934  20.139  0.00  0.00    +0.000 OA
ENDROOT
BRANCH   6  13
ATOM     13  C   UNL     1       1.457   8.751  19.829  0.00  0.00    +0.000 A 
ATOM     14  C   UNL     1       1.767   8.867  18.469  0.00  0.00    +0.000 A 
ATOM     15  C   UNL     1       2.388   7.810  17.793  0.00  0.00    +0.000 A 
ATOM     16  C   UNL     1       2.686   6.603  18.448  0.00  0.00    +0.000 A 
ATOM     17  C   UNL     1       2.321   6.479  19.797  0.00  0.00    +0.000 A 
ATOM     18  C   UNL     1       1.711   7.540  20.479  0.00  0.00    +0.000 A 
BRANCH  16  19
ATOM     19  C   UNL     1       3.399   5.487  17.697  0.00  0.00    +0.000 C 
ATOM     20  C   UNL     1       4.905   5.743  17.567  0.00  0.00    +0.000 C 
ATOM     21  C   UNL     1       3.168   4.107  18.320  0.00  0.00    +0.000 C 
ENDBRANCH  16  19
ENDBRANCH   6  13
BRANCH   1  23
ATOM     22  C   UNL     1      -2.229  16.303  22.165  0.00  0.00    +0.000 C 
ATOM     23  C   UNL     1      -0.787  15.974  22.528  0.00  0.00    +0.000 C 
ENDBRANCH   1  23
BRANCH   2  24
ATOM     24  O   UNL     1      -1.310  13.255  23.545  0.00  0.00    +0.000 OA
ATOM     25  H   UNL     1      -0.967  12.493  24.036  0.00  0.00    +0.000 HD
ENDBRANCH   2  24
BRANCH  10  26
ATOM     26  C   UNL     1       2.553  13.748  20.010  0.00  0.00    +0.000 C 
ATOM     27  C   UNL     1       3.205  14.012  18.646  0.00  0.00    +0.000 C 
ENDBRANCH  10  26
BRANCH  10  28
ATOM     28  C   UNL     1       0.507  13.583  18.465  0.00  0.00    +0.000 C 
ATOM     29  C   UNL     1      -0.879  12.973  18.224  0.00  0.00    +0.000 C 
ENDBRANCH  10  28
TORSDOF 6
ENDMDL
