MODEL 1
REMARK VINA RESULT:      -8.8      0.000      0.000
REMARK  Name = 
REMARK  8 active torsions:
REMARK  status: ('A' for Active; 'I' for Inactive)
REMARK    1  A    between atoms: C_1  and  C_2
REMARK    2  A    between atoms: C_2  and  C_3
REMARK    3  A    between atoms: C_2  and  C_4
REMARK    4  A    between atoms: C_2  and  C_5
REMARK    5  A    between atoms: C_8  and  S_9
REMARK    6  A    between atoms: S_9  and  N_12
REMARK    7  A    between atoms: N_12  and  C_13
REMARK    8  A    between atoms: C_20  and  C_21
REMARK                            x       y       z     vdW  Elec       q    Type
REMARK                         _______ _______ _______ _____ _____    ______ ____
ROOT
ATOM      1  C   UNL     1       0.986   9.999  19.554  0.00  0.00    +0.000 A 
ATOM      2  C   UNL     1       0.728   9.329  20.755  0.00  0.00    +0.000 A 
ATOM      3  C   UNL     1       1.202   8.045  20.942  0.00  0.00    +0.000 A 
ATOM      4  C   UNL     1       1.931   7.444  19.918  0.00  0.00    +0.000 A 
ATOM      5  C   UNL     1       2.241   6.026  20.016  0.00  0.00    +0.000 A 
ATOM      6  O   UNL     1       2.114   5.383  21.043  0.00  0.00    +0.000 OA
ATOM      7  C   UNL     1       2.736   5.394  18.794  0.00  0.00    +0.000 A 
ATOM      8  C   UNL     1       3.318   6.171  17.869  0.00  0.00    +0.000 A 
ATOM      9  O   UNL     1       3.135   7.559  17.810  0.00  0.00    +0.000 OA
ATOM     10  C   UNL     1       2.290   8.129  18.753  0.00  0.00    +0.000 A 
ATOM     11  C   UNL     1       1.793   9.420  18.559  0.00  0.00    +0.000 A 
ENDROOT
BRANCH   8  12
ATOM     12  C   UNL     1       4.275   5.545  16.916  0.00  0.00    +0.000 A 
ATOM     13  C   UNL     1       5.079   6.281  16.040  0.00  0.00    +0.000 A 
ATOM     14  C   UNL     1       5.984   5.632  15.181  0.00  0.00    +0.000 A 
ATOM     15  C   UNL     1       6.106   4.241  15.190  0.00  0.00    +0.000 A 
ATOM     16  C   UNL     1       5.346   3.491  16.070  0.00  0.00    +0.000 A 
ATOM     17  C   UNL     1       4.459   4.139  16.928  0.00  0.00    +0.000 A 
ENDBRANCH   8  12
BRANCH   1  18
ATOM     18  N   UNL     1       0.411  11.288  19.404  0.00  0.00    +0.000 N 
ATOM     19  H   UNL     1       0.691  12.025  20.046  0.00  0.00    +0.000 HD
BRANCH  18  20
ATOM     20  S   UNL     1      -1.192  11.411  18.891  0.00  0.00    +0.000 S 
ATOM     21  O   UNL     1      -1.726  10.095  18.619  0.00  0.00    +0.000 OA
ATOM     22  O   UNL     1      -1.220  12.460  17.893  0.00  0.00    +0.000 OA
BRANCH  20  26
ATOM     23  C   UNL     1      -3.308  13.049  22.630  0.00  0.00    +0.000 A 
ATOM     24  C   UNL     1      -3.874  13.157  21.348  0.00  0.00    +0.000 A 
ATOM     25  C   UNL     1      -3.225  12.660  20.218  0.00  0.00    +0.000 A 
ATOM     26  C   UNL     1      -1.981  12.048  20.349  0.00  0.00    +0.000 A 
ATOM     27  C   UNL     1      -1.385  11.924  21.602  0.00  0.00    +0.000 A 
ATOM     28  C   UNL     1      -2.041  12.434  22.729  0.00  0.00    +0.000 A 
BRANCH  23  30
ATOM     29  C   UNL     1      -5.339  14.330  23.566  0.00  0.00    +0.000 C 
ATOM     30  C   UNL     1      -4.049  13.538  23.890  0.00  0.00    +0.000 C 
ATOM     31  C   UNL     1      -3.146  14.463  24.731  0.00  0.00    +0.000 C 
ATOM     32  C   UNL     1      -4.466  12.330  24.757  0.00  0.00    +0.000 C 
ENDBRANCH  23  30
ENDBRANCH  20  26
ENDBRANCH  18  20
ENDBRANCH   1  18
TORSDOF 5
ENDMDL
MODEL 2
REMARK VINA RESULT:      -8.7      0.436      1.112
REMARK  Name = 
REMARK  8 active torsions:
REMARK  status: ('A' for Active; 'I' for Inactive)
REMARK    1  A    between atoms: C_1  and  C_2
REMARK    2  A    between atoms: C_2  and  C_3
REMARK    3  A    between atoms: C_2  and  C_4
REMARK    4  A    between atoms: C_2  and  C_5
REMARK    5  A    between atoms: C_8  and  S_9
REMARK    6  A    between atoms: S_9  and  N_12
REMARK    7  A    between atoms: N_12  and  C_13
REMARK    8  A    between atoms: C_20  and  C_21
REMARK                            x       y       z     vdW  Elec       q    Type
REMARK                         _______ _______ _______ _____ _____    ______ ____
ROOT
ATOM      1  C   UNL     1       0.959   9.993  19.718  0.00  0.00    +0.000 A 
ATOM      2  C   UNL     1       0.660   9.293  20.892  0.00  0.00    +0.000 A 
ATOM      3  C   UNL     1       1.107   7.995  21.053  0.00  0.00    +0.000 A 
ATOM      4  C   UNL     1       1.850   7.411  20.028  0.00  0.00    +0.000 A 
ATOM      5  C   UNL     1       2.131   5.986  20.092  0.00  0.00    +0.000 A 
ATOM      6  O   UNL     1       1.967   5.315  21.096  0.00  0.00    +0.000 OA
ATOM      7  C   UNL     1       2.646   5.381  18.864  0.00  0.00    +0.000 A 
ATOM      8  C   UNL     1       3.264   6.173  17.976  0.00  0.00    +0.000 A 
ATOM      9  O   UNL     1       3.107   7.566  17.955  0.00  0.00    +0.000 OA
ATOM     10  C   UNL     1       2.250   8.123  18.894  0.00  0.00    +0.000 A 
ATOM     11  C   UNL     1       1.781   9.429  18.726  0.00  0.00    +0.000 A 
ENDROOT
BRANCH   8  12
ATOM     12  C   UNL     1       4.233   5.558  17.029  0.00  0.00    +0.000 A 
ATOM     13  C   UNL     1       4.415   4.177  16.905  0.00  0.00    +0.000 A 
ATOM     14  C   UNL     1       5.328   3.656  15.972  0.00  0.00    +0.000 A 
ATOM     15  C   UNL     1       6.067   4.504  15.143  0.00  0.00    +0.000 A 
ATOM     16  C   UNL     1       5.882   5.872  15.223  0.00  0.00    +0.000 A 
ATOM     17  C   UNL     1       4.966   6.384  16.140  0.00  0.00    +0.000 A 
ENDBRANCH   8  12
BRANCH   1  18
ATOM     18  N   UNL     1       0.412  11.296  19.593  0.00  0.00    +0.000 N 
ATOM     19  H   UNL     1       0.586  11.972  20.333  0.00  0.00    +0.000 HD
BRANCH  18  20
ATOM     20  S   UNL     1      -1.092  11.480  18.850  0.00  0.00    +0.000 S 
ATOM     21  O   UNL     1      -1.584  10.195  18.406  0.00  0.00    +0.000 OA
ATOM     22  O   UNL     1      -0.960  12.597  17.936  0.00  0.00    +0.000 OA
BRANCH  20  26
ATOM     23  C   UNL     1      -3.752  12.875  22.331  0.00  0.00    +0.000 A 
ATOM     24  C   UNL     1      -4.207  12.876  21.001  0.00  0.00    +0.000 A 
ATOM     25  C   UNL     1      -3.393  12.455  19.949  0.00  0.00    +0.000 A 
ATOM     26  C   UNL     1      -2.093  12.028  20.211  0.00  0.00    +0.000 A 
ATOM     27  C   UNL     1      -1.604  12.014  21.515  0.00  0.00    +0.000 A 
ATOM     28  C   UNL     1      -2.426  12.449  22.562  0.00  0.00    +0.000 A 
BRANCH  23  30
ATOM     29  C   UNL     1      -4.487  14.755  23.934  0.00  0.00    +0.000 C 
ATOM     30  C   UNL     1      -4.668  13.280  23.503  0.00  0.00    +0.000 C 
ATOM     31  C   UNL     1      -4.388  12.406  24.742  0.00  0.00    +0.000 C 
ATOM     32  C   UNL     1      -6.148  13.105  23.098  0.00  0.00    +0.000 C 
ENDBRANCH  23  30
ENDBRANCH  20  26
ENDBRANCH  18  20
ENDBRANCH   1  18
TORSDOF 5
ENDMDL
MODEL 3
REMARK VINA RESULT:      -8.7      0.171      1.168
REMARK  Name = 
REMARK  8 active torsions:
REMARK  status: ('A' for Active; 'I' for Inactive)
REMARK    1  A    between atoms: C_1  and  C_2
REMARK    2  A    between atoms: C_2  and  C_3
REMARK    3  A    between atoms: C_2  and  C_4
REMARK    4  A    between atoms: C_2  and  C_5
REMARK    5  A    between atoms: C_8  and  S_9
REMARK    6  A    between atoms: S_9  and  N_12
REMARK    7  A    between atoms: N_12  and  C_13
REMARK    8  A    between atoms: C_20  and  C_21
REMARK                            x       y       z     vdW  Elec       q    Type
REMARK                         _______ _______ _______ _____ _____    ______ ____
ROOT
ATOM      1  C   UNL     1       1.032   9.909  19.787  0.00  0.00    +0.000 A 
ATOM      2  C   UNL     1       0.751   9.173  20.943  0.00  0.00    +0.000 A 
ATOM      3  C   UNL     1       1.203   7.872  21.058  0.00  0.00    +0.000 A 
ATOM      4  C   UNL     1       1.934   7.321  20.007  0.00  0.00    +0.000 A 
ATOM      5  C   UNL     1       2.220   5.896  20.023  0.00  0.00    +0.000 A 
ATOM      6  O   UNL     1       2.072   5.195  21.008  0.00  0.00    +0.000 OA
ATOM      7  C   UNL     1       2.719   5.330  18.770  0.00  0.00    +0.000 A 
ATOM      8  C   UNL     1       3.323   6.151  17.899  0.00  0.00    +0.000 A 
ATOM      9  O   UNL     1       3.162   7.544  17.922  0.00  0.00    +0.000 OA
ATOM     10  C   UNL     1       2.316   8.069  18.889  0.00  0.00    +0.000 A 
ATOM     11  C   UNL     1       1.842   9.378  18.767  0.00  0.00    +0.000 A 
ENDROOT
BRANCH   8  12
ATOM     12  C   UNL     1       4.281   5.568  16.920  0.00  0.00    +0.000 A 
ATOM     13  C   UNL     1       5.035   6.340  16.030  0.00  0.00    +0.000 A 
ATOM     14  C   UNL     1       5.943   5.731  15.146  0.00  0.00    +0.000 A 
ATOM     15  C   UNL     1       6.119   4.346  15.143  0.00  0.00    +0.000 A 
ATOM     16  C   UNL     1       5.410   3.562  16.035  0.00  0.00    +0.000 A 
ATOM     17  C   UNL     1       4.519   4.171  16.919  0.00  0.00    +0.000 A 
ENDBRANCH   8  12
BRANCH   1  18
ATOM     18  N   UNL     1       0.479  11.213  19.709  0.00  0.00    +0.000 N 
ATOM     19  H   UNL     1       0.680  11.874  20.456  0.00  0.00    +0.000 HD
BRANCH  18  20
ATOM     20  S   UNL     1      -1.051  11.411  19.025  0.00  0.00    +0.000 S 
ATOM     21  O   UNL     1      -1.580  10.128  18.620  0.00  0.00    +0.000 OA
ATOM     22  O   UNL     1      -0.940  12.513  18.092  0.00  0.00    +0.000 OA
BRANCH  20  26
ATOM     23  C   UNL     1      -3.405  12.923  22.674  0.00  0.00    +0.000 A 
ATOM     24  C   UNL     1      -2.174  12.258  22.807  0.00  0.00    +0.000 A 
ATOM     25  C   UNL     1      -1.467  11.799  21.696  0.00  0.00    +0.000 A 
ATOM     26  C   UNL     1      -1.988  11.991  20.418  0.00  0.00    +0.000 A 
ATOM     27  C   UNL     1      -3.206  12.643  20.244  0.00  0.00    +0.000 A 
ATOM     28  C   UNL     1      -3.913  13.091  21.367  0.00  0.00    +0.000 A 
BRANCH  23  30
ATOM     29  C   UNL     1      -3.319  14.496  24.714  0.00  0.00    +0.000 C 
ATOM     30  C   UNL     1      -4.159  13.488  23.894  0.00  0.00    +0.000 C 
ATOM     31  C   UNL     1      -4.574  12.354  24.853  0.00  0.00    +0.000 C 
ATOM     32  C   UNL     1      -5.430  14.232  23.427  0.00  0.00    +0.000 C 
ENDBRANCH  23  30
ENDBRANCH  20  26
ENDBRANCH  18  20
ENDBRANCH   1  18
TORSDOF 5
ENDMDL
MODEL 4
REMARK VINA RESULT:      -8.5      1.276      1.806
REMARK  Name = 
REMARK  8 active torsions:
REMARK  status: ('A' for Active; 'I' for Inactive)
REMARK    1  A    between atoms: C_1  and  C_2
REMARK    2  A    between atoms: C_2  and  C_3
REMARK    3  A    between atoms: C_2  and  C_4
REMARK    4  A    between atoms: C_2  and  C_5
REMARK    5  A    between atoms: C_8  and  S_9
REMARK    6  A    between atoms: S_9  and  N_12
REMARK    7  A    between atoms: N_12  and  C_13
REMARK    8  A    between atoms: C_20  and  C_21
REMARK                            x       y       z     vdW  Elec       q    Type
REMARK                         _______ _______ _______ _____ _____    ______ ____
ROOT
ATOM      1  C   UNL     1       0.746   9.418  19.655  0.00  0.00    +0.000 A 
ATOM      2  C   UNL     1       0.459   8.696  20.819  0.00  0.00    +0.000 A 
ATOM      3  C   UNL     1       1.060   7.472  21.036  0.00  0.00    +0.000 A 
ATOM      4  C   UNL     1       1.946   6.981  20.078  0.00  0.00    +0.000 A 
ATOM      5  C   UNL     1       2.408   5.607  20.189  0.00  0.00    +0.000 A 
ATOM      6  O   UNL     1       2.263   4.931  21.192  0.00  0.00    +0.000 OA
ATOM      7  C   UNL     1       3.085   5.063  19.011  0.00  0.00    +0.000 A 
ATOM      8  C   UNL     1       3.655   5.922  18.154  0.00  0.00    +0.000 A 
ATOM      9  O   UNL     1       3.317   7.282  18.094  0.00  0.00    +0.000 OA
ATOM     10  C   UNL     1       2.328   7.729  18.960  0.00  0.00    +0.000 A 
ATOM     11  C   UNL     1       1.704   8.959  18.734  0.00  0.00    +0.000 A 
ENDROOT
BRANCH   8  12
ATOM     12  C   UNL     1       4.762   5.432  17.288  0.00  0.00    +0.000 A 
ATOM     13  C   UNL     1       4.649   4.315  16.456  0.00  0.00    +0.000 A 
ATOM     14  C   UNL     1       5.724   3.917  15.641  0.00  0.00    +0.000 A 
ATOM     15  C   UNL     1       6.924   4.633  15.639  0.00  0.00    +0.000 A 
ATOM     16  C   UNL     1       7.050   5.761  16.429  0.00  0.00    +0.000 A 
ATOM     17  C   UNL     1       5.978   6.159  17.225  0.00  0.00    +0.000 A 
ENDBRANCH   8  12
BRANCH   1  18
ATOM     18  N   UNL     1       0.041  10.635  19.467  0.00  0.00    +0.000 N 
ATOM     19  H   UNL     1      -0.294  10.866  18.535  0.00  0.00    +0.000 HD
BRANCH  18  20
ATOM     20  S   UNL     1       0.485  11.984  20.379  0.00  0.00    +0.000 S 
ATOM     21  O   UNL     1       0.773  13.098  19.504  0.00  0.00    +0.000 OA
ATOM     22  O   UNL     1       1.452  11.516  21.352  0.00  0.00    +0.000 OA
BRANCH  20  26
ATOM     23  C   UNL     1      -3.371  12.876  22.717  0.00  0.00    +0.000 A 
ATOM     24  C   UNL     1      -2.302  12.165  23.290  0.00  0.00    +0.000 A 
ATOM     25  C   UNL     1      -1.136  11.895  22.574  0.00  0.00    +0.000 A 
ATOM     26  C   UNL     1      -1.021  12.329  21.255  0.00  0.00    +0.000 A 
ATOM     27  C   UNL     1      -2.059  13.034  20.650  0.00  0.00    +0.000 A 
ATOM     28  C   UNL     1      -3.229  13.291  21.376  0.00  0.00    +0.000 A 
BRANCH  23  30
ATOM     29  C   UNL     1      -5.947  12.984  22.741  0.00  0.00    +0.000 C 
ATOM     30  C   UNL     1      -4.635  13.232  23.525  0.00  0.00    +0.000 C 
ATOM     31  C   UNL     1      -4.622  14.719  23.933  0.00  0.00    +0.000 C 
ATOM     32  C   UNL     1      -4.702  12.368  24.804  0.00  0.00    +0.000 C 
ENDBRANCH  23  30
ENDBRANCH  20  26
ENDBRANCH  18  20
ENDBRANCH   1  18
TORSDOF 5
ENDMDL
MODEL 5
REMARK VINA RESULT:      -8.5      2.735     10.286
REMARK  Name = 
REMARK  8 active torsions:
REMARK  status: ('A' for Active; 'I' for Inactive)
REMARK    1  A    between atoms: C_1  and  C_2
REMARK    2  A    between atoms: C_2  and  C_3
REMARK    3  A    between atoms: C_2  and  C_4
REMARK    4  A    between atoms: C_2  and  C_5
REMARK    5  A    between atoms: C_8  and  S_9
REMARK    6  A    between atoms: S_9  and  N_12
REMARK    7  A    between atoms: N_12  and  C_13
REMARK    8  A    between atoms: C_20  and  C_21
REMARK                            x       y       z     vdW  Elec       q    Type
REMARK                         _______ _______ _______ _____ _____    ______ ____
ROOT
ATOM      1  C   UNL     1      -0.243  10.402  19.333  0.00  0.00    +0.000 A 
ATOM      2  C   UNL     1      -0.262   9.827  18.057  0.00  0.00    +0.000 A 
ATOM      3  C   UNL     1      -1.372   9.982  17.249  0.00  0.00    +0.000 A 
ATOM      4  C   UNL     1      -2.456  10.713  17.732  0.00  0.00    +0.000 A 
ATOM      5  C   UNL     1      -3.703  10.694  16.985  0.00  0.00    +0.000 A 
ATOM      6  O   UNL     1      -3.794  10.277  15.844  0.00  0.00    +0.000 OA
ATOM      7  C   UNL     1      -4.874  11.224  17.683  0.00  0.00    +0.000 A 
ATOM      8  C   UNL     1      -4.676  12.093  18.685  0.00  0.00    +0.000 A 
ATOM      9  O   UNL     1      -3.452  12.222  19.356  0.00  0.00    +0.000 OA
ATOM     10  C   UNL     1      -2.419  11.384  18.958  0.00  0.00    +0.000 A 
ATOM     11  C   UNL     1      -1.303  11.210  19.781  0.00  0.00    +0.000 A 
ENDROOT
BRANCH   8  12
ATOM     12  C   UNL     1      -5.777  13.029  19.042  0.00  0.00    +0.000 A 
ATOM     13  C   UNL     1      -5.870  13.668  20.282  0.00  0.00    +0.000 A 
ATOM     14  C   UNL     1      -6.922  14.562  20.550  0.00  0.00    +0.000 A 
ATOM     15  C   UNL     1      -7.891  14.838  19.582  0.00  0.00    +0.000 A 
ATOM     16  C   UNL     1      -7.804  14.244  18.336  0.00  0.00    +0.000 A 
ATOM     17  C   UNL     1      -6.752  13.368  18.070  0.00  0.00    +0.000 A 
ENDBRANCH   8  12
BRANCH   1  18
ATOM     18  N   UNL     1       0.901  10.146  20.133  0.00  0.00    +0.000 N 
ATOM     19  H   UNL     1       1.823  10.305  19.733  0.00  0.00    +0.000 HD
BRANCH  18  20
ATOM     20  S   UNL     1       0.855   8.870  21.236  0.00  0.00    +0.000 S 
ATOM     21  O   UNL     1      -0.515   8.476  21.478  0.00  0.00    +0.000 OA
ATOM     22  O   UNL     1       1.739   9.239  22.322  0.00  0.00    +0.000 OA
BRANCH  20  26
ATOM     23  C   UNL     1       2.877   5.475  18.886  0.00  0.00    +0.000 A 
ATOM     24  C   UNL     1       2.169   5.236  20.077  0.00  0.00    +0.000 A 
ATOM     25  C   UNL     1       1.561   6.271  20.787  0.00  0.00    +0.000 A 
ATOM     26  C   UNL     1       1.657   7.579  20.317  0.00  0.00    +0.000 A 
ATOM     27  C   UNL     1       2.352   7.859  19.143  0.00  0.00    +0.000 A 
ATOM     28  C   UNL     1       2.968   6.813  18.443  0.00  0.00    +0.000 A 
BRANCH  23  30
ATOM     29  C   UNL     1       4.446   3.430  18.895  0.00  0.00    +0.000 C 
ATOM     30  C   UNL     1       3.497   4.327  18.065  0.00  0.00    +0.000 C 
ATOM     31  C   UNL     1       4.314   4.881  16.881  0.00  0.00    +0.000 C 
ATOM     32  C   UNL     1       2.380   3.414  17.512  0.00  0.00    +0.000 C 
ENDBRANCH  23  30
ENDBRANCH  20  26
ENDBRANCH  18  20
ENDBRANCH   1  18
TORSDOF 5
ENDMDL
MODEL 6
REMARK VINA RESULT:      -8.5      1.214      1.397
REMARK  Name = 
REMARK  8 active torsions:
REMARK  status: ('A' for Active; 'I' for Inactive)
REMARK    1  A    between atoms: C_1  and  C_2
REMARK    2  A    between atoms: C_2  and  C_3
REMARK    3  A    between atoms: C_2  and  C_4
REMARK    4  A    between atoms: C_2  and  C_5
REMARK    5  A    between atoms: C_8  and  S_9
REMARK    6  A    between atoms: S_9  and  N_12
REMARK    7  A    between atoms: N_12  and  C_13
REMARK    8  A    between atoms: C_20  and  C_21
REMARK                            x       y       z     vdW  Elec       q    Type
REMARK                         _______ _______ _______ _____ _____    ______ ____
ROOT
ATOM      1  C   UNL     1       0.753   9.633  19.529  0.00  0.00    +0.000 A 
ATOM      2  C   UNL     1       0.480   8.929  20.707  0.00  0.00    +0.000 A 
ATOM      3  C   UNL     1       1.083   7.707  20.934  0.00  0.00    +0.000 A 
ATOM      4  C   UNL     1       1.957   7.201  19.972  0.00  0.00    +0.000 A 
ATOM      5  C   UNL     1       2.420   5.829  20.098  0.00  0.00    +0.000 A 
ATOM      6  O   UNL     1       2.287   5.168  21.112  0.00  0.00    +0.000 OA
ATOM      7  C   UNL     1       3.082   5.268  18.920  0.00  0.00    +0.000 A 
ATOM      8  C   UNL     1       3.641   6.113  18.043  0.00  0.00    +0.000 A 
ATOM      9  O   UNL     1       3.303   7.472  17.968  0.00  0.00    +0.000 OA
ATOM     10  C   UNL     1       2.326   7.933  18.839  0.00  0.00    +0.000 A 
ATOM     11  C   UNL     1       1.700   9.159  18.603  0.00  0.00    +0.000 A 
ENDROOT
BRANCH   8  12
ATOM     12  C   UNL     1       4.737   5.610  17.171  0.00  0.00    +0.000 A 
ATOM     13  C   UNL     1       5.945   6.290  16.987  0.00  0.00    +0.000 A 
ATOM     14  C   UNL     1       6.954   5.749  16.170  0.00  0.00    +0.000 A 
ATOM     15  C   UNL     1       6.776   4.519  15.533  0.00  0.00    +0.000 A 
ATOM     16  C   UNL     1       5.603   3.811  15.724  0.00  0.00    +0.000 A 
ATOM     17  C   UNL     1       4.611   4.344  16.545  0.00  0.00    +0.000 A 
ENDBRANCH   8  12
BRANCH   1  18
ATOM     18  N   UNL     1       0.047  10.848  19.331  0.00  0.00    +0.000 N 
ATOM     19  H   UNL     1      -0.311  11.059  18.403  0.00  0.00    +0.000 HD
BRANCH  18  20
ATOM     20  S   UNL     1       0.516  12.215  20.202  0.00  0.00    +0.000 S 
ATOM     21  O   UNL     1       0.708  13.331  19.303  0.00  0.00    +0.000 OA
ATOM     22  O   UNL     1       1.564  11.782  21.104  0.00  0.00    +0.000 OA
BRANCH  20  26
ATOM     23  C   UNL     1      -3.275  13.027  22.672  0.00  0.00    +0.000 A 
ATOM     24  C   UNL     1      -3.073  13.607  21.407  0.00  0.00    +0.000 A 
ATOM     25  C   UNL     1      -1.919  13.358  20.665  0.00  0.00    +0.000 A 
ATOM     26  C   UNL     1      -0.931  12.523  21.183  0.00  0.00    +0.000 A 
ATOM     27  C   UNL     1      -1.092  11.932  22.434  0.00  0.00    +0.000 A 
ATOM     28  C   UNL     1      -2.251  12.196  23.175  0.00  0.00    +0.000 A 
BRANCH  23  30
ATOM     29  C   UNL     1      -5.850  12.896  22.661  0.00  0.00    +0.000 C 
ATOM     30  C   UNL     1      -4.577  13.247  23.468  0.00  0.00    +0.000 C 
ATOM     31  C   UNL     1      -4.707  14.720  23.906  0.00  0.00    +0.000 C 
ATOM     32  C   UNL     1      -4.580  12.353  24.728  0.00  0.00    +0.000 C 
ENDBRANCH  23  30
ENDBRANCH  20  26
ENDBRANCH  18  20
ENDBRANCH   1  18
TORSDOF 5
ENDMDL
MODEL 7
REMARK VINA RESULT:      -8.4      1.215      1.837
REMARK  Name = 
REMARK  8 active torsions:
REMARK  status: ('A' for Active; 'I' for Inactive)
REMARK    1  A    between atoms: C_1  and  C_2
REMARK    2  A    between atoms: C_2  and  C_3
REMARK    3  A    between atoms: C_2  and  C_4
REMARK    4  A    between atoms: C_2  and  C_5
REMARK    5  A    between atoms: C_8  and  S_9
REMARK    6  A    between atoms: S_9  and  N_12
REMARK    7  A    between atoms: N_12  and  C_13
REMARK    8  A    between atoms: C_20  and  C_21
REMARK                            x       y       z     vdW  Elec       q    Type
REMARK                         _______ _______ _______ _____ _____    ______ ____
ROOT
ATOM      1  C   UNL     1       0.725   9.675  19.656  0.00  0.00    +0.000 A 
ATOM      2  C   UNL     1       0.553   9.010  20.875  0.00  0.00    +0.000 A 
ATOM      3  C   UNL     1       1.141   7.776  21.075  0.00  0.00    +0.000 A 
ATOM      4  C   UNL     1       1.898   7.220  20.045  0.00  0.00    +0.000 A 
ATOM      5  C   UNL     1       2.333   5.838  20.162  0.00  0.00    +0.000 A 
ATOM      6  O   UNL     1       2.285   5.206  21.203  0.00  0.00    +0.000 OA
ATOM      7  C   UNL     1       2.856   5.227  18.940  0.00  0.00    +0.000 A 
ATOM      8  C   UNL     1       3.347   6.033  17.988  0.00  0.00    +0.000 A 
ATOM      9  O   UNL     1       3.042   7.399  17.909  0.00  0.00    +0.000 OA
ATOM     10  C   UNL     1       2.171   7.911  18.860  0.00  0.00    +0.000 A 
ATOM     11  C   UNL     1       1.559   9.150  18.654  0.00  0.00    +0.000 A 
ENDROOT
BRANCH   8  12
ATOM     12  C   UNL     1       4.336   5.474  17.025  0.00  0.00    +0.000 A 
ATOM     13  C   UNL     1       4.565   4.104  16.869  0.00  0.00    +0.000 A 
ATOM     14  C   UNL     1       5.495   3.636  15.923  0.00  0.00    +0.000 A 
ATOM     15  C   UNL     1       6.201   4.529  15.112  0.00  0.00    +0.000 A 
ATOM     16  C   UNL     1       5.969   5.887  15.224  0.00  0.00    +0.000 A 
ATOM     17  C   UNL     1       5.037   6.346  16.155  0.00  0.00    +0.000 A 
ENDBRANCH   8  12
BRANCH   1  18
ATOM     18  N   UNL     1       0.036  10.906  19.497  0.00  0.00    +0.000 N 
ATOM     19  H   UNL     1      -0.474  11.071  18.632  0.00  0.00    +0.000 HD
BRANCH  18  20
ATOM     20  S   UNL     1       0.700  12.305  20.168  0.00  0.00    +0.000 S 
ATOM     21  O   UNL     1       0.812  13.332  19.157  0.00  0.00    +0.000 OA
ATOM     22  O   UNL     1       1.847  11.878  20.944  0.00  0.00    +0.000 OA
BRANCH  20  26
ATOM     23  C   UNL     1      -2.619  13.464  23.131  0.00  0.00    +0.000 A 
ATOM     24  C   UNL     1      -2.849  12.573  22.067  0.00  0.00    +0.000 A 
ATOM     25  C   UNL     1      -1.838  12.229  21.170  0.00  0.00    +0.000 A 
ATOM     26  C   UNL     1      -0.568  12.781  21.317  0.00  0.00    +0.000 A 
ATOM     27  C   UNL     1      -0.299  13.669  22.356  0.00  0.00    +0.000 A 
ATOM     28  C   UNL     1      -1.325  14.016  23.245  0.00  0.00    +0.000 A 
BRANCH  23  30
ATOM     29  C   UNL     1      -3.191  14.629  25.358  0.00  0.00    +0.000 C 
ATOM     30  C   UNL     1      -3.715  13.799  24.162  0.00  0.00    +0.000 C 
ATOM     31  C   UNL     1      -4.334  12.509  24.739  0.00  0.00    +0.000 C 
ATOM     32  C   UNL     1      -4.832  14.627  23.491  0.00  0.00    +0.000 C 
ENDBRANCH  23  30
ENDBRANCH  20  26
ENDBRANCH  18  20
ENDBRANCH   1  18
TORSDOF 5
ENDMDL
MODEL 8
REMARK VINA RESULT:      -8.4      2.601     10.400
REMARK  Name = 
REMARK  8 active torsions:
REMARK  status: ('A' for Active; 'I' for Inactive)
REMARK    1  A    between atoms: C_1  and  C_2
REMARK    2  A    between atoms: C_2  and  C_3
REMARK    3  A    between atoms: C_2  and  C_4
REMARK    4  A    between atoms: C_2  and  C_5
REMARK    5  A    between atoms: C_8  and  S_9
REMARK    6  A    between atoms: S_9  and  N_12
REMARK    7  A    between atoms: N_12  and  C_13
REMARK    8  A    between atoms: C_20  and  C_21
REMARK                            x       y       z     vdW  Elec       q    Type
REMARK                         _______ _______ _______ _____ _____    ______ ____
ROOT
ATOM      1  C   UNL     1      -0.331  10.531  19.366  0.00  0.00    +0.000 A 
ATOM      2  C   UNL     1      -0.472  10.066  18.054  0.00  0.00    +0.000 A 
ATOM      3  C   UNL     1      -1.646  10.297  17.365  0.00  0.00    +0.000 A 
ATOM      4  C   UNL     1      -2.672  10.993  18.002  0.00  0.00    +0.000 A 
ATOM      5  C   UNL     1      -3.980  11.048  17.370  0.00  0.00    +0.000 A 
ATOM      6  O   UNL     1      -4.178  10.729  16.211  0.00  0.00    +0.000 OA
ATOM      7  C   UNL     1      -5.076  11.526  18.212  0.00  0.00    +0.000 A 
ATOM      8  C   UNL     1      -4.777  12.305  19.261  0.00  0.00    +0.000 A 
ATOM      9  O   UNL     1      -3.497  12.368  19.828  0.00  0.00    +0.000 OA
ATOM     10  C   UNL     1      -2.516  11.558  19.271  0.00  0.00    +0.000 A 
ATOM     11  C   UNL     1      -1.334  11.307  19.973  0.00  0.00    +0.000 A 
ENDROOT
BRANCH   8  12
ATOM     12  C   UNL     1      -5.828  13.216  19.792  0.00  0.00    +0.000 A 
ATOM     13  C   UNL     1      -6.301  14.332  19.093  0.00  0.00    +0.000 A 
ATOM     14  C   UNL     1      -7.315  15.140  19.637  0.00  0.00    +0.000 A 
ATOM     15  C   UNL     1      -7.878  14.843  20.881  0.00  0.00    +0.000 A 
ATOM     16  C   UNL     1      -7.451  13.727  21.577  0.00  0.00    +0.000 A 
ATOM     17  C   UNL     1      -6.454  12.921  21.029  0.00  0.00    +0.000 A 
ENDBRANCH   8  12
BRANCH   1  18
ATOM     18  N   UNL     1       0.875  10.199  20.037  0.00  0.00    +0.000 N 
ATOM     19  H   UNL     1       1.754  10.284  19.532  0.00  0.00    +0.000 HD
BRANCH  18  20
ATOM     20  S   UNL     1       0.862   8.942  21.164  0.00  0.00    +0.000 S 
ATOM     21  O   UNL     1      -0.500   8.549  21.448  0.00  0.00    +0.000 OA
ATOM     22  O   UNL     1       1.772   9.335  22.220  0.00  0.00    +0.000 OA
BRANCH  20  26
ATOM     23  C   UNL     1       2.944   5.622  18.760  0.00  0.00    +0.000 A 
ATOM     24  C   UNL     1       2.908   6.955  18.311  0.00  0.00    +0.000 A 
ATOM     25  C   UNL     1       2.272   7.956  19.044  0.00  0.00    +0.000 A 
ATOM     26  C   UNL     1       1.646   7.639  20.248  0.00  0.00    +0.000 A 
ATOM     27  C   UNL     1       1.657   6.330  20.726  0.00  0.00    +0.000 A 
ATOM     28  C   UNL     1       2.290   5.331  19.976  0.00  0.00    +0.000 A 
BRANCH  23  30
ATOM     29  C   UNL     1       4.564   5.083  16.829  0.00  0.00    +0.000 C 
ATOM     30  C   UNL     1       3.701   4.525  17.986  0.00  0.00    +0.000 C 
ATOM     31  C   UNL     1       2.714   3.512  17.370  0.00  0.00    +0.000 C 
ATOM     32  C   UNL     1       4.654   3.771  18.939  0.00  0.00    +0.000 C 
ENDBRANCH  23  30
ENDBRANCH  20  26
ENDBRANCH  18  20
ENDBRANCH   1  18
TORSDOF 5
ENDMDL
MODEL 9
REMARK VINA RESULT:      -8.4      2.432     10.483
REMARK  Name = 
REMARK  8 active torsions:
REMARK  status: ('A' for Active; 'I' for Inactive)
REMARK    1  A    between atoms: C_1  and  C_2
REMARK    2  A    between atoms: C_2  and  C_3
REMARK    3  A    between atoms: C_2  and  C_4
REMARK    4  A    between atoms: C_2  and  C_5
REMARK    5  A    between atoms: C_8  and  S_9
REMARK    6  A    between atoms: S_9  and  N_12
REMARK    7  A    between atoms: N_12  and  C_13
REMARK    8  A    between atoms: C_20  and  C_21
REMARK                            x       y       z     vdW  Elec       q    Type
REMARK                         _______ _______ _______ _____ _____    ______ ____
ROOT
ATOM      1  C   UNL     1      -0.351  10.619  19.485  0.00  0.00    +0.000 A 
ATOM      2  C   UNL     1      -0.566  10.134  18.190  0.00  0.00    +0.000 A 
ATOM      3  C   UNL     1      -1.754  10.408  17.541  0.00  0.00    +0.000 A 
ATOM      4  C   UNL     1      -2.718  11.167  18.201  0.00  0.00    +0.000 A 
ATOM      5  C   UNL     1      -4.047  11.273  17.619  0.00  0.00    +0.000 A 
ATOM      6  O   UNL     1      -4.305  10.940  16.475  0.00  0.00    +0.000 OA
ATOM      7  C   UNL     1      -5.085  11.822  18.491  0.00  0.00    +0.000 A 
ATOM      8  C   UNL     1      -4.707  12.607  19.510  0.00  0.00    +0.000 A 
ATOM      9  O   UNL     1      -3.403  12.618  20.026  0.00  0.00    +0.000 OA
ATOM     10  C   UNL     1      -2.486  11.750  19.450  0.00  0.00    +0.000 A 
ATOM     11  C   UNL     1      -1.291  11.455  20.112  0.00  0.00    +0.000 A 
ENDROOT
BRANCH   8  12
ATOM     12  C   UNL     1      -5.691  13.580  20.059  0.00  0.00    +0.000 A 
ATOM     13  C   UNL     1      -6.913  13.867  19.443  0.00  0.00    +0.000 A 
ATOM     14  C   UNL     1      -7.812  14.777  20.026  0.00  0.00    +0.000 A 
ATOM     15  C   UNL     1      -7.510  15.407  21.236  0.00  0.00    +0.000 A 
ATOM     16  C   UNL     1      -6.322  15.116  21.882  0.00  0.00    +0.000 A 
ATOM     17  C   UNL     1      -5.439  14.204  21.307  0.00  0.00    +0.000 A 
ENDBRANCH   8  12
BRANCH   1  18
ATOM     18  N   UNL     1       0.863  10.242  20.116  0.00  0.00    +0.000 N 
ATOM     19  H   UNL     1       1.730  10.312  19.589  0.00  0.00    +0.000 HD
BRANCH  18  20
ATOM     20  S   UNL     1       0.846   8.966  21.221  0.00  0.00    +0.000 S 
ATOM     21  O   UNL     1      -0.516   8.552  21.475  0.00  0.00    +0.000 OA
ATOM     22  O   UNL     1       1.734   9.350  22.299  0.00  0.00    +0.000 OA
BRANCH  20  26
ATOM     23  C   UNL     1       2.903   5.599  18.861  0.00  0.00    +0.000 A 
ATOM     24  C   UNL     1       2.308   5.372  20.115  0.00  0.00    +0.000 A 
ATOM     25  C   UNL     1       1.689   6.399  20.827  0.00  0.00    +0.000 A 
ATOM     26  C   UNL     1       1.659   7.687  20.296  0.00  0.00    +0.000 A 
ATOM     27  C   UNL     1       2.240   7.953  19.058  0.00  0.00    +0.000 A 
ATOM     28  C   UNL     1       2.868   6.917  18.356  0.00  0.00    +0.000 A 
BRANCH  23  30
ATOM     29  C   UNL     1       4.369   3.479  18.905  0.00  0.00    +0.000 C 
ATOM     30  C   UNL     1       3.533   4.455  18.042  0.00  0.00    +0.000 C 
ATOM     31  C   UNL     1       4.468   5.014  16.951  0.00  0.00    +0.000 C 
ATOM     32  C   UNL     1       2.423   3.621  17.364  0.00  0.00    +0.000 C 
ENDBRANCH  23  30
ENDBRANCH  20  26
ENDBRANCH  18  20
ENDBRANCH   1  18
TORSDOF 5
ENDMDL
