MODEL 1
REMARK VINA RESULT:      -9.2      0.000      0.000
REMARK  Name = 
REMARK  9 active torsions:
REMARK  status: ('A' for Active; 'I' for Inactive)
REMARK    1  A    between atoms: C_1  and  O_2
REMARK    2  A    between atoms: O_2  and  C_3
REMARK    3  A    between atoms: C_6  and  C_7
REMARK    4  A    between atoms: C_8  and  C_9
REMARK    5  A    between atoms: C_9  and  O_11
REMARK    6  A    between atoms: O_11  and  C_12
REMARK    7  A    between atoms: C_12  and  C_13
REMARK    8  A    between atoms: C_15  and  O_16
REMARK    9  A    between atoms: C_26  and  O_27
REMARK                            x       y       z     vdW  Elec       q    Type
REMARK                         _______ _______ _______ _____ _____    ______ ____
ROOT
ATOM      1  C   UNL     1       2.484   6.273  19.247  0.00  0.00    +0.000 A 
ATOM      2  C   UNL     1       2.140   4.934  19.019  0.00  0.00    +0.000 A 
ATOM      3  C   UNL     1       2.905   4.189  18.125  0.00  0.00    +0.000 A 
ATOM      4  C   UNL     1       4.024   4.759  17.540  0.00  0.00    +0.000 A 
ATOM      5  C   UNL     1       3.932   6.116  17.311  0.00  0.00    +0.000 A 
ATOM      6  C   UNL     1       3.335   6.894  18.315  0.00  0.00    +0.000 A 
ATOM      7  C   UNL     1       5.026   6.618  16.472  0.00  0.00    +0.000 C 
ATOM      8  O   UNL     1       4.857   7.046  15.345  0.00  0.00    +0.000 OA
ATOM      9  C   UNL     1       6.321   6.538  17.144  0.00  0.00    +0.000 A 
ATOM     10  C   UNL     1       7.228   7.581  16.966  0.00  0.00    +0.000 A 
ATOM     11  C   UNL     1       8.196   7.779  17.939  0.00  0.00    +0.000 A 
ATOM     12  C   UNL     1       8.220   6.949  19.066  0.00  0.00    +0.000 A 
ATOM     13  C   UNL     1       7.339   5.858  19.183  0.00  0.00    +0.000 A 
ATOM     14  C   UNL     1       6.412   5.593  18.176  0.00  0.00    +0.000 A 
ATOM     15  C   UNL     1       5.385   4.468  18.182  0.00  0.00    +0.000 C 
ATOM     16  O   UNL     1       5.624   3.386  18.699  0.00  0.00    +0.000 OA
ENDROOT
BRANCH   3  17
ATOM     17  O   UNL     1       2.455   2.986  17.662  0.00  0.00    +0.000 OA
ATOM     18  H   UNL     1       1.523   2.886  17.923  0.00  0.00    +0.000 HD
ENDBRANCH   3  17
BRANCH  13  19
ATOM     19  O   UNL     1       7.320   5.151  20.349  0.00  0.00    +0.000 OA
ATOM     20  H   UNL     1       8.067   5.422  20.909  0.00  0.00    +0.000 HD
ENDBRANCH  13  19
BRANCH   1  21
ATOM     21  C   UNL     1       1.949   7.004  20.454  0.00  0.00    +0.000 C 
BRANCH  21  22
ATOM     22  O   UNL     1       1.866   8.429  20.233  0.00  0.00    +0.000 OA
BRANCH  22  23
ATOM     23  C   UNL     1       1.130   9.126  21.136  0.00  0.00    +0.000 C 
ATOM     24  O   UNL     1       1.502   9.454  22.257  0.00  0.00    +0.000 OA
BRANCH  23  26
ATOM     25  C   UNL     1      -0.206  10.000  19.274  0.00  0.00    +0.000 C 
ATOM     26  C   UNL     1      -0.172   9.515  20.529  0.00  0.00    +0.000 C 
BRANCH  25  30
ATOM     27  C   UNL     1      -3.695  11.293  17.103  0.00  0.00    +0.000 A 
ATOM     28  C   UNL     1      -3.362  11.847  18.337  0.00  0.00    +0.000 A 
ATOM     29  C   UNL     1      -2.223  11.417  19.029  0.00  0.00    +0.000 A 
ATOM     30  C   UNL     1      -1.412  10.397  18.515  0.00  0.00    +0.000 A 
ATOM     31  C   UNL     1      -1.750   9.849  17.271  0.00  0.00    +0.000 A 
ATOM     32  C   UNL     1      -2.887  10.291  16.568  0.00  0.00    +0.000 A 
BRANCH  27  34
ATOM     33  C   UNL     1      -5.814  12.304  17.439  0.00  0.00    +0.000 C 
ATOM     34  O   UNL     1      -4.841  11.785  16.539  0.00  0.00    +0.000 OA
ENDBRANCH  27  34
ENDBRANCH  25  30
ENDBRANCH  23  26
ENDBRANCH  22  23
ENDBRANCH  21  22
ENDBRANCH   1  21
TORSDOF 8
ENDMDL
MODEL 2
REMARK VINA RESULT:      -9.0      1.637      2.205
REMARK  Name = 
REMARK  9 active torsions:
REMARK  status: ('A' for Active; 'I' for Inactive)
REMARK    1  A    between atoms: C_1  and  O_2
REMARK    2  A    between atoms: O_2  and  C_3
REMARK    3  A    between atoms: C_6  and  C_7
REMARK    4  A    between atoms: C_8  and  C_9
REMARK    5  A    between atoms: C_9  and  O_11
REMARK    6  A    between atoms: O_11  and  C_12
REMARK    7  A    between atoms: C_12  and  C_13
REMARK    8  A    between atoms: C_15  and  O_16
REMARK    9  A    between atoms: C_26  and  O_27
REMARK                            x       y       z     vdW  Elec       q    Type
REMARK                         _______ _______ _______ _____ _____    ______ ____
ROOT
ATOM      1  C   UNL     1       2.083   6.057  19.819  0.00  0.00    +0.000 A 
ATOM      2  C   UNL     1       1.900   5.116  20.841  0.00  0.00    +0.000 A 
ATOM      3  C   UNL     1       2.322   3.806  20.630  0.00  0.00    +0.000 A 
ATOM      4  C   UNL     1       2.976   3.478  19.452  0.00  0.00    +0.000 A 
ATOM      5  C   UNL     1       2.573   4.197  18.346  0.00  0.00    +0.000 A 
ATOM      6  C   UNL     1       2.341   5.569  18.525  0.00  0.00    +0.000 A 
ATOM      7  C   UNL     1       3.107   3.644  17.096  0.00  0.00    +0.000 C 
ATOM      8  O   UNL     1       2.406   3.130  16.244  0.00  0.00    +0.000 OA
ATOM      9  C   UNL     1       4.558   3.785  17.003  0.00  0.00    +0.000 A 
ATOM     10  C   UNL     1       5.118   4.107  15.768  0.00  0.00    +0.000 A 
ATOM     11  C   UNL     1       6.361   4.721  15.754  0.00  0.00    +0.000 A 
ATOM     12  C   UNL     1       6.999   5.015  16.965  0.00  0.00    +0.000 A 
ATOM     13  C   UNL     1       6.444   4.611  18.194  0.00  0.00    +0.000 A 
ATOM     14  C   UNL     1       5.234   3.919  18.225  0.00  0.00    +0.000 A 
ATOM     15  C   UNL     1       4.508   3.447  19.478  0.00  0.00    +0.000 C 
ATOM     16  O   UNL     1       5.119   3.081  20.472  0.00  0.00    +0.000 OA
ENDROOT
BRANCH   3  17
ATOM     17  O   UNL     1       1.924   2.804  21.468  0.00  0.00    +0.000 OA
ATOM     18  H   UNL     1       2.715   2.321  21.765  0.00  0.00    +0.000 HD
ENDBRANCH   3  17
BRANCH  13  19
ATOM     19  O   UNL     1       7.040   5.022  19.350  0.00  0.00    +0.000 OA
ATOM     20  H   UNL     1       6.510   4.735  20.112  0.00  0.00    +0.000 HD
ENDBRANCH  13  19
BRANCH   1  21
ATOM     21  C   UNL     1       2.000   7.534  20.116  0.00  0.00    +0.000 C 
BRANCH  21  22
ATOM     22  O   UNL     1       1.798   7.794  21.523  0.00  0.00    +0.000 OA
BRANCH  22  23
ATOM     23  C   UNL     1       1.160   8.954  21.824  0.00  0.00    +0.000 C 
ATOM     24  O   UNL     1       1.518   9.766  22.668  0.00  0.00    +0.000 OA
BRANCH  23  26
ATOM     25  C   UNL     1      -0.055  10.228  20.115  0.00  0.00    +0.000 C 
ATOM     26  C   UNL     1       0.003   9.141  20.906  0.00  0.00    +0.000 C 
BRANCH  25  30
ATOM     27  C   UNL     1      -3.117  11.291  17.278  0.00  0.00    +0.000 A 
ATOM     28  C   UNL     1      -3.044  11.900  18.528  0.00  0.00    +0.000 A 
ATOM     29  C   UNL     1      -2.041  11.545  19.438  0.00  0.00    +0.000 A 
ATOM     30  C   UNL     1      -1.109  10.546  19.128  0.00  0.00    +0.000 A 
ATOM     31  C   UNL     1      -1.186   9.942  17.867  0.00  0.00    +0.000 A 
ATOM     32  C   UNL     1      -2.185  10.309  16.946  0.00  0.00    +0.000 A 
BRANCH  27  34
ATOM     33  C   UNL     1      -5.424  11.819  17.123  0.00  0.00    +0.000 C 
ATOM     34  O   UNL     1      -4.153  11.711  16.489  0.00  0.00    +0.000 OA
ENDBRANCH  27  34
ENDBRANCH  25  30
ENDBRANCH  23  26
ENDBRANCH  22  23
ENDBRANCH  21  22
ENDBRANCH   1  21
TORSDOF 8
ENDMDL
MODEL 3
REMARK VINA RESULT:      -8.7      5.148      8.826
REMARK  Name = 
REMARK  9 active torsions:
REMARK  status: ('A' for Active; 'I' for Inactive)
REMARK    1  A    between atoms: C_1  and  O_2
REMARK    2  A    between atoms: O_2  and  C_3
REMARK    3  A    between atoms: C_6  and  C_7
REMARK    4  A    between atoms: C_8  and  C_9
REMARK    5  A    between atoms: C_9  and  O_11
REMARK    6  A    between atoms: O_11  and  C_12
REMARK    7  A    between atoms: C_12  and  C_13
REMARK    8  A    between atoms: C_15  and  O_16
REMARK    9  A    between atoms: C_26  and  O_27
REMARK                            x       y       z     vdW  Elec       q    Type
REMARK                         _______ _______ _______ _____ _____    ______ ____
ROOT
ATOM      1  C   UNL     1       5.562   5.659  17.667  0.00  0.00    +0.000 A 
ATOM      2  C   UNL     1       5.822   4.972  16.475  0.00  0.00    +0.000 A 
ATOM      3  C   UNL     1       5.455   3.632  16.379  0.00  0.00    +0.000 A 
ATOM      4  C   UNL     1       4.781   3.030  17.430  0.00  0.00    +0.000 A 
ATOM      5  C   UNL     1       5.113   3.505  18.681  0.00  0.00    +0.000 A 
ATOM      6  C   UNL     1       5.286   4.891  18.813  0.00  0.00    +0.000 A 
ATOM      7  C   UNL     1       4.567   2.673  19.759  0.00  0.00    +0.000 C 
ATOM      8  O   UNL     1       5.263   2.013  20.508  0.00  0.00    +0.000 OA
ATOM      9  C   UNL     1       3.108   2.733  19.819  0.00  0.00    +0.000 A 
ATOM     10  C   UNL     1       2.494   2.757  21.071  0.00  0.00    +0.000 A 
ATOM     11  C   UNL     1       1.224   3.304  21.166  0.00  0.00    +0.000 A 
ATOM     12  C   UNL     1       0.612   3.829  20.021  0.00  0.00    +0.000 A 
ATOM     13  C   UNL     1       1.224   3.724  18.758  0.00  0.00    +0.000 A 
ATOM     14  C   UNL     1       2.466   3.104  18.629  0.00  0.00    +0.000 A 
ATOM     15  C   UNL     1       3.254   2.945  17.335  0.00  0.00    +0.000 C 
ATOM     16  O   UNL     1       2.693   2.781  16.260  0.00  0.00    +0.000 OA
ENDROOT
BRANCH   3  17
ATOM     17  O   UNL     1       5.928   2.853  15.362  0.00  0.00    +0.000 OA
ATOM     18  H   UNL     1       5.283   2.144  15.195  0.00  0.00    +0.000 HD
ENDBRANCH   3  17
BRANCH  13  19
ATOM     19  O   UNL     1       0.647   4.354  17.695  0.00  0.00    +0.000 OA
ATOM     20  H   UNL     1       0.784   5.313  17.768  0.00  0.00    +0.000 HD
ENDBRANCH  13  19
BRANCH   1  21
ATOM     21  C   UNL     1       5.585   7.168  17.700  0.00  0.00    +0.000 C 
BRANCH  21  22
ATOM     22  O   UNL     1       6.792   7.706  17.116  0.00  0.00    +0.000 OA
BRANCH  22  23
ATOM     23  C   UNL     1       7.821   7.916  17.975  0.00  0.00    +0.000 C 
ATOM     24  O   UNL     1       8.322   7.071  18.709  0.00  0.00    +0.000 OA
BRANCH  23  26
ATOM     25  C   UNL     1       9.036   9.873  18.820  0.00  0.00    +0.000 C 
ATOM     26  C   UNL     1       8.318   9.311  17.830  0.00  0.00    +0.000 C 
BRANCH  25  30
ATOM     27  C   UNL     1      10.896  13.758  18.845  0.00  0.00    +0.000 A 
ATOM     28  C   UNL     1      11.293  12.759  19.730  0.00  0.00    +0.000 A 
ATOM     29  C   UNL     1      10.680  11.499  19.707  0.00  0.00    +0.000 A 
ATOM     30  C   UNL     1       9.630  11.227  18.820  0.00  0.00    +0.000 A 
ATOM     31  C   UNL     1       9.240  12.235  17.930  0.00  0.00    +0.000 A 
ATOM     32  C   UNL     1       9.866  13.496  17.943  0.00  0.00    +0.000 A 
BRANCH  27  34
ATOM     33  C   UNL     1      10.807  16.031  19.518  0.00  0.00    +0.000 C 
ATOM     34  O   UNL     1      11.559  14.947  18.981  0.00  0.00    +0.000 OA
ENDBRANCH  27  34
ENDBRANCH  25  30
ENDBRANCH  23  26
ENDBRANCH  22  23
ENDBRANCH  21  22
ENDBRANCH   1  21
TORSDOF 8
ENDMDL
MODEL 4
REMARK VINA RESULT:      -8.7      1.765      2.679
REMARK  Name = 
REMARK  9 active torsions:
REMARK  status: ('A' for Active; 'I' for Inactive)
REMARK    1  A    between atoms: C_1  and  O_2
REMARK    2  A    between atoms: O_2  and  C_3
REMARK    3  A    between atoms: C_6  and  C_7
REMARK    4  A    between atoms: C_8  and  C_9
REMARK    5  A    between atoms: C_9  and  O_11
REMARK    6  A    between atoms: O_11  and  C_12
REMARK    7  A    between atoms: C_12  and  C_13
REMARK    8  A    between atoms: C_15  and  O_16
REMARK    9  A    between atoms: C_26  and  O_27
REMARK                            x       y       z     vdW  Elec       q    Type
REMARK                         _______ _______ _______ _____ _____    ______ ____
ROOT
ATOM      1  C   UNL     1       1.866   5.776  19.928  0.00  0.00    +0.000 A 
ATOM      2  C   UNL     1       1.745   4.795  20.921  0.00  0.00    +0.000 A 
ATOM      3  C   UNL     1       2.249   3.521  20.670  0.00  0.00    +0.000 A 
ATOM      4  C   UNL     1       2.918   3.271  19.482  0.00  0.00    +0.000 A 
ATOM      5  C   UNL     1       2.468   3.996  18.399  0.00  0.00    +0.000 A 
ATOM      6  C   UNL     1       2.150   5.344  18.619  0.00  0.00    +0.000 A 
ATOM      7  C   UNL     1       3.032   3.516  17.132  0.00  0.00    +0.000 C 
ATOM      8  O   UNL     1       2.363   2.984  16.265  0.00  0.00    +0.000 OA
ATOM      9  C   UNL     1       4.471   3.751  17.042  0.00  0.00    +0.000 A 
ATOM     10  C   UNL     1       5.006   4.146  15.817  0.00  0.00    +0.000 A 
ATOM     11  C   UNL     1       6.207   4.838  15.820  0.00  0.00    +0.000 A 
ATOM     12  C   UNL     1       6.829   5.134  17.039  0.00  0.00    +0.000 A 
ATOM     13  C   UNL     1       6.305   4.659  18.255  0.00  0.00    +0.000 A 
ATOM     14  C   UNL     1       5.141   3.891  18.266  0.00  0.00    +0.000 A 
ATOM     15  C   UNL     1       4.450   3.336  19.505  0.00  0.00    +0.000 C 
ATOM     16  O   UNL     1       5.086   2.980  20.487  0.00  0.00    +0.000 OA
ENDROOT
BRANCH   3  17
ATOM     17  O   UNL     1       1.917   2.471  21.477  0.00  0.00    +0.000 OA
ATOM     18  H   UNL     1       1.562   2.827  22.311  0.00  0.00    +0.000 HD
ENDBRANCH   3  17
BRANCH  13  19
ATOM     19  O   UNL     1       6.877   5.072  19.423  0.00  0.00    +0.000 OA
ATOM     20  H   UNL     1       6.349   5.790  19.811  0.00  0.00    +0.000 HD
ENDBRANCH  13  19
BRANCH   1  21
ATOM     21  C   UNL     1       1.690   7.235  20.270  0.00  0.00    +0.000 C 
BRANCH  21  22
ATOM     22  O   UNL     1       2.595   8.080  19.526  0.00  0.00    +0.000 OA
BRANCH  22  23
ATOM     23  C   UNL     1       2.072   8.681  18.426  0.00  0.00    +0.000 C 
ATOM     24  O   UNL     1       2.500   8.572  17.283  0.00  0.00    +0.000 OA
BRANCH  23  26
ATOM     25  C   UNL     1      -0.103   9.671  17.870  0.00  0.00    +0.000 C 
ATOM     26  C   UNL     1       0.838   9.423  18.801  0.00  0.00    +0.000 C 
BRANCH  25  30
ATOM     27  C   UNL     1      -3.930  11.551  18.478  0.00  0.00    +0.000 A 
ATOM     28  C   UNL     1      -3.773  10.502  17.575  0.00  0.00    +0.000 A 
ATOM     29  C   UNL     1      -2.522   9.899  17.391  0.00  0.00    +0.000 A 
ATOM     30  C   UNL     1      -1.394  10.359  18.083  0.00  0.00    +0.000 A 
ATOM     31  C   UNL     1      -1.562  11.410  18.993  0.00  0.00    +0.000 A 
ATOM     32  C   UNL     1      -2.822  12.006  19.189  0.00  0.00    +0.000 A 
BRANCH  27  34
ATOM     33  C   UNL     1      -6.250  11.208  18.125  0.00  0.00    +0.000 C 
ATOM     34  O   UNL     1      -5.196  12.065  18.551  0.00  0.00    +0.000 OA
ENDBRANCH  27  34
ENDBRANCH  25  30
ENDBRANCH  23  26
ENDBRANCH  22  23
ENDBRANCH  21  22
ENDBRANCH   1  21
TORSDOF 8
ENDMDL
MODEL 5
REMARK VINA RESULT:      -8.7      2.621      3.574
REMARK  Name = 
REMARK  9 active torsions:
REMARK  status: ('A' for Active; 'I' for Inactive)
REMARK    1  A    between atoms: C_1  and  O_2
REMARK    2  A    between atoms: O_2  and  C_3
REMARK    3  A    between atoms: C_6  and  C_7
REMARK    4  A    between atoms: C_8  and  C_9
REMARK    5  A    between atoms: C_9  and  O_11
REMARK    6  A    between atoms: O_11  and  C_12
REMARK    7  A    between atoms: C_12  and  C_13
REMARK    8  A    between atoms: C_15  and  O_16
REMARK    9  A    between atoms: C_26  and  O_27
REMARK                            x       y       z     vdW  Elec       q    Type
REMARK                         _______ _______ _______ _____ _____    ______ ____
ROOT
ATOM      1  C   UNL     1       2.053   5.893  19.919  0.00  0.00    +0.000 A 
ATOM      2  C   UNL     1       1.936   4.928  20.927  0.00  0.00    +0.000 A 
ATOM      3  C   UNL     1       2.397   3.638  20.678  0.00  0.00    +0.000 A 
ATOM      4  C   UNL     1       3.022   3.355  19.474  0.00  0.00    +0.000 A 
ATOM      5  C   UNL     1       2.559   4.079  18.395  0.00  0.00    +0.000 A 
ATOM      6  C   UNL     1       2.285   5.438  18.608  0.00  0.00    +0.000 A 
ATOM      7  C   UNL     1       3.070   3.569  17.118  0.00  0.00    +0.000 C 
ATOM      8  O   UNL     1       2.361   3.045  16.279  0.00  0.00    +0.000 OA
ATOM      9  C   UNL     1       4.512   3.763  16.982  0.00  0.00    +0.000 A 
ATOM     10  C   UNL     1       5.020   4.127  15.736  0.00  0.00    +0.000 A 
ATOM     11  C   UNL     1       6.239   4.786  15.693  0.00  0.00    +0.000 A 
ATOM     12  C   UNL     1       6.906   5.080  16.889  0.00  0.00    +0.000 A 
ATOM     13  C   UNL     1       6.406   4.633  18.127  0.00  0.00    +0.000 A 
ATOM     14  C   UNL     1       5.223   3.899  18.183  0.00  0.00    +0.000 A 
ATOM     15  C   UNL     1       4.555   3.378  19.449  0.00  0.00    +0.000 C 
ATOM     16  O   UNL     1       5.211   3.016  20.416  0.00  0.00    +0.000 OA
ENDROOT
BRANCH   3  17
ATOM     17  O   UNL     1       2.061   2.608  21.508  0.00  0.00    +0.000 OA
ATOM     18  H   UNL     1       1.529   1.969  21.003  0.00  0.00    +0.000 HD
ENDBRANCH   3  17
BRANCH  13  19
ATOM     19  O   UNL     1       7.025   5.045  19.271  0.00  0.00    +0.000 OA
ATOM     20  H   UNL     1       6.817   5.979  19.438  0.00  0.00    +0.000 HD
ENDBRANCH  13  19
BRANCH   1  21
ATOM     21  C   UNL     1       1.928   7.361  20.247  0.00  0.00    +0.000 C 
BRANCH  21  22
ATOM     22  O   UNL     1       2.414   8.200  19.177  0.00  0.00    +0.000 OA
BRANCH  22  23
ATOM     23  C   UNL     1       1.543   9.134  18.716  0.00  0.00    +0.000 C 
ATOM     24  O   UNL     1       1.431   9.490  17.548  0.00  0.00    +0.000 OA
BRANCH  23  26
ATOM     25  C   UNL     1       0.077  10.805  19.754  0.00  0.00    +0.000 C 
ATOM     26  C   UNL     1       0.673   9.600  19.830  0.00  0.00    +0.000 C 
BRANCH  25  30
ATOM     27  C   UNL     1      -2.703  12.511  22.568  0.00  0.00    +0.000 A 
ATOM     28  C   UNL     1      -2.837  12.723  21.197  0.00  0.00    +0.000 A 
ATOM     29  C   UNL     1      -1.926  12.159  20.295  0.00  0.00    +0.000 A 
ATOM     30  C   UNL     1      -0.840  11.399  20.751  0.00  0.00    +0.000 A 
ATOM     31  C   UNL     1      -0.716  11.186  22.129  0.00  0.00    +0.000 A 
ATOM     32  C   UNL     1      -1.640  11.740  23.035  0.00  0.00    +0.000 A 
BRANCH  27  34
ATOM     33  C   UNL     1      -4.149  12.382  24.443  0.00  0.00    +0.000 C 
ATOM     34  O   UNL     1      -3.645  13.131  23.342  0.00  0.00    +0.000 OA
ENDBRANCH  27  34
ENDBRANCH  25  30
ENDBRANCH  23  26
ENDBRANCH  22  23
ENDBRANCH  21  22
ENDBRANCH   1  21
TORSDOF 8
ENDMDL
MODEL 6
REMARK VINA RESULT:      -8.5      1.785      2.454
REMARK  Name = 
REMARK  9 active torsions:
REMARK  status: ('A' for Active; 'I' for Inactive)
REMARK    1  A    between atoms: C_1  and  O_2
REMARK    2  A    between atoms: O_2  and  C_3
REMARK    3  A    between atoms: C_6  and  C_7
REMARK    4  A    between atoms: C_8  and  C_9
REMARK    5  A    between atoms: C_9  and  O_11
REMARK    6  A    between atoms: O_11  and  C_12
REMARK    7  A    between atoms: C_12  and  C_13
REMARK    8  A    between atoms: C_15  and  O_16
REMARK    9  A    between atoms: C_26  and  O_27
REMARK                            x       y       z     vdW  Elec       q    Type
REMARK                         _______ _______ _______ _____ _____    ______ ____
ROOT
ATOM      1  C   UNL     1       2.169   6.240  19.831  0.00  0.00    +0.000 A 
ATOM      2  C   UNL     1       1.942   5.306  20.851  0.00  0.00    +0.000 A 
ATOM      3  C   UNL     1       2.285   3.975  20.629  0.00  0.00    +0.000 A 
ATOM      4  C   UNL     1       2.905   3.616  19.443  0.00  0.00    +0.000 A 
ATOM      5  C   UNL     1       2.533   4.362  18.345  0.00  0.00    +0.000 A 
ATOM      6  C   UNL     1       2.384   5.744  18.532  0.00  0.00    +0.000 A 
ATOM      7  C   UNL     1       3.020   3.786  17.086  0.00  0.00    +0.000 C 
ATOM      8  O   UNL     1       2.282   3.318  16.239  0.00  0.00    +0.000 OA
ATOM      9  C   UNL     1       4.476   3.843  16.978  0.00  0.00    +0.000 A 
ATOM     10  C   UNL     1       5.041   4.139  15.738  0.00  0.00    +0.000 A 
ATOM     11  C   UNL     1       6.317   4.680  15.713  0.00  0.00    +0.000 A 
ATOM     12  C   UNL     1       6.984   4.929  16.918  0.00  0.00    +0.000 A 
ATOM     13  C   UNL     1       6.420   4.551  18.151  0.00  0.00    +0.000 A 
ATOM     14  C   UNL     1       5.172   3.931  18.192  0.00  0.00    +0.000 A 
ATOM     15  C   UNL     1       4.433   3.495  19.451  0.00  0.00    +0.000 C 
ATOM     16  O   UNL     1       5.033   3.089  20.437  0.00  0.00    +0.000 OA
ENDROOT
BRANCH   3  17
ATOM     17  O   UNL     1       1.838   2.994  21.467  0.00  0.00    +0.000 OA
ATOM     18  H   UNL     1       0.869   3.062  21.528  0.00  0.00    +0.000 HD
ENDBRANCH   3  17
BRANCH  13  19
ATOM     19  O   UNL     1       7.051   4.921  19.302  0.00  0.00    +0.000 OA
ATOM     20  H   UNL     1       7.292   4.130  19.813  0.00  0.00    +0.000 HD
ENDBRANCH  13  19
BRANCH   1  21
ATOM     21  C   UNL     1       2.175   7.718  20.137  0.00  0.00    +0.000 C 
BRANCH  21  22
ATOM     22  O   UNL     1       1.112   8.418  19.453  0.00  0.00    +0.000 OA
BRANCH  22  23
ATOM     23  C   UNL     1       1.496   9.209  18.418  0.00  0.00    +0.000 C 
ATOM     24  O   UNL     1       2.637   9.309  17.982  0.00  0.00    +0.000 OA
BRANCH  23  26
ATOM     25  C   UNL     1      -0.897   9.751  18.424  0.00  0.00    +0.000 C 
ATOM     26  C   UNL     1       0.303   9.872  17.825  0.00  0.00    +0.000 C 
BRANCH  25  30
ATOM     27  C   UNL     1      -4.554  11.681  17.216  0.00  0.00    +0.000 A 
ATOM     28  C   UNL     1      -3.973  11.938  18.456  0.00  0.00    +0.000 A 
ATOM     29  C   UNL     1      -2.782  11.305  18.832  0.00  0.00    +0.000 A 
ATOM     30  C   UNL     1      -2.167  10.371  17.988  0.00  0.00    +0.000 A 
ATOM     31  C   UNL     1      -2.754  10.121  16.741  0.00  0.00    +0.000 A 
ATOM     32  C   UNL     1      -3.943  10.769  16.356  0.00  0.00    +0.000 A 
BRANCH  27  34
ATOM     33  C   UNL     1      -6.840  11.970  17.776  0.00  0.00    +0.000 C 
ATOM     34  O   UNL     1      -5.724  12.348  16.976  0.00  0.00    +0.000 OA
ENDBRANCH  27  34
ENDBRANCH  25  30
ENDBRANCH  23  26
ENDBRANCH  22  23
ENDBRANCH  21  22
ENDBRANCH   1  21
TORSDOF 8
ENDMDL
MODEL 7
REMARK VINA RESULT:      -8.5      2.657      3.392
REMARK  Name = 
REMARK  9 active torsions:
REMARK  status: ('A' for Active; 'I' for Inactive)
REMARK    1  A    between atoms: C_1  and  O_2
REMARK    2  A    between atoms: O_2  and  C_3
REMARK    3  A    between atoms: C_6  and  C_7
REMARK    4  A    between atoms: C_8  and  C_9
REMARK    5  A    between atoms: C_9  and  O_11
REMARK    6  A    between atoms: O_11  and  C_12
REMARK    7  A    between atoms: C_12  and  C_13
REMARK    8  A    between atoms: C_15  and  O_16
REMARK    9  A    between atoms: C_26  and  O_27
REMARK                            x       y       z     vdW  Elec       q    Type
REMARK                         _______ _______ _______ _____ _____    ______ ____
ROOT
ATOM      1  C   UNL     1       2.092   6.042  20.036  0.00  0.00    +0.000 A 
ATOM      2  C   UNL     1       1.930   5.060  21.022  0.00  0.00    +0.000 A 
ATOM      3  C   UNL     1       2.323   3.755  20.740  0.00  0.00    +0.000 A 
ATOM      4  C   UNL     1       2.929   3.470  19.526  0.00  0.00    +0.000 A 
ATOM      5  C   UNL     1       2.499   4.242  18.467  0.00  0.00    +0.000 A 
ATOM      6  C   UNL     1       2.296   5.608  18.714  0.00  0.00    +0.000 A 
ATOM      7  C   UNL     1       2.979   3.738  17.175  0.00  0.00    +0.000 C 
ATOM      8  O   UNL     1       2.241   3.271  16.327  0.00  0.00    +0.000 OA
ATOM      9  C   UNL     1       4.429   3.861  17.037  0.00  0.00    +0.000 A 
ATOM     10  C   UNL     1       4.950   4.230  15.798  0.00  0.00    +0.000 A 
ATOM     11  C   UNL     1       6.201   4.825  15.766  0.00  0.00    +0.000 A 
ATOM     12  C   UNL     1       6.886   5.056  16.965  0.00  0.00    +0.000 A 
ATOM     13  C   UNL     1       6.369   4.606  18.194  0.00  0.00    +0.000 A 
ATOM     14  C   UNL     1       5.150   3.931  18.238  0.00  0.00    +0.000 A 
ATOM     15  C   UNL     1       4.460   3.415  19.495  0.00  0.00    +0.000 C 
ATOM     16  O   UNL     1       5.100   2.996  20.449  0.00  0.00    +0.000 OA
ENDROOT
BRANCH   3  17
ATOM     17  O   UNL     1       1.938   2.723  21.546  0.00  0.00    +0.000 OA
ATOM     18  H   UNL     1       2.468   1.940  21.315  0.00  0.00    +0.000 HD
ENDBRANCH   3  17
BRANCH  13  19
ATOM     19  O   UNL     1       7.012   4.957  19.345  0.00  0.00    +0.000 OA
ATOM     20  H   UNL     1       6.552   5.705  19.762  0.00  0.00    +0.000 HD
ENDBRANCH  13  19
BRANCH   1  21
ATOM     21  C   UNL     1       2.043   7.506  20.401  0.00  0.00    +0.000 C 
BRANCH  21  22
ATOM     22  O   UNL     1       0.884   7.828  21.201  0.00  0.00    +0.000 OA
BRANCH  22  23
ATOM     23  C   UNL     1       0.963   8.975  21.921  0.00  0.00    +0.000 C 
ATOM     24  O   UNL     1       1.903   9.305  22.635  0.00  0.00    +0.000 OA
BRANCH  23  26
ATOM     25  C   UNL     1      -0.613  10.751  22.539  0.00  0.00    +0.000 C 
ATOM     26  C   UNL     1      -0.226   9.825  21.642  0.00  0.00    +0.000 C 
BRANCH  25  30
ATOM     27  C   UNL     1      -3.925  13.453  22.006  0.00  0.00    +0.000 A 
ATOM     28  C   UNL     1      -3.026  13.195  20.973  0.00  0.00    +0.000 A 
ATOM     29  C   UNL     1      -1.956  12.312  21.162  0.00  0.00    +0.000 A 
ATOM     30  C   UNL     1      -1.743  11.695  22.402  0.00  0.00    +0.000 A 
ATOM     31  C   UNL     1      -2.654  11.955  23.433  0.00  0.00    +0.000 A 
ATOM     32  C   UNL     1      -3.739  12.831  23.239  0.00  0.00    +0.000 A 
BRANCH  27  34
ATOM     33  C   UNL     1      -5.449  14.271  20.383  0.00  0.00    +0.000 C 
ATOM     34  O   UNL     1      -4.915  14.347  21.700  0.00  0.00    +0.000 OA
ENDBRANCH  27  34
ENDBRANCH  25  30
ENDBRANCH  23  26
ENDBRANCH  22  23
ENDBRANCH  21  22
ENDBRANCH   1  21
TORSDOF 8
ENDMDL
MODEL 8
REMARK VINA RESULT:      -8.5      3.022      4.020
REMARK  Name = 
REMARK  9 active torsions:
REMARK  status: ('A' for Active; 'I' for Inactive)
REMARK    1  A    between atoms: C_1  and  O_2
REMARK    2  A    between atoms: O_2  and  C_3
REMARK    3  A    between atoms: C_6  and  C_7
REMARK    4  A    between atoms: C_8  and  C_9
REMARK    5  A    between atoms: C_9  and  O_11
REMARK    6  A    between atoms: O_11  and  C_12
REMARK    7  A    between atoms: C_12  and  C_13
REMARK    8  A    between atoms: C_15  and  O_16
REMARK    9  A    between atoms: C_26  and  O_27
REMARK                            x       y       z     vdW  Elec       q    Type
REMARK                         _______ _______ _______ _____ _____    ______ ____
ROOT
ATOM      1  C   UNL     1       1.986   5.757  20.066  0.00  0.00    +0.000 A 
ATOM      2  C   UNL     1       1.889   4.749  21.034  0.00  0.00    +0.000 A 
ATOM      3  C   UNL     1       2.368   3.478  20.729  0.00  0.00    +0.000 A 
ATOM      4  C   UNL     1       2.993   3.255  19.511  0.00  0.00    +0.000 A 
ATOM      5  C   UNL     1       2.514   4.016  18.466  0.00  0.00    +0.000 A 
ATOM      6  C   UNL     1       2.220   5.361  18.736  0.00  0.00    +0.000 A 
ATOM      7  C   UNL     1       3.027   3.568  17.166  0.00  0.00    +0.000 C 
ATOM      8  O   UNL     1       2.322   3.069  16.308  0.00  0.00    +0.000 OA
ATOM      9  C   UNL     1       4.465   3.790  17.033  0.00  0.00    +0.000 A 
ATOM     10  C   UNL     1       4.962   4.215  15.801  0.00  0.00    +0.000 A 
ATOM     11  C   UNL     1       6.170   4.893  15.782  0.00  0.00    +0.000 A 
ATOM     12  C   UNL     1       6.838   5.147  16.987  0.00  0.00    +0.000 A 
ATOM     13  C   UNL     1       6.350   4.642  18.207  0.00  0.00    +0.000 A 
ATOM     14  C   UNL     1       5.179   3.887  18.236  0.00  0.00    +0.000 A 
ATOM     15  C   UNL     1       4.525   3.303  19.482  0.00  0.00    +0.000 C 
ATOM     16  O   UNL     1       5.190   2.911  20.430  0.00  0.00    +0.000 OA
ENDROOT
BRANCH   3  17
ATOM     17  O   UNL     1       2.052   2.408  21.516  0.00  0.00    +0.000 OA
ATOM     18  H   UNL     1       1.317   1.926  21.097  0.00  0.00    +0.000 HD
ENDBRANCH   3  17
BRANCH  13  19
ATOM     19  O   UNL     1       6.967   5.014  19.364  0.00  0.00    +0.000 OA
ATOM     20  H   UNL     1       7.255   4.223  19.852  0.00  0.00    +0.000 HD
ENDBRANCH  13  19
BRANCH   1  21
ATOM     21  C   UNL     1       1.840   7.207  20.456  0.00  0.00    +0.000 C 
BRANCH  21  22
ATOM     22  O   UNL     1       2.344   8.098  19.437  0.00  0.00    +0.000 OA
BRANCH  22  23
ATOM     23  C   UNL     1       1.446   8.974  18.920  0.00  0.00    +0.000 C 
ATOM     24  O   UNL     1       1.196   9.121  17.729  0.00  0.00    +0.000 OA
BRANCH  23  26
ATOM     25  C   UNL     1       0.782  11.015  20.109  0.00  0.00    +0.000 C 
ATOM     26  C   UNL     1       0.736   9.673  20.026  0.00  0.00    +0.000 C 
BRANCH  25  30
ATOM     27  C   UNL     1      -1.178  13.368  23.138  0.00  0.00    +0.000 A 
ATOM     28  C   UNL     1      -1.454  12.012  22.982  0.00  0.00    +0.000 A 
ATOM     29  C   UNL     1      -0.806  11.260  21.994  0.00  0.00    +0.000 A 
ATOM     30  C   UNL     1       0.107  11.861  21.117  0.00  0.00    +0.000 A 
ATOM     31  C   UNL     1       0.383  13.223  21.284  0.00  0.00    +0.000 A 
ATOM     32  C   UNL     1      -0.257  13.976  22.287  0.00  0.00    +0.000 A 
BRANCH  27  34
ATOM     33  C   UNL     1      -1.335  15.201  24.636  0.00  0.00    +0.000 C 
ATOM     34  O   UNL     1      -1.890  13.993  24.125  0.00  0.00    +0.000 OA
ENDBRANCH  27  34
ENDBRANCH  25  30
ENDBRANCH  23  26
ENDBRANCH  22  23
ENDBRANCH  21  22
ENDBRANCH   1  21
TORSDOF 8
ENDMDL
MODEL 9
REMARK VINA RESULT:      -8.4      1.904      2.672
REMARK  Name = 
REMARK  9 active torsions:
REMARK  status: ('A' for Active; 'I' for Inactive)
REMARK    1  A    between atoms: C_1  and  O_2
REMARK    2  A    between atoms: O_2  and  C_3
REMARK    3  A    between atoms: C_6  and  C_7
REMARK    4  A    between atoms: C_8  and  C_9
REMARK    5  A    between atoms: C_9  and  O_11
REMARK    6  A    between atoms: O_11  and  C_12
REMARK    7  A    between atoms: C_12  and  C_13
REMARK    8  A    between atoms: C_15  and  O_16
REMARK    9  A    between atoms: C_26  and  O_27
REMARK                            x       y       z     vdW  Elec       q    Type
REMARK                         _______ _______ _______ _____ _____    ______ ____
ROOT
ATOM      1  C   UNL     1       2.114   6.487  19.485  0.00  0.00    +0.000 A 
ATOM      2  C   UNL     1       2.105   5.710  20.650  0.00  0.00    +0.000 A 
ATOM      3  C   UNL     1       2.633   4.422  20.601  0.00  0.00    +0.000 A 
ATOM      4  C   UNL     1       3.219   3.966  19.431  0.00  0.00    +0.000 A 
ATOM      5  C   UNL     1       2.661   4.463  18.271  0.00  0.00    +0.000 A 
ATOM      6  C   UNL     1       2.313   5.822  18.261  0.00  0.00    +0.000 A 
ATOM      7  C   UNL     1       3.144   3.765  17.074  0.00  0.00    +0.000 C 
ATOM      8  O   UNL     1       2.430   3.065  16.380  0.00  0.00    +0.000 OA
ATOM      9  C   UNL     1       4.563   4.009  16.825  0.00  0.00    +0.000 A 
ATOM     10  C   UNL     1       4.988   4.176  15.508  0.00  0.00    +0.000 A 
ATOM     11  C   UNL     1       6.160   4.880  15.284  0.00  0.00    +0.000 A 
ATOM     12  C   UNL     1       6.862   5.415  16.371  0.00  0.00    +0.000 A 
ATOM     13  C   UNL     1       6.450   5.167  17.694  0.00  0.00    +0.000 A 
ATOM     14  C   UNL     1       5.318   4.391  17.943  0.00  0.00    +0.000 A 
ATOM     15  C   UNL     1       4.744   4.066  19.316  0.00  0.00    +0.000 C 
ATOM     16  O   UNL     1       5.465   3.915  20.292  0.00  0.00    +0.000 OA
ENDROOT
BRANCH   3  17
ATOM     17  O   UNL     1       2.401   3.537  21.615  0.00  0.00    +0.000 OA
ATOM     18  H   UNL     1       1.654   3.867  22.144  0.00  0.00    +0.000 HD
ENDBRANCH   3  17
BRANCH  13  19
ATOM     19  O   UNL     1       7.094   5.805  18.713  0.00  0.00    +0.000 OA
ATOM     20  H   UNL     1       6.455   6.047  19.404  0.00  0.00    +0.000 HD
ENDBRANCH  13  19
BRANCH   1  21
ATOM     21  C   UNL     1       1.913   7.981  19.562  0.00  0.00    +0.000 C 
BRANCH  21  22
ATOM     22  O   UNL     1       2.373   8.653  18.369  0.00  0.00    +0.000 OA
BRANCH  22  23
ATOM     23  C   UNL     1       1.833   9.876  18.134  0.00  0.00    +0.000 C 
ATOM     24  O   UNL     1       2.463  10.907  17.928  0.00  0.00    +0.000 OA
BRANCH  23  26
ATOM     25  C   UNL     1      -0.414  10.845  18.320  0.00  0.00    +0.000 C 
ATOM     26  C   UNL     1       0.350   9.764  18.071  0.00  0.00    +0.000 C 
BRANCH  25  30
ATOM     27  C   UNL     1      -4.719  10.900  18.172  0.00  0.00    +0.000 A 
ATOM     28  C   UNL     1      -3.984   9.902  17.536  0.00  0.00    +0.000 A 
ATOM     29  C   UNL     1      -2.585   9.897  17.596  0.00  0.00    +0.000 A 
ATOM     30  C   UNL     1      -1.890  10.913  18.266  0.00  0.00    +0.000 A 
ATOM     31  C   UNL     1      -2.636  11.909  18.907  0.00  0.00    +0.000 A 
ATOM     32  C   UNL     1      -4.043  11.907  18.860  0.00  0.00    +0.000 A 
BRANCH  27  34
ATOM     33  C   UNL     1      -6.857  11.768  18.720  0.00  0.00    +0.000 C 
ATOM     34  O   UNL     1      -6.075  10.803  18.023  0.00  0.00    +0.000 OA
ENDBRANCH  27  34
ENDBRANCH  25  30
ENDBRANCH  23  26
ENDBRANCH  22  23
ENDBRANCH  21  22
ENDBRANCH   1  21
TORSDOF 8
ENDMDL
