MODEL 1
REMARK VINA RESULT:      -7.8      0.000      0.000
REMARK  Name = 
REMARK  5 active torsions:
REMARK  status: ('A' for Active; 'I' for Inactive)
REMARK    1  A    between atoms: C_2  and  C_20
REMARK    2  A    between atoms: N_3  and  C_4
REMARK    3  A    between atoms: N_10  and  C_11
REMARK    4  A    between atoms: C_11  and  C_12
REMARK    5  A    between atoms: C_20  and  O_21
REMARK                            x       y       z     vdW  Elec       q    Type
REMARK                         _______ _______ _______ _____ _____    ______ ____
ROOT
ATOM      1  C   UNL     1       3.665   3.845  19.380  0.00  0.00    +0.000 C 
ATOM      2  C   UNL     1       3.041   2.429  19.388  0.00  0.00    +0.000 C 
ATOM      3  C   UNL     1       1.998   2.230  20.497  0.00  0.00    +0.000 C 
ATOM      4  C   UNL     1       0.929   3.328  20.492  0.00  0.00    +0.000 C 
ATOM      5  C   UNL     1       1.626   4.670  20.583  0.00  0.00    +0.000 C 
ATOM      6  C   UNL     1       0.761   5.912  20.531  0.00  0.00    +0.000 C 
ATOM      7  N   UNL     1       1.693   6.993  20.132  0.00  0.00    +0.000 NA
ATOM      8  C   UNL     1       2.942   6.350  19.634  0.00  0.00    +0.000 C 
ATOM      9  C   UNL     1       2.552   4.895  19.401  0.00  0.00    +0.000 C 
ENDROOT
BRANCH   1  12
ATOM     10  O   UNL     1       6.318   4.761  19.404  0.00  0.00    +0.000 OA
ATOM     11  C   UNL     1       5.830   4.451  18.312  0.00  0.00    +0.000 C 
ATOM     12  N   UNL     1       4.520   4.011  18.209  0.00  0.00    +0.000 N 
ATOM     13  H   UNL     1       4.240   3.552  17.351  0.00  0.00    +0.000 HD
BRANCH  11  14
ATOM     14  C   UNL     1       6.666   4.502  16.954  0.00  0.00    +0.000 C 
ATOM     15  C   UNL     1       6.500   5.859  16.186  0.00  0.00    +0.000 C 
ATOM     16  C   UNL     1       6.512   5.067  14.871  0.00  0.00    +0.000 C 
ATOM     17  C   UNL     1       6.072   3.831  15.671  0.00  0.00    +0.000 C 
BRANCH  14  18
ATOM     18  O   UNL     1       8.057   4.139  17.196  0.00  0.00    +0.000 OA
ATOM     19  H   UNL     1       8.378   3.852  16.320  0.00  0.00    +0.000 HD
ENDBRANCH  14  18
ENDBRANCH  11  14
ENDBRANCH   1  12
BRANCH   7  20
ATOM     20  C   UNL     1       1.993   7.926  21.233  0.00  0.00    +0.000 C 
BRANCH  20  21
ATOM     21  C   UNL     1       0.960   9.019  21.429  0.00  0.00    +0.000 A 
ATOM     22  C   UNL     1       0.481   9.743  20.324  0.00  0.00    +0.000 A 
ATOM     23  C   UNL     1      -0.473  10.749  20.490  0.00  0.00    +0.000 A 
ATOM     24  C   UNL     1      -0.964  11.041  21.761  0.00  0.00    +0.000 A 
ATOM     25  C   UNL     1      -0.501  10.328  22.866  0.00  0.00    +0.000 A 
ATOM     26  C   UNL     1       0.458   9.322  22.702  0.00  0.00    +0.000 A 
ENDBRANCH  20  21
ENDBRANCH   7  20
TORSDOF 5
ENDMDL
MODEL 2
REMARK VINA RESULT:      -7.7      0.731      1.309
REMARK  Name = 
REMARK  5 active torsions:
REMARK  status: ('A' for Active; 'I' for Inactive)
REMARK    1  A    between atoms: C_2  and  C_20
REMARK    2  A    between atoms: N_3  and  C_4
REMARK    3  A    between atoms: N_10  and  C_11
REMARK    4  A    between atoms: C_11  and  C_12
REMARK    5  A    between atoms: C_20  and  O_21
REMARK                            x       y       z     vdW  Elec       q    Type
REMARK                         _______ _______ _______ _____ _____    ______ ____
ROOT
ATOM      1  C   UNL     1       4.081   4.081  19.801  0.00  0.00    +0.000 C 
ATOM      2  C   UNL     1       3.687   2.620  20.124  0.00  0.00    +0.000 C 
ATOM      3  C   UNL     1       2.686   2.502  21.282  0.00  0.00    +0.000 C 
ATOM      4  C   UNL     1       1.458   3.397  21.082  0.00  0.00    +0.000 C 
ATOM      5  C   UNL     1       1.937   4.819  20.870  0.00  0.00    +0.000 C 
ATOM      6  C   UNL     1       0.889   5.875  20.587  0.00  0.00    +0.000 C 
ATOM      7  N   UNL     1       1.641   6.977  19.942  0.00  0.00    +0.000 NA
ATOM      8  C   UNL     1       2.976   6.442  19.550  0.00  0.00    +0.000 C 
ATOM      9  C   UNL     1       2.818   4.929  19.638  0.00  0.00    +0.000 C 
ENDROOT
BRANCH   1  12
ATOM     10  O   UNL     1       6.641   5.216  19.600  0.00  0.00    +0.000 OA
ATOM     11  C   UNL     1       6.168   4.688  18.587  0.00  0.00    +0.000 C 
ATOM     12  N   UNL     1       4.902   4.125  18.595  0.00  0.00    +0.000 N 
ATOM     13  H   UNL     1       4.652   3.509  17.831  0.00  0.00    +0.000 HD
BRANCH  11  14
ATOM     14  C   UNL     1       6.977   4.588  17.215  0.00  0.00    +0.000 C 
ATOM     15  C   UNL     1       6.990   5.935  16.414  0.00  0.00    +0.000 C 
ATOM     16  C   UNL     1       6.865   5.119  15.120  0.00  0.00    +0.000 C 
ATOM     17  C   UNL     1       6.269   3.977  15.960  0.00  0.00    +0.000 C 
BRANCH  14  18
ATOM     18  O   UNL     1       8.306   4.037  17.445  0.00  0.00    +0.000 OA
ATOM     19  H   UNL     1       8.161   3.072  17.451  0.00  0.00    +0.000 HD
ENDBRANCH  14  18
ENDBRANCH  11  14
ENDBRANCH   1  12
BRANCH   7  20
ATOM     20  C   UNL     1       1.790   8.156  20.815  0.00  0.00    +0.000 C 
BRANCH  20  21
ATOM     21  C   UNL     1       0.844   9.297  20.495  0.00  0.00    +0.000 A 
ATOM     22  C   UNL     1       0.168   9.965  21.531  0.00  0.00    +0.000 A 
ATOM     23  C   UNL     1      -0.703  11.019  21.251  0.00  0.00    +0.000 A 
ATOM     24  C   UNL     1      -0.906  11.424  19.934  0.00  0.00    +0.000 A 
ATOM     25  C   UNL     1      -0.240  10.773  18.896  0.00  0.00    +0.000 A 
ATOM     26  C   UNL     1       0.630   9.714  19.174  0.00  0.00    +0.000 A 
ENDBRANCH  20  21
ENDBRANCH   7  20
TORSDOF 5
ENDMDL
MODEL 3
REMARK VINA RESULT:      -7.7      3.972      8.606
REMARK  Name = 
REMARK  5 active torsions:
REMARK  status: ('A' for Active; 'I' for Inactive)
REMARK    1  A    between atoms: C_2  and  C_20
REMARK    2  A    between atoms: N_3  and  C_4
REMARK    3  A    between atoms: N_10  and  C_11
REMARK    4  A    between atoms: C_11  and  C_12
REMARK    5  A    between atoms: C_20  and  O_21
REMARK                            x       y       z     vdW  Elec       q    Type
REMARK                         _______ _______ _______ _____ _____    ______ ____
ROOT
ATOM      1  C   UNL     1       5.664   4.317  18.239  0.00  0.00    +0.000 C 
ATOM      2  C   UNL     1       6.147   5.229  19.393  0.00  0.00    +0.000 C 
ATOM      3  C   UNL     1       7.509   5.884  19.121  0.00  0.00    +0.000 C 
ATOM      4  C   UNL     1       7.548   6.602  17.768  0.00  0.00    +0.000 C 
ATOM      5  C   UNL     1       7.155   5.609  16.692  0.00  0.00    +0.000 C 
ATOM      6  C   UNL     1       7.064   6.119  15.270  0.00  0.00    +0.000 C 
ATOM      7  N   UNL     1       6.205   5.129  14.577  0.00  0.00    +0.000 NA
ATOM      8  C   UNL     1       5.547   4.296  15.623  0.00  0.00    +0.000 C 
ATOM      9  C   UNL     1       5.749   5.078  16.915  0.00  0.00    +0.000 C 
ENDROOT
BRANCH   1  12
ATOM     10  O   UNL     1       4.917   2.326  20.071  0.00  0.00    +0.000 OA
ATOM     11  C   UNL     1       4.016   2.885  19.435  0.00  0.00    +0.000 C 
ATOM     12  N   UNL     1       4.300   3.862  18.495  0.00  0.00    +0.000 N 
ATOM     13  H   UNL     1       3.539   4.448  18.175  0.00  0.00    +0.000 HD
BRANCH  11  14
ATOM     14  C   UNL     1       2.472   2.552  19.663  0.00  0.00    +0.000 C 
ATOM     15  C   UNL     1       1.536   3.779  19.386  0.00  0.00    +0.000 C 
ATOM     16  C   UNL     1       0.670   3.332  20.572  0.00  0.00    +0.000 C 
ATOM     17  C   UNL     1       1.896   2.581  21.117  0.00  0.00    +0.000 C 
BRANCH  14  18
ATOM     18  O   UNL     1       2.093   1.355  18.923  0.00  0.00    +0.000 OA
ATOM     19  H   UNL     1       1.760   1.702  18.073  0.00  0.00    +0.000 HD
ENDBRANCH  14  18
ENDBRANCH  11  14
ENDBRANCH   1  12
BRANCH   7  20
ATOM     20  C   UNL     1       6.956   4.281  13.633  0.00  0.00    +0.000 C 
BRANCH  20  21
ATOM     21  C   UNL     1       6.091   3.529  12.641  0.00  0.00    +0.000 A 
ATOM     22  C   UNL     1       6.555   2.333  12.066  0.00  0.00    +0.000 A 
ATOM     23  C   UNL     1       5.767   1.629  11.153  0.00  0.00    +0.000 A 
ATOM     24  C   UNL     1       4.505   2.107  10.807  0.00  0.00    +0.000 A 
ATOM     25  C   UNL     1       4.031   3.290  11.372  0.00  0.00    +0.000 A 
ATOM     26  C   UNL     1       4.820   3.999  12.284  0.00  0.00    +0.000 A 
ENDBRANCH  20  21
ENDBRANCH   7  20
TORSDOF 5
ENDMDL
MODEL 4
REMARK VINA RESULT:      -7.7      0.375      1.043
REMARK  Name = 
REMARK  5 active torsions:
REMARK  status: ('A' for Active; 'I' for Inactive)
REMARK    1  A    between atoms: C_2  and  C_20
REMARK    2  A    between atoms: N_3  and  C_4
REMARK    3  A    between atoms: N_10  and  C_11
REMARK    4  A    between atoms: C_11  and  C_12
REMARK    5  A    between atoms: C_20  and  O_21
REMARK                            x       y       z     vdW  Elec       q    Type
REMARK                         _______ _______ _______ _____ _____    ______ ____
ROOT
ATOM      1  C   UNL     1       3.678   4.155  19.372  0.00  0.00    +0.000 C 
ATOM      2  C   UNL     1       3.125   2.714  19.478  0.00  0.00    +0.000 C 
ATOM      3  C   UNL     1       2.191   2.509  20.679  0.00  0.00    +0.000 C 
ATOM      4  C   UNL     1       1.074   3.557  20.733  0.00  0.00    +0.000 C 
ATOM      5  C   UNL     1       1.713   4.931  20.721  0.00  0.00    +0.000 C 
ATOM      6  C   UNL     1       0.789   6.131  20.705  0.00  0.00    +0.000 C 
ATOM      7  N   UNL     1       1.632   7.237  20.193  0.00  0.00    +0.000 NA
ATOM      8  C   UNL     1       2.862   6.633  19.609  0.00  0.00    +0.000 C 
ATOM      9  C   UNL     1       2.523   5.155  19.456  0.00  0.00    +0.000 C 
ENDROOT
BRANCH   1  12
ATOM     10  O   UNL     1       6.455   4.499  19.153  0.00  0.00    +0.000 OA
ATOM     11  C   UNL     1       5.800   4.462  18.106  0.00  0.00    +0.000 C 
ATOM     12  N   UNL     1       4.422   4.317  18.126  0.00  0.00    +0.000 N 
ATOM     13  H   UNL     1       3.960   4.059  17.263  0.00  0.00    +0.000 HD
BRANCH  11  14
ATOM     14  C   UNL     1       6.480   4.545  16.665  0.00  0.00    +0.000 C 
ATOM     15  C   UNL     1       5.963   5.758  15.816  0.00  0.00    +0.000 C 
ATOM     16  C   UNL     1       6.022   4.858  14.573  0.00  0.00    +0.000 C 
ATOM     17  C   UNL     1       5.927   3.644  15.512  0.00  0.00    +0.000 C 
BRANCH  14  18
ATOM     18  O   UNL     1       7.932   4.496  16.782  0.00  0.00    +0.000 OA
ATOM     19  H   UNL     1       8.095   3.699  17.322  0.00  0.00    +0.000 HD
ENDBRANCH  14  18
ENDBRANCH  11  14
ENDBRANCH   1  12
BRANCH   7  20
ATOM     20  C   UNL     1       1.980   8.221  21.235  0.00  0.00    +0.000 C 
BRANCH  20  21
ATOM     21  C   UNL     1       0.898   9.246  21.517  0.00  0.00    +0.000 A 
ATOM     22  C   UNL     1       0.276   9.285  22.776  0.00  0.00    +0.000 A 
ATOM     23  C   UNL     1      -0.719  10.226  23.051  0.00  0.00    +0.000 A 
ATOM     24  C   UNL     1      -1.101  11.142  22.073  0.00  0.00    +0.000 A 
ATOM     25  C   UNL     1      -0.489  11.117  20.820  0.00  0.00    +0.000 A 
ATOM     26  C   UNL     1       0.505  10.173  20.543  0.00  0.00    +0.000 A 
ENDBRANCH  20  21
ENDBRANCH   7  20
TORSDOF 5
ENDMDL
MODEL 5
REMARK VINA RESULT:      -7.5      2.355      6.858
REMARK  Name = 
REMARK  5 active torsions:
REMARK  status: ('A' for Active; 'I' for Inactive)
REMARK    1  A    between atoms: C_2  and  C_20
REMARK    2  A    between atoms: N_3  and  C_4
REMARK    3  A    between atoms: N_10  and  C_11
REMARK    4  A    between atoms: C_11  and  C_12
REMARK    5  A    between atoms: C_20  and  O_21
REMARK                            x       y       z     vdW  Elec       q    Type
REMARK                         _______ _______ _______ _____ _____    ______ ____
ROOT
ATOM      1  C   UNL     1       1.730   5.094  19.896  0.00  0.00    +0.000 C 
ATOM      2  C   UNL     1       0.670   4.021  20.243  0.00  0.00    +0.000 C 
ATOM      3  C   UNL     1       0.899   2.685  19.521  0.00  0.00    +0.000 C 
ATOM      4  C   UNL     1       2.327   2.162  19.704  0.00  0.00    +0.000 C 
ATOM      5  C   UNL     1       3.289   3.241  19.250  0.00  0.00    +0.000 C 
ATOM      6  C   UNL     1       4.771   2.965  19.401  0.00  0.00    +0.000 C 
ATOM      7  N   UNL     1       5.400   4.307  19.375  0.00  0.00    +0.000 NA
ATOM      8  C   UNL     1       4.318   5.314  19.561  0.00  0.00    +0.000 C 
ATOM      9  C   UNL     1       3.131   4.507  20.073  0.00  0.00    +0.000 C 
ENDROOT
BRANCH   1  12
ATOM     10  O   UNL     1       1.835   7.761  19.027  0.00  0.00    +0.000 OA
ATOM     11  C   UNL     1       1.593   7.559  20.222  0.00  0.00    +0.000 C 
ATOM     12  N   UNL     1       1.545   6.273  20.737  0.00  0.00    +0.000 N 
ATOM     13  H   UNL     1       1.120   6.142  21.646  0.00  0.00    +0.000 HD
BRANCH  11  14
ATOM     14  C   UNL     1       1.289   8.742  21.248  0.00  0.00    +0.000 C 
ATOM     15  C   UNL     1      -0.179   8.711  21.799  0.00  0.00    +0.000 C 
ATOM     16  C   UNL     1      -0.189  10.245  21.737  0.00  0.00    +0.000 C 
ATOM     17  C   UNL     1       0.931  10.159  20.687  0.00  0.00    +0.000 C 
BRANCH  14  18
ATOM     18  O   UNL     1       2.301   8.782  22.296  0.00  0.00    +0.000 OA
ATOM     19  H   UNL     1       3.094   8.407  21.868  0.00  0.00    +0.000 HD
ENDBRANCH  14  18
ENDBRANCH  11  14
ENDBRANCH   1  12
BRANCH   7  20
ATOM     20  C   UNL     1       6.144   4.566  18.129  0.00  0.00    +0.000 C 
BRANCH  20  21
ATOM     21  C   UNL     1       6.826   5.919  18.075  0.00  0.00    +0.000 A 
ATOM     22  C   UNL     1       7.868   6.220  18.968  0.00  0.00    +0.000 A 
ATOM     23  C   UNL     1       8.508   7.460  18.927  0.00  0.00    +0.000 A 
ATOM     24  C   UNL     1       8.117   8.415  17.990  0.00  0.00    +0.000 A 
ATOM     25  C   UNL     1       7.087   8.129  17.095  0.00  0.00    +0.000 A 
ATOM     26  C   UNL     1       6.443   6.888  17.138  0.00  0.00    +0.000 A 
ENDBRANCH  20  21
ENDBRANCH   7  20
TORSDOF 5
ENDMDL
MODEL 6
REMARK VINA RESULT:      -7.3      1.039      1.174
REMARK  Name = 
REMARK  5 active torsions:
REMARK  status: ('A' for Active; 'I' for Inactive)
REMARK    1  A    between atoms: C_2  and  C_20
REMARK    2  A    between atoms: N_3  and  C_4
REMARK    3  A    between atoms: N_10  and  C_11
REMARK    4  A    between atoms: C_11  and  C_12
REMARK    5  A    between atoms: C_20  and  O_21
REMARK                            x       y       z     vdW  Elec       q    Type
REMARK                         _______ _______ _______ _____ _____    ______ ____
ROOT
ATOM      1  C   UNL     1       4.352   4.305  19.313  0.00  0.00    +0.000 C 
ATOM      2  C   UNL     1       4.227   2.787  19.584  0.00  0.00    +0.000 C 
ATOM      3  C   UNL     1       3.478   2.461  20.884  0.00  0.00    +0.000 C 
ATOM      4  C   UNL     1       2.124   3.173  20.969  0.00  0.00    +0.000 C 
ATOM      5  C   UNL     1       2.357   4.660  20.789  0.00  0.00    +0.000 C 
ATOM      6  C   UNL     1       1.140   5.561  20.774  0.00  0.00    +0.000 C 
ATOM      7  N   UNL     1       1.605   6.795  20.097  0.00  0.00    +0.000 NA
ATOM      8  C   UNL     1       2.907   6.485  19.441  0.00  0.00    +0.000 C 
ATOM      9  C   UNL     1       2.976   4.963  19.436  0.00  0.00    +0.000 C 
ENDROOT
BRANCH   1  12
ATOM     10  O   UNL     1       6.605   5.884  18.754  0.00  0.00    +0.000 OA
ATOM     11  C   UNL     1       6.056   5.314  17.804  0.00  0.00    +0.000 C 
ATOM     12  N   UNL     1       4.926   4.534  17.990  0.00  0.00    +0.000 N 
ATOM     13  H   UNL     1       4.654   3.908  17.243  0.00  0.00    +0.000 HD
BRANCH  11  14
ATOM     14  C   UNL     1       6.614   5.404  16.312  0.00  0.00    +0.000 C 
ATOM     15  C   UNL     1       5.483   5.623  15.249  0.00  0.00    +0.000 C 
ATOM     16  C   UNL     1       6.248   4.687  14.303  0.00  0.00    +0.000 C 
ATOM     17  C   UNL     1       6.930   4.080  15.540  0.00  0.00    +0.000 C 
BRANCH  14  18
ATOM     18  O   UNL     1       7.689   6.385  16.227  0.00  0.00    +0.000 OA
ATOM     19  H   UNL     1       8.120   6.335  17.101  0.00  0.00    +0.000 HD
ENDBRANCH  14  18
ENDBRANCH  11  14
ENDBRANCH   1  12
BRANCH   7  20
ATOM     20  C   UNL     1       1.747   7.936  21.021  0.00  0.00    +0.000 C 
BRANCH  20  21
ATOM     21  C   UNL     1       0.886   9.135  20.675  0.00  0.00    +0.000 A 
ATOM     22  C   UNL     1       0.747   9.540  19.336  0.00  0.00    +0.000 A 
ATOM     23  C   UNL     1      -0.046  10.640  19.003  0.00  0.00    +0.000 A 
ATOM     24  C   UNL     1      -0.712  11.347  20.001  0.00  0.00    +0.000 A 
ATOM     25  C   UNL     1      -0.586  10.955  21.333  0.00  0.00    +0.000 A 
ATOM     26  C   UNL     1       0.210   9.855  21.669  0.00  0.00    +0.000 A 
ENDBRANCH  20  21
ENDBRANCH   7  20
TORSDOF 5
ENDMDL
MODEL 7
REMARK VINA RESULT:      -7.2      3.928      8.612
REMARK  Name = 
REMARK  5 active torsions:
REMARK  status: ('A' for Active; 'I' for Inactive)
REMARK    1  A    between atoms: C_2  and  C_20
REMARK    2  A    between atoms: N_3  and  C_4
REMARK    3  A    between atoms: N_10  and  C_11
REMARK    4  A    between atoms: C_11  and  C_12
REMARK    5  A    between atoms: C_20  and  O_21
REMARK                            x       y       z     vdW  Elec       q    Type
REMARK                         _______ _______ _______ _____ _____    ______ ____
ROOT
ATOM      1  C   UNL     1       6.335   4.317  18.443  0.00  0.00    +0.000 C 
ATOM      2  C   UNL     1       6.725   5.455  19.417  0.00  0.00    +0.000 C 
ATOM      3  C   UNL     1       7.771   6.418  18.839  0.00  0.00    +0.000 C 
ATOM      4  C   UNL     1       7.369   6.955  17.461  0.00  0.00    +0.000 C 
ATOM      5  C   UNL     1       7.102   5.773  16.551  0.00  0.00    +0.000 C 
ATOM      6  C   UNL     1       6.625   6.068  15.145  0.00  0.00    +0.000 C 
ATOM      7  N   UNL     1       5.984   4.808  14.701  0.00  0.00    +0.000 NA
ATOM      8  C   UNL     1       5.783   3.956  15.908  0.00  0.00    +0.000 C 
ATOM      9  C   UNL     1       5.969   4.911  17.081  0.00  0.00    +0.000 C 
ENDROOT
BRANCH   1  12
ATOM     10  O   UNL     1       3.697   5.224  18.755  0.00  0.00    +0.000 OA
ATOM     11  C   UNL     1       3.946   4.061  19.093  0.00  0.00    +0.000 C 
ATOM     12  N   UNL     1       5.227   3.542  18.992  0.00  0.00    +0.000 N 
ATOM     13  H   UNL     1       5.338   2.538  19.053  0.00  0.00    +0.000 HD
BRANCH  11  14
ATOM     14  C   UNL     1       2.822   3.067  19.635  0.00  0.00    +0.000 C 
ATOM     15  C   UNL     1       1.490   3.801  20.015  0.00  0.00    +0.000 C 
ATOM     16  C   UNL     1       1.351   2.843  21.206  0.00  0.00    +0.000 C 
ATOM     17  C   UNL     1       2.869   2.613  21.132  0.00  0.00    +0.000 C 
BRANCH  14  18
ATOM     18  O   UNL     1       2.630   1.958  18.709  0.00  0.00    +0.000 OA
ATOM     19  H   UNL     1       2.257   1.250  19.268  0.00  0.00    +0.000 HD
ENDBRANCH  14  18
ENDBRANCH  11  14
ENDBRANCH   1  12
BRANCH   7  20
ATOM     20  C   UNL     1       6.774   4.090  13.684  0.00  0.00    +0.000 C 
BRANCH  20  21
ATOM     21  C   UNL     1       5.946   3.384  12.628  0.00  0.00    +0.000 A 
ATOM     22  C   UNL     1       4.699   3.905  12.245  0.00  0.00    +0.000 A 
ATOM     23  C   UNL     1       3.928   3.267  11.272  0.00  0.00    +0.000 A 
ATOM     24  C   UNL     1       4.395   2.103  10.665  0.00  0.00    +0.000 A 
ATOM     25  C   UNL     1       5.633   1.577  11.033  0.00  0.00    +0.000 A 
ATOM     26  C   UNL     1       6.404   2.213  12.010  0.00  0.00    +0.000 A 
ENDBRANCH  20  21
ENDBRANCH   7  20
TORSDOF 5
ENDMDL
MODEL 8
REMARK VINA RESULT:      -7.2      1.135      1.619
REMARK  Name = 
REMARK  5 active torsions:
REMARK  status: ('A' for Active; 'I' for Inactive)
REMARK    1  A    between atoms: C_2  and  C_20
REMARK    2  A    between atoms: N_3  and  C_4
REMARK    3  A    between atoms: N_10  and  C_11
REMARK    4  A    between atoms: C_11  and  C_12
REMARK    5  A    between atoms: C_20  and  O_21
REMARK                            x       y       z     vdW  Elec       q    Type
REMARK                         _______ _______ _______ _____ _____    ______ ____
ROOT
ATOM      1  C   UNL     1       3.668   4.232  18.726  0.00  0.00    +0.000 C 
ATOM      2  C   UNL     1       3.300   2.733  18.836  0.00  0.00    +0.000 C 
ATOM      3  C   UNL     1       2.620   2.369  20.164  0.00  0.00    +0.000 C 
ATOM      4  C   UNL     1       1.426   3.278  20.474  0.00  0.00    +0.000 C 
ATOM      5  C   UNL     1       1.903   4.716  20.439  0.00  0.00    +0.000 C 
ATOM      6  C   UNL     1       0.868   5.800  20.657  0.00  0.00    +0.000 C 
ATOM      7  N   UNL     1       1.484   7.018  20.078  0.00  0.00    +0.000 NA
ATOM      8  C   UNL     1       2.649   6.586  19.255  0.00  0.00    +0.000 C 
ATOM      9  C   UNL     1       2.447   5.087  19.071  0.00  0.00    +0.000 C 
ENDROOT
BRANCH   1  12
ATOM     10  O   UNL     1       5.996   5.676  18.115  0.00  0.00    +0.000 OA
ATOM     11  C   UNL     1       5.331   5.237  17.170  0.00  0.00    +0.000 C 
ATOM     12  N   UNL     1       4.158   4.533  17.384  0.00  0.00    +0.000 N 
ATOM     13  H   UNL     1       3.778   3.998  16.613  0.00  0.00    +0.000 HD
BRANCH  11  14
ATOM     14  C   UNL     1       5.780   5.415  15.649  0.00  0.00    +0.000 C 
ATOM     15  C   UNL     1       5.209   4.298  14.709  0.00  0.00    +0.000 C 
ATOM     16  C   UNL     1       6.543   4.313  13.951  0.00  0.00    +0.000 C 
ATOM     17  C   UNL     1       7.194   4.907  15.211  0.00  0.00    +0.000 C 
BRANCH  14  18
ATOM     18  O   UNL     1       5.491   6.767  15.187  0.00  0.00    +0.000 OA
ATOM     19  H   UNL     1       5.008   6.628  14.350  0.00  0.00    +0.000 HD
ENDBRANCH  14  18
ENDBRANCH  11  14
ENDBRANCH   1  12
BRANCH   7  20
ATOM     20  C   UNL     1       1.905   7.990  21.105  0.00  0.00    +0.000 C 
BRANCH  20  21
ATOM     21  C   UNL     1       0.884   9.071  21.401  0.00  0.00    +0.000 A 
ATOM     22  C   UNL     1       0.441   9.280  22.718  0.00  0.00    +0.000 A 
ATOM     23  C   UNL     1      -0.496  10.275  23.006  0.00  0.00    +0.000 A 
ATOM     24  C   UNL     1      -0.998  11.077  21.983  0.00  0.00    +0.000 A 
ATOM     25  C   UNL     1      -0.563  10.883  20.672  0.00  0.00    +0.000 A 
ATOM     26  C   UNL     1       0.372   9.885  20.381  0.00  0.00    +0.000 A 
ENDBRANCH  20  21
ENDBRANCH   7  20
TORSDOF 5
ENDMDL
MODEL 9
REMARK VINA RESULT:      -7.1      2.242      7.252
REMARK  Name = 
REMARK  5 active torsions:
REMARK  status: ('A' for Active; 'I' for Inactive)
REMARK    1  A    between atoms: C_2  and  C_20
REMARK    2  A    between atoms: N_3  and  C_4
REMARK    3  A    between atoms: N_10  and  C_11
REMARK    4  A    between atoms: C_11  and  C_12
REMARK    5  A    between atoms: C_20  and  O_21
REMARK                            x       y       z     vdW  Elec       q    Type
REMARK                         _______ _______ _______ _____ _____    ______ ____
ROOT
ATOM      1  C   UNL     1       2.280   5.510  19.419  0.00  0.00    +0.000 C 
ATOM      2  C   UNL     1       1.251   4.356  19.357  0.00  0.00    +0.000 C 
ATOM      3  C   UNL     1       1.698   3.191  18.461  0.00  0.00    +0.000 C 
ATOM      4  C   UNL     1       3.101   2.690  18.817  0.00  0.00    +0.000 C 
ATOM      5  C   UNL     1       4.054   3.867  18.759  0.00  0.00    +0.000 C 
ATOM      6  C   UNL     1       5.499   3.615  19.139  0.00  0.00    +0.000 C 
ATOM      7  N   UNL     1       6.029   4.957  19.477  0.00  0.00    +0.000 NA
ATOM      8  C   UNL     1       4.865   5.875  19.631  0.00  0.00    +0.000 C 
ATOM      9  C   UNL     1       3.663   4.946  19.752  0.00  0.00    +0.000 C 
ENDROOT
BRANCH   1  12
ATOM     10  O   UNL     1       2.043   8.271  18.975  0.00  0.00    +0.000 OA
ATOM     11  C   UNL     1       1.755   7.846  20.099  0.00  0.00    +0.000 C 
ATOM     12  N   UNL     1       1.865   6.500  20.408  0.00  0.00    +0.000 N 
ATOM     13  H   UNL     1       1.404   6.166  21.246  0.00  0.00    +0.000 HD
BRANCH  11  14
ATOM     14  C   UNL     1       1.210   8.795  21.261  0.00  0.00    +0.000 C 
ATOM     15  C   UNL     1      -0.290   8.515  21.624  0.00  0.00    +0.000 C 
ATOM     16  C   UNL     1      -0.483  10.027  21.810  0.00  0.00    +0.000 C 
ATOM     17  C   UNL     1       0.737  10.242  20.899  0.00  0.00    +0.000 C 
BRANCH  14  18
ATOM     18  O   UNL     1       2.102   8.757  22.412  0.00  0.00    +0.000 OA
ATOM     19  H   UNL     1       2.301   7.808  22.522  0.00  0.00    +0.000 HD
ENDBRANCH  14  18
ENDBRANCH  11  14
ENDBRANCH   1  12
BRANCH   7  20
ATOM     20  C   UNL     1       6.968   5.474  18.465  0.00  0.00    +0.000 C 
BRANCH  20  21
ATOM     21  C   UNL     1       6.512   5.285  17.031  0.00  0.00    +0.000 A 
ATOM     22  C   UNL     1       5.608   6.193  16.453  0.00  0.00    +0.000 A 
ATOM     23  C   UNL     1       5.182   6.033  15.133  0.00  0.00    +0.000 A 
ATOM     24  C   UNL     1       5.659   4.968  14.372  0.00  0.00    +0.000 A 
ATOM     25  C   UNL     1       6.559   4.062  14.931  0.00  0.00    +0.000 A 
ATOM     26  C   UNL     1       6.983   4.218  16.254  0.00  0.00    +0.000 A 
ENDBRANCH  20  21
ENDBRANCH   7  20
TORSDOF 5
ENDMDL
