MODEL 1
REMARK VINA RESULT:      -8.2      0.000      0.000
REMARK  Name = 
REMARK  9 active torsions:
REMARK  status: ('A' for Active; 'I' for Inactive)
REMARK    1  A    between atoms: C_1  and  C_2
REMARK    2  A    between atoms: C_5  and  N_6
REMARK    3  A    between atoms: C_7  and  C_9
REMARK    4  A    between atoms: C_9  and  O_10
REMARK    5  A    between atoms: O_10  and  C_11
REMARK    6  A    between atoms: C_14  and  N_15
REMARK    7  A    between atoms: C_17  and  C_18
REMARK    8  A    between atoms: N_20  and  C_21
REMARK    9  A    between atoms: C_21  and  C_22
REMARK                            x       y       z     vdW  Elec       q    Type
REMARK                         _______ _______ _______ _____ _____    ______ ____
ROOT
ATOM      1  C   UNL     1       1.819   7.336  20.094  0.00  0.00    +0.000 A 
ATOM      2  C   UNL     1       1.891   8.198  19.000  0.00  0.00    +0.000 A 
ATOM      3  C   UNL     1       1.289   9.455  19.060  0.00  0.00    +0.000 A 
ATOM      4  C   UNL     1       0.545   9.829  20.182  0.00  0.00    +0.000 A 
ATOM      5  C   UNL     1       0.428   8.941  21.254  0.00  0.00    +0.000 A 
ATOM      6  C   UNL     1       1.081   7.705  21.217  0.00  0.00    +0.000 A 
ENDROOT
BRANCH   4   7
ATOM      7  N   UNL     1      -0.085  11.086  20.227  0.00  0.00    +0.000 N 
ATOM      8  C   UNL     1      -1.494  11.266  19.994  0.00  0.00    +0.000 C 
ATOM      9  C   UNL     1      -1.653  12.778  19.943  0.00  0.00    +0.000 C 
ATOM     10  C   UNL     1      -0.593  13.262  20.922  0.00  0.00    +0.000 C 
ATOM     11  C   UNL     1       0.490  12.217  20.807  0.00  0.00    +0.000 C 
ATOM     12  O   UNL     1       1.622  12.358  21.239  0.00  0.00    +0.000 OA
BRANCH   9  13
ATOM     13  C   UNL     1      -3.057  13.201  20.310  0.00  0.00    +0.000 C 
ATOM     14  O   UNL     1      -3.323  13.744  21.376  0.00  0.00    +0.000 OA
ATOM     15  N   UNL     1      -4.007  12.861  19.377  0.00  0.00    +0.000 N 
ATOM     16  H   UNL     1      -3.745  12.388  18.523  0.00  0.00    +0.000 HD
BRANCH  15  17
ATOM     17  C   UNL     1      -5.420  13.070  19.609  0.00  0.00    +0.000 C 
BRANCH  17  18
ATOM     18  C   UNL     1      -6.152  11.780  19.877  0.00  0.00    +0.000 A 
ATOM     19  C   UNL     1      -6.997  11.652  20.988  0.00  0.00    +0.000 A 
ATOM     20  C   UNL     1      -7.761  10.496  21.168  0.00  0.00    +0.000 A 
ATOM     21  C   UNL     1      -7.686   9.459  20.241  0.00  0.00    +0.000 A 
ATOM     22  C   UNL     1      -6.831   9.566  19.145  0.00  0.00    +0.000 A 
ATOM     23  C   UNL     1      -6.064  10.718  18.967  0.00  0.00    +0.000 A 
ENDBRANCH  17  18
ENDBRANCH  15  17
ENDBRANCH   9  13
ENDBRANCH   4   7
BRANCH   1  24
ATOM     24  O   UNL     1       2.426   6.112  20.155  0.00  0.00    +0.000 OA
BRANCH  24  25
ATOM     25  C   UNL     1       1.720   5.069  19.486  0.00  0.00    +0.000 C 
BRANCH  25  27
ATOM     26  N   UNL     1       3.717   5.077  18.108  0.00  0.00    +0.000 N 
ATOM     27  C   UNL     1       2.396   4.678  18.180  0.00  0.00    +0.000 C 
ATOM     28  O   UNL     1       1.762   4.061  17.324  0.00  0.00    +0.000 OA
ATOM     29  H   UNL     1       4.104   5.453  18.969  0.00  0.00    +0.000 HD
BRANCH  26  34
ATOM     30  C   UNL     1       7.197   4.771  13.586  0.00  0.00    +0.000 C 
ATOM     31  C   UNL     1       6.274   4.833  14.765  0.00  0.00    +0.000 A 
ATOM     32  C   UNL     1       5.891   3.668  15.431  0.00  0.00    +0.000 A 
ATOM     33  C   UNL     1       5.047   3.733  16.540  0.00  0.00    +0.000 A 
ATOM     34  C   UNL     1       4.568   4.958  17.002  0.00  0.00    +0.000 A 
ATOM     35  C   UNL     1       4.927   6.124  16.318  0.00  0.00    +0.000 A 
ATOM     36  C   UNL     1       5.783   6.062  15.215  0.00  0.00    +0.000 A 
ENDBRANCH  26  34
ENDBRANCH  25  27
ENDBRANCH  24  25
ENDBRANCH   1  24
TORSDOF 8
ENDMDL
MODEL 2
REMARK VINA RESULT:      -7.9      1.922      2.341
REMARK  Name = 
REMARK  9 active torsions:
REMARK  status: ('A' for Active; 'I' for Inactive)
REMARK    1  A    between atoms: C_1  and  C_2
REMARK    2  A    between atoms: C_5  and  N_6
REMARK    3  A    between atoms: C_7  and  C_9
REMARK    4  A    between atoms: C_9  and  O_10
REMARK    5  A    between atoms: O_10  and  C_11
REMARK    6  A    between atoms: C_14  and  N_15
REMARK    7  A    between atoms: C_17  and  C_18
REMARK    8  A    between atoms: N_20  and  C_21
REMARK    9  A    between atoms: C_21  and  C_22
REMARK                            x       y       z     vdW  Elec       q    Type
REMARK                         _______ _______ _______ _____ _____    ______ ____
ROOT
ATOM      1  C   UNL     1       2.024   7.195  19.898  0.00  0.00    +0.000 A 
ATOM      2  C   UNL     1       2.147   7.787  18.642  0.00  0.00    +0.000 A 
ATOM      3  C   UNL     1       1.652   9.073  18.423  0.00  0.00    +0.000 A 
ATOM      4  C   UNL     1       0.960   9.745  19.433  0.00  0.00    +0.000 A 
ATOM      5  C   UNL     1       0.790   9.127  20.674  0.00  0.00    +0.000 A 
ATOM      6  C   UNL     1       1.337   7.863  20.911  0.00  0.00    +0.000 A 
ENDROOT
BRANCH   4   7
ATOM      7  N   UNL     1       0.438  11.029  19.199  0.00  0.00    +0.000 N 
ATOM      8  C   UNL     1      -0.883  11.427  19.614  0.00  0.00    +0.000 C 
ATOM      9  C   UNL     1      -1.060  12.792  18.968  0.00  0.00    +0.000 C 
ATOM     10  C   UNL     1       0.353  13.359  18.982  0.00  0.00    +0.000 C 
ATOM     11  C   UNL     1       1.221  12.130  18.851  0.00  0.00    +0.000 C 
ATOM     12  O   UNL     1       2.409  12.161  18.573  0.00  0.00    +0.000 OA
BRANCH   9  13
ATOM     13  C   UNL     1      -2.060  13.637  19.724  0.00  0.00    +0.000 C 
ATOM     14  O   UNL     1      -1.754  14.695  20.263  0.00  0.00    +0.000 OA
ATOM     15  N   UNL     1      -3.315  13.081  19.807  0.00  0.00    +0.000 N 
ATOM     16  H   UNL     1      -3.514  12.193  19.369  0.00  0.00    +0.000 HD
BRANCH  15  17
ATOM     17  C   UNL     1      -4.369  13.682  20.595  0.00  0.00    +0.000 C 
BRANCH  17  18
ATOM     18  C   UNL     1      -4.413  13.137  21.999  0.00  0.00    +0.000 A 
ATOM     19  C   UNL     1      -3.279  12.546  22.575  0.00  0.00    +0.000 A 
ATOM     20  C   UNL     1      -3.290  12.147  23.914  0.00  0.00    +0.000 A 
ATOM     21  C   UNL     1      -4.434  12.334  24.688  0.00  0.00    +0.000 A 
ATOM     22  C   UNL     1      -5.575  12.898  24.119  0.00  0.00    +0.000 A 
ATOM     23  C   UNL     1      -5.565  13.293  22.780  0.00  0.00    +0.000 A 
ENDBRANCH  17  18
ENDBRANCH  15  17
ENDBRANCH   9  13
ENDBRANCH   4   7
BRANCH   1  24
ATOM     24  O   UNL     1       2.528   5.968  20.228  0.00  0.00    +0.000 OA
BRANCH  24  25
ATOM     25  C   UNL     1       1.876   4.871  19.592  0.00  0.00    +0.000 C 
BRANCH  25  27
ATOM     26  N   UNL     1       3.824   4.862  18.145  0.00  0.00    +0.000 N 
ATOM     27  C   UNL     1       2.475   4.575  18.224  0.00  0.00    +0.000 C 
ATOM     28  O   UNL     1       1.762   4.118  17.331  0.00  0.00    +0.000 OA
ATOM     29  H   UNL     1       4.269   5.102  19.027  0.00  0.00    +0.000 HD
BRANCH  26  34
ATOM     30  C   UNL     1       7.102   4.776  13.467  0.00  0.00    +0.000 C 
ATOM     31  C   UNL     1       6.233   4.780  14.687  0.00  0.00    +0.000 A 
ATOM     32  C   UNL     1       5.932   3.590  15.350  0.00  0.00    +0.000 A 
ATOM     33  C   UNL     1       5.139   3.601  16.498  0.00  0.00    +0.000 A 
ATOM     34  C   UNL     1       4.628   4.796  17.000  0.00  0.00    +0.000 A 
ATOM     35  C   UNL     1       4.904   5.987  16.320  0.00  0.00    +0.000 A 
ATOM     36  C   UNL     1       5.709   5.979  15.178  0.00  0.00    +0.000 A 
ENDBRANCH  26  34
ENDBRANCH  25  27
ENDBRANCH  24  25
ENDBRANCH   1  24
TORSDOF 8
ENDMDL
MODEL 3
REMARK VINA RESULT:      -7.8      1.972     12.040
REMARK  Name = 
REMARK  9 active torsions:
REMARK  status: ('A' for Active; 'I' for Inactive)
REMARK    1  A    between atoms: C_1  and  C_2
REMARK    2  A    between atoms: C_5  and  N_6
REMARK    3  A    between atoms: C_7  and  C_9
REMARK    4  A    between atoms: C_9  and  O_10
REMARK    5  A    between atoms: O_10  and  C_11
REMARK    6  A    between atoms: C_14  and  N_15
REMARK    7  A    between atoms: C_17  and  C_18
REMARK    8  A    between atoms: N_20  and  C_21
REMARK    9  A    between atoms: C_21  and  C_22
REMARK                            x       y       z     vdW  Elec       q    Type
REMARK                         _______ _______ _______ _____ _____    ______ ____
ROOT
ATOM      1  C   UNL     1       0.673  10.447  20.402  0.00  0.00    +0.000 A 
ATOM      2  C   UNL     1       0.966  10.247  19.054  0.00  0.00    +0.000 A 
ATOM      3  C   UNL     1       1.499   9.030  18.628  0.00  0.00    +0.000 A 
ATOM      4  C   UNL     1       1.817   8.034  19.555  0.00  0.00    +0.000 A 
ATOM      5  C   UNL     1       1.574   8.261  20.912  0.00  0.00    +0.000 A 
ATOM      6  C   UNL     1       0.986   9.457  21.331  0.00  0.00    +0.000 A 
ENDROOT
BRANCH   4   7
ATOM      7  N   UNL     1       2.381   6.821  19.125  0.00  0.00    +0.000 N 
ATOM      8  C   UNL     1       3.500   6.751  18.221  0.00  0.00    +0.000 C 
ATOM      9  C   UNL     1       3.605   5.268  17.900  0.00  0.00    +0.000 C 
ATOM     10  C   UNL     1       3.148   4.610  19.195  0.00  0.00    +0.000 C 
ATOM     11  C   UNL     1       2.151   5.596  19.754  0.00  0.00    +0.000 C 
ATOM     12  O   UNL     1       1.369   5.339  20.654  0.00  0.00    +0.000 OA
BRANCH   9  13
ATOM     13  C   UNL     1       5.008   4.888  17.488  0.00  0.00    +0.000 C 
ATOM     14  O   UNL     1       5.711   4.140  18.158  0.00  0.00    +0.000 OA
ATOM     15  N   UNL     1       5.442   5.505  16.339  0.00  0.00    +0.000 N 
ATOM     16  H   UNL     1       4.836   6.136  15.834  0.00  0.00    +0.000 HD
BRANCH  15  17
ATOM     17  C   UNL     1       6.799   5.363  15.857  0.00  0.00    +0.000 C 
BRANCH  17  18
ATOM     18  C   UNL     1       6.852   4.807  14.458  0.00  0.00    +0.000 A 
ATOM     19  C   UNL     1       5.959   3.807  14.048  0.00  0.00    +0.000 A 
ATOM     20  C   UNL     1       5.936   3.377  12.719  0.00  0.00    +0.000 A 
ATOM     21  C   UNL     1       6.806   3.942  11.788  0.00  0.00    +0.000 A 
ATOM     22  C   UNL     1       7.715   4.920  12.189  0.00  0.00    +0.000 A 
ATOM     23  C   UNL     1       7.741   5.346  13.518  0.00  0.00    +0.000 A 
ENDBRANCH  17  18
ENDBRANCH  15  17
ENDBRANCH   9  13
ENDBRANCH   4   7
BRANCH   1  24
ATOM     24  O   UNL     1       0.094  11.578  20.907  0.00  0.00    +0.000 OA
BRANCH  24  25
ATOM     25  C   UNL     1      -0.661  12.330  19.958  0.00  0.00    +0.000 C 
BRANCH  25  27
ATOM     26  N   UNL     1      -2.626  12.219  21.377  0.00  0.00    +0.000 N 
ATOM     27  C   UNL     1      -1.831  13.051  20.612  0.00  0.00    +0.000 C 
ATOM     28  O   UNL     1      -1.981  14.259  20.433  0.00  0.00    +0.000 OA
ATOM     29  H   UNL     1      -2.263  11.280  21.516  0.00  0.00    +0.000 HD
BRANCH  26  34
ATOM     30  C   UNL     1      -7.428  13.644  24.127  0.00  0.00    +0.000 C 
ATOM     31  C   UNL     1      -6.180  13.256  23.394  0.00  0.00    +0.000 A 
ATOM     32  C   UNL     1      -6.211  13.001  22.022  0.00  0.00    +0.000 A 
ATOM     33  C   UNL     1      -5.043  12.660  21.340  0.00  0.00    +0.000 A 
ATOM     34  C   UNL     1      -3.826  12.562  22.013  0.00  0.00    +0.000 A 
ATOM     35  C   UNL     1      -3.799  12.788  23.393  0.00  0.00    +0.000 A 
ATOM     36  C   UNL     1      -4.965  13.144  24.076  0.00  0.00    +0.000 A 
ENDBRANCH  26  34
ENDBRANCH  25  27
ENDBRANCH  24  25
ENDBRANCH   1  24
TORSDOF 8
ENDMDL
MODEL 4
REMARK VINA RESULT:      -7.8      3.721     11.351
REMARK  Name = 
REMARK  9 active torsions:
REMARK  status: ('A' for Active; 'I' for Inactive)
REMARK    1  A    between atoms: C_1  and  C_2
REMARK    2  A    between atoms: C_5  and  N_6
REMARK    3  A    between atoms: C_7  and  C_9
REMARK    4  A    between atoms: C_9  and  O_10
REMARK    5  A    between atoms: O_10  and  C_11
REMARK    6  A    between atoms: C_14  and  N_15
REMARK    7  A    between atoms: C_17  and  C_18
REMARK    8  A    between atoms: N_20  and  C_21
REMARK    9  A    between atoms: C_21  and  C_22
REMARK                            x       y       z     vdW  Elec       q    Type
REMARK                         _______ _______ _______ _____ _____    ______ ____
ROOT
ATOM      1  C   UNL     1       0.442   9.765  20.362  0.00  0.00    +0.000 A 
ATOM      2  C   UNL     1       1.091   9.681  19.131  0.00  0.00    +0.000 A 
ATOM      3  C   UNL     1       1.802   8.529  18.793  0.00  0.00    +0.000 A 
ATOM      4  C   UNL     1       1.937   7.486  19.713  0.00  0.00    +0.000 A 
ATOM      5  C   UNL     1       1.332   7.598  20.967  0.00  0.00    +0.000 A 
ATOM      6  C   UNL     1       0.570   8.727  21.283  0.00  0.00    +0.000 A 
ENDROOT
BRANCH   4   7
ATOM      7  N   UNL     1       2.679   6.339  19.379  0.00  0.00    +0.000 N 
ATOM      8  C   UNL     1       3.704   6.334  18.368  0.00  0.00    +0.000 C 
ATOM      9  C   UNL     1       4.057   4.861  18.230  0.00  0.00    +0.000 C 
ATOM     10  C   UNL     1       3.852   4.331  19.643  0.00  0.00    +0.000 C 
ATOM     11  C   UNL     1       2.742   5.200  20.182  0.00  0.00    +0.000 C 
ATOM     12  O   UNL     1       2.108   4.946  21.193  0.00  0.00    +0.000 OA
BRANCH   9  13
ATOM     13  C   UNL     1       5.464   4.675  17.709  0.00  0.00    +0.000 C 
ATOM     14  O   UNL     1       6.376   4.254  18.412  0.00  0.00    +0.000 OA
ATOM     15  N   UNL     1       5.638   5.081  16.407  0.00  0.00    +0.000 N 
ATOM     16  H   UNL     1       4.862   5.447  15.874  0.00  0.00    +0.000 HD
BRANCH  15  17
ATOM     17  C   UNL     1       6.940   5.096  15.777  0.00  0.00    +0.000 C 
BRANCH  17  18
ATOM     18  C   UNL     1       6.867   4.768  14.308  0.00  0.00    +0.000 A 
ATOM     19  C   UNL     1       7.755   5.356  13.397  0.00  0.00    +0.000 A 
ATOM     20  C   UNL     1       7.759   4.963  12.056  0.00  0.00    +0.000 A 
ATOM     21  C   UNL     1       6.875   3.979  11.615  0.00  0.00    +0.000 A 
ATOM     22  C   UNL     1       5.971   3.406  12.507  0.00  0.00    +0.000 A 
ATOM     23  C   UNL     1       5.964   3.802  13.845  0.00  0.00    +0.000 A 
ENDBRANCH  17  18
ENDBRANCH  15  17
ENDBRANCH   9  13
ENDBRANCH   4   7
BRANCH   1  24
ATOM     24  O   UNL     1      -0.328  10.823  20.759  0.00  0.00    +0.000 OA
BRANCH  24  25
ATOM     25  C   UNL     1       0.228  11.590  21.825  0.00  0.00    +0.000 C 
BRANCH  25  27
ATOM     26  N   UNL     1       0.349  13.293  20.102  0.00  0.00    +0.000 N 
ATOM     27  C   UNL     1       0.332  13.065  21.464  0.00  0.00    +0.000 C 
ATOM     28  O   UNL     1       0.384  13.910  22.356  0.00  0.00    +0.000 OA
ATOM     29  H   UNL     1       0.158  12.480  19.523  0.00  0.00    +0.000 HD
BRANCH  26  34
ATOM     30  C   UNL     1       0.958  18.357  17.526  0.00  0.00    +0.000 C 
ATOM     31  C   UNL     1       0.812  17.021  18.187  0.00  0.00    +0.000 A 
ATOM     32  C   UNL     1       1.918  16.188  18.359  0.00  0.00    +0.000 A 
ATOM     33  C   UNL     1       1.782  14.952  18.993  0.00  0.00    +0.000 A 
ATOM     34  C   UNL     1       0.541  14.524  19.462  0.00  0.00    +0.000 A 
ATOM     35  C   UNL     1      -0.574  15.345  19.264  0.00  0.00    +0.000 A 
ATOM     36  C   UNL     1      -0.437  16.588  18.642  0.00  0.00    +0.000 A 
ENDBRANCH  26  34
ENDBRANCH  25  27
ENDBRANCH  24  25
ENDBRANCH   1  24
TORSDOF 8
ENDMDL
MODEL 5
REMARK VINA RESULT:      -7.7      3.338      6.430
REMARK  Name = 
REMARK  9 active torsions:
REMARK  status: ('A' for Active; 'I' for Inactive)
REMARK    1  A    between atoms: C_1  and  C_2
REMARK    2  A    between atoms: C_5  and  N_6
REMARK    3  A    between atoms: C_7  and  C_9
REMARK    4  A    between atoms: C_9  and  O_10
REMARK    5  A    between atoms: O_10  and  C_11
REMARK    6  A    between atoms: C_14  and  N_15
REMARK    7  A    between atoms: C_17  and  C_18
REMARK    8  A    between atoms: N_20  and  C_21
REMARK    9  A    between atoms: C_21  and  C_22
REMARK                            x       y       z     vdW  Elec       q    Type
REMARK                         _______ _______ _______ _____ _____    ______ ____
ROOT
ATOM      1  C   UNL     1       1.896   7.150  20.079  0.00  0.00    +0.000 A 
ATOM      2  C   UNL     1       2.157   7.798  18.871  0.00  0.00    +0.000 A 
ATOM      3  C   UNL     1       1.722   9.108  18.673  0.00  0.00    +0.000 A 
ATOM      4  C   UNL     1       0.954   9.753  19.646  0.00  0.00    +0.000 A 
ATOM      5  C   UNL     1       0.647   9.081  20.831  0.00  0.00    +0.000 A 
ATOM      6  C   UNL     1       1.133   7.790  21.054  0.00  0.00    +0.000 A 
ENDROOT
BRANCH   4   7
ATOM      7  N   UNL     1       0.493  11.064  19.430  0.00  0.00    +0.000 N 
ATOM      8  C   UNL     1       1.292  12.231  19.698  0.00  0.00    +0.000 C 
ATOM      9  C   UNL     1       0.312  13.380  19.513  0.00  0.00    +0.000 C 
ATOM     10  C   UNL     1      -0.612  12.863  18.419  0.00  0.00    +0.000 C 
ATOM     11  C   UNL     1      -0.622  11.371  18.649  0.00  0.00    +0.000 C 
ATOM     12  O   UNL     1      -1.431  10.609  18.146  0.00  0.00    +0.000 OA
BRANCH   9  13
ATOM     13  C   UNL     1       1.024  14.663  19.151  0.00  0.00    +0.000 C 
ATOM     14  O   UNL     1       0.425  15.668  18.786  0.00  0.00    +0.000 OA
ATOM     15  N   UNL     1       2.395  14.577  19.203  0.00  0.00    +0.000 N 
ATOM     16  H   UNL     1       2.847  13.719  19.484  0.00  0.00    +0.000 HD
BRANCH  15  17
ATOM     17  C   UNL     1       3.249  15.663  18.771  0.00  0.00    +0.000 C 
BRANCH  17  18
ATOM     18  C   UNL     1       4.711  15.315  18.873  0.00  0.00    +0.000 A 
ATOM     19  C   UNL     1       5.428  14.889  17.746  0.00  0.00    +0.000 A 
ATOM     20  C   UNL     1       6.807  14.678  17.820  0.00  0.00    +0.000 A 
ATOM     21  C   UNL     1       7.481  14.891  19.021  0.00  0.00    +0.000 A 
ATOM     22  C   UNL     1       6.775  15.290  20.154  0.00  0.00    +0.000 A 
ATOM     23  C   UNL     1       5.396  15.496  20.082  0.00  0.00    +0.000 A 
ENDBRANCH  17  18
ENDBRANCH  15  17
ENDBRANCH   9  13
ENDBRANCH   4   7
BRANCH   1  24
ATOM     24  O   UNL     1       2.332   5.892  20.392  0.00  0.00    +0.000 OA
BRANCH  24  25
ATOM     25  C   UNL     1       1.654   4.844  19.701  0.00  0.00    +0.000 C 
BRANCH  25  27
ATOM     26  N   UNL     1       3.634   4.843  18.299  0.00  0.00    +0.000 N 
ATOM     27  C   UNL     1       2.281   4.566  18.343  0.00  0.00    +0.000 C 
ATOM     28  O   UNL     1       1.585   4.131  17.426  0.00  0.00    +0.000 OA
ATOM     29  H   UNL     1       4.061   5.063  19.195  0.00  0.00    +0.000 HD
BRANCH  26  34
ATOM     30  C   UNL     1       7.010   4.806  13.690  0.00  0.00    +0.000 C 
ATOM     31  C   UNL     1       6.116   4.797  14.892  0.00  0.00    +0.000 A 
ATOM     32  C   UNL     1       5.838   3.605  15.562  0.00  0.00    +0.000 A 
ATOM     33  C   UNL     1       5.021   3.604  16.693  0.00  0.00    +0.000 A 
ATOM     34  C   UNL     1       4.463   4.789  17.172  0.00  0.00    +0.000 A 
ATOM     35  C   UNL     1       4.717   5.980  16.483  0.00  0.00    +0.000 A 
ATOM     36  C   UNL     1       5.546   5.985  15.358  0.00  0.00    +0.000 A 
ENDBRANCH  26  34
ENDBRANCH  25  27
ENDBRANCH  24  25
ENDBRANCH   1  24
TORSDOF 8
ENDMDL
MODEL 6
REMARK VINA RESULT:      -7.6      2.637     12.033
REMARK  Name = 
REMARK  9 active torsions:
REMARK  status: ('A' for Active; 'I' for Inactive)
REMARK    1  A    between atoms: C_1  and  C_2
REMARK    2  A    between atoms: C_5  and  N_6
REMARK    3  A    between atoms: C_7  and  C_9
REMARK    4  A    between atoms: C_9  and  O_10
REMARK    5  A    between atoms: O_10  and  C_11
REMARK    6  A    between atoms: C_14  and  N_15
REMARK    7  A    between atoms: C_17  and  C_18
REMARK    8  A    between atoms: N_20  and  C_21
REMARK    9  A    between atoms: C_21  and  C_22
REMARK                            x       y       z     vdW  Elec       q    Type
REMARK                         _______ _______ _______ _____ _____    ______ ____
ROOT
ATOM      1  C   UNL     1       0.685  11.070  19.273  0.00  0.00    +0.000 A 
ATOM      2  C   UNL     1       1.520  10.788  18.192  0.00  0.00    +0.000 A 
ATOM      3  C   UNL     1       2.072   9.515  18.049  0.00  0.00    +0.000 A 
ATOM      4  C   UNL     1       1.860   8.539  19.025  0.00  0.00    +0.000 A 
ATOM      5  C   UNL     1       1.068   8.842  20.136  0.00  0.00    +0.000 A 
ATOM      6  C   UNL     1       0.467  10.099  20.248  0.00  0.00    +0.000 A 
ENDROOT
BRANCH   4   7
ATOM      7  N   UNL     1       2.442   7.266  18.892  0.00  0.00    +0.000 N 
ATOM      8  C   UNL     1       3.496   6.979  17.953  0.00  0.00    +0.000 C 
ATOM      9  C   UNL     1       3.639   5.467  18.034  0.00  0.00    +0.000 C 
ATOM     10  C   UNL     1       3.304   5.173  19.490  0.00  0.00    +0.000 C 
ATOM     11  C   UNL     1       2.309   6.253  19.842  0.00  0.00    +0.000 C 
ATOM     12  O   UNL     1       1.605   6.232  20.839  0.00  0.00    +0.000 OA
BRANCH   9  13
ATOM     13  C   UNL     1       5.024   5.018  17.628  0.00  0.00    +0.000 C 
ATOM     14  O   UNL     1       5.689   4.241  18.303  0.00  0.00    +0.000 OA
ATOM     15  N   UNL     1       5.489   5.610  16.477  0.00  0.00    +0.000 N 
ATOM     16  H   UNL     1       4.915   6.266  15.967  0.00  0.00    +0.000 HD
BRANCH  15  17
ATOM     17  C   UNL     1       6.839   5.402  16.000  0.00  0.00    +0.000 C 
BRANCH  17  18
ATOM     18  C   UNL     1       6.870   4.837  14.603  0.00  0.00    +0.000 A 
ATOM     19  C   UNL     1       5.938   3.872  14.199  0.00  0.00    +0.000 A 
ATOM     20  C   UNL     1       5.898   3.437  12.872  0.00  0.00    +0.000 A 
ATOM     21  C   UNL     1       6.789   3.962  11.938  0.00  0.00    +0.000 A 
ATOM     22  C   UNL     1       7.736   4.905  12.334  0.00  0.00    +0.000 A 
ATOM     23  C   UNL     1       7.779   5.336  13.661  0.00  0.00    +0.000 A 
ENDBRANCH  17  18
ENDBRANCH  15  17
ENDBRANCH   9  13
ENDBRANCH   4   7
BRANCH   1  24
ATOM     24  O   UNL     1       0.049  12.265  19.467  0.00  0.00    +0.000 OA
BRANCH  24  25
ATOM     25  C   UNL     1      -0.279  12.545  20.827  0.00  0.00    +0.000 C 
BRANCH  25  27
ATOM     26  N   UNL     1      -2.142  13.134  22.266  0.00  0.00    +0.000 N 
ATOM     27  C   UNL     1      -1.784  12.591  21.046  0.00  0.00    +0.000 C 
ATOM     28  O   UNL     1      -2.543  12.174  20.172  0.00  0.00    +0.000 OA
ATOM     29  H   UNL     1      -1.380  13.549  22.795  0.00  0.00    +0.000 HD
BRANCH  26  34
ATOM     30  C   UNL     1      -7.459  13.586  24.307  0.00  0.00    +0.000 C 
ATOM     31  C   UNL     1      -6.057  13.465  23.792  0.00  0.00    +0.000 A 
ATOM     32  C   UNL     1      -5.168  12.551  24.358  0.00  0.00    +0.000 A 
ATOM     33  C   UNL     1      -3.870  12.427  23.862  0.00  0.00    +0.000 A 
ATOM     34  C   UNL     1      -3.435  13.216  22.798  0.00  0.00    +0.000 A 
ATOM     35  C   UNL     1      -4.315  14.153  22.249  0.00  0.00    +0.000 A 
ATOM     36  C   UNL     1      -5.620  14.269  22.735  0.00  0.00    +0.000 A 
ENDBRANCH  26  34
ENDBRANCH  25  27
ENDBRANCH  24  25
ENDBRANCH   1  24
TORSDOF 8
ENDMDL
MODEL 7
REMARK VINA RESULT:      -7.6      2.809      4.844
REMARK  Name = 
REMARK  9 active torsions:
REMARK  status: ('A' for Active; 'I' for Inactive)
REMARK    1  A    between atoms: C_1  and  C_2
REMARK    2  A    between atoms: C_5  and  N_6
REMARK    3  A    between atoms: C_7  and  C_9
REMARK    4  A    between atoms: C_9  and  O_10
REMARK    5  A    between atoms: O_10  and  C_11
REMARK    6  A    between atoms: C_14  and  N_15
REMARK    7  A    between atoms: C_17  and  C_18
REMARK    8  A    between atoms: N_20  and  C_21
REMARK    9  A    between atoms: C_21  and  C_22
REMARK                            x       y       z     vdW  Elec       q    Type
REMARK                         _______ _______ _______ _____ _____    ______ ____
ROOT
ATOM      1  C   UNL     1       1.665   8.124  20.179  0.00  0.00    +0.000 A 
ATOM      2  C   UNL     1       1.691   9.095  19.178  0.00  0.00    +0.000 A 
ATOM      3  C   UNL     1       0.862  10.214  19.268  0.00  0.00    +0.000 A 
ATOM      4  C   UNL     1      -0.055  10.331  20.315  0.00  0.00    +0.000 A 
ATOM      5  C   UNL     1      -0.118   9.329  21.286  0.00  0.00    +0.000 A 
ATOM      6  C   UNL     1       0.754   8.238  21.228  0.00  0.00    +0.000 A 
ENDROOT
BRANCH   4   7
ATOM      7  N   UNL     1      -0.909  11.446  20.386  0.00  0.00    +0.000 N 
ATOM      8  C   UNL     1      -0.547  12.671  21.051  0.00  0.00    +0.000 C 
ATOM      9  C   UNL     1      -1.840  13.474  21.042  0.00  0.00    +0.000 C 
ATOM     10  C   UNL     1      -2.497  13.040  19.739  0.00  0.00    +0.000 C 
ATOM     11  C   UNL     1      -2.029  11.614  19.572  0.00  0.00    +0.000 C 
ATOM     12  O   UNL     1      -2.524  10.822  18.786  0.00  0.00    +0.000 OA
BRANCH   9  13
ATOM     13  C   UNL     1      -1.570  14.959  21.121  0.00  0.00    +0.000 C 
ATOM     14  O   UNL     1      -1.255  15.516  22.167  0.00  0.00    +0.000 OA
ATOM     15  N   UNL     1      -1.775  15.630  19.939  0.00  0.00    +0.000 N 
ATOM     16  H   UNL     1      -2.061  15.132  19.108  0.00  0.00    +0.000 HD
BRANCH  15  17
ATOM     17  C   UNL     1      -1.689  17.071  19.850  0.00  0.00    +0.000 C 
BRANCH  17  18
ATOM     18  C   UNL     1      -0.650  17.521  18.856  0.00  0.00    +0.000 A 
ATOM     19  C   UNL     1       0.680  17.090  18.962  0.00  0.00    +0.000 A 
ATOM     20  C   UNL     1       1.613  17.416  17.975  0.00  0.00    +0.000 A 
ATOM     21  C   UNL     1       1.225  18.176  16.873  0.00  0.00    +0.000 A 
ATOM     22  C   UNL     1      -0.088  18.630  16.769  0.00  0.00    +0.000 A 
ATOM     23  C   UNL     1      -1.020  18.308  17.758  0.00  0.00    +0.000 A 
ENDBRANCH  17  18
ENDBRANCH  15  17
ENDBRANCH   9  13
ENDBRANCH   4   7
BRANCH   1  24
ATOM     24  O   UNL     1       2.480   7.026  20.212  0.00  0.00    +0.000 OA
BRANCH  24  25
ATOM     25  C   UNL     1       1.827   5.797  19.900  0.00  0.00    +0.000 C 
BRANCH  25  27
ATOM     26  N   UNL     1       3.678   5.487  18.363  0.00  0.00    +0.000 N 
ATOM     27  C   UNL     1       2.350   5.194  18.604  0.00  0.00    +0.000 C 
ATOM     28  O   UNL     1       1.602   4.517  17.900  0.00  0.00    +0.000 OA
ATOM     29  H   UNL     1       4.168   5.944  19.128  0.00  0.00    +0.000 HD
BRANCH  26  34
ATOM     30  C   UNL     1       6.683   4.356  13.637  0.00  0.00    +0.000 C 
ATOM     31  C   UNL     1       5.883   4.635  14.872  0.00  0.00    +0.000 A 
ATOM     32  C   UNL     1       5.486   3.594  15.712  0.00  0.00    +0.000 A 
ATOM     33  C   UNL     1       4.758   3.860  16.873  0.00  0.00    +0.000 A 
ATOM     34  C   UNL     1       4.410   5.166  17.213  0.00  0.00    +0.000 A 
ATOM     35  C   UNL     1       4.782   6.208  16.356  0.00  0.00    +0.000 A 
ATOM     36  C   UNL     1       5.522   5.945  15.201  0.00  0.00    +0.000 A 
ENDBRANCH  26  34
ENDBRANCH  25  27
ENDBRANCH  24  25
ENDBRANCH   1  24
TORSDOF 8
ENDMDL
MODEL 8
REMARK VINA RESULT:      -7.6      3.283      6.403
REMARK  Name = 
REMARK  9 active torsions:
REMARK  status: ('A' for Active; 'I' for Inactive)
REMARK    1  A    between atoms: C_1  and  C_2
REMARK    2  A    between atoms: C_5  and  N_6
REMARK    3  A    between atoms: C_7  and  C_9
REMARK    4  A    between atoms: C_9  and  O_10
REMARK    5  A    between atoms: O_10  and  C_11
REMARK    6  A    between atoms: C_14  and  N_15
REMARK    7  A    between atoms: C_17  and  C_18
REMARK    8  A    between atoms: N_20  and  C_21
REMARK    9  A    between atoms: C_21  and  C_22
REMARK                            x       y       z     vdW  Elec       q    Type
REMARK                         _______ _______ _______ _____ _____    ______ ____
ROOT
ATOM      1  C   UNL     1       1.770   7.052  20.339  0.00  0.00    +0.000 A 
ATOM      2  C   UNL     1       0.964   7.734  21.249  0.00  0.00    +0.000 A 
ATOM      3  C   UNL     1       0.492   9.011  20.945  0.00  0.00    +0.000 A 
ATOM      4  C   UNL     1       0.887   9.649  19.766  0.00  0.00    +0.000 A 
ATOM      5  C   UNL     1       1.741   8.984  18.882  0.00  0.00    +0.000 A 
ATOM      6  C   UNL     1       2.166   7.682  19.160  0.00  0.00    +0.000 A 
ENDROOT
BRANCH   4   7
ATOM      7  N   UNL     1       0.433  10.947  19.476  0.00  0.00    +0.000 N 
ATOM      8  C   UNL     1       1.266  12.116  19.599  0.00  0.00    +0.000 C 
ATOM      9  C   UNL     1       0.295  13.267  19.387  0.00  0.00    +0.000 C 
ATOM     10  C   UNL     1      -0.708  12.685  18.399  0.00  0.00    +0.000 C 
ATOM     11  C   UNL     1      -0.726  11.216  18.748  0.00  0.00    +0.000 C 
ATOM     12  O   UNL     1      -1.579  10.434  18.360  0.00  0.00    +0.000 OA
BRANCH   9  13
ATOM     13  C   UNL     1       1.002  14.502  18.878  0.00  0.00    +0.000 C 
ATOM     14  O   UNL     1       0.427  15.575  18.728  0.00  0.00    +0.000 OA
ATOM     15  N   UNL     1       2.318  14.295  18.539  0.00  0.00    +0.000 N 
ATOM     16  H   UNL     1       2.742  13.386  18.654  0.00  0.00    +0.000 HD
BRANCH  15  17
ATOM     17  C   UNL     1       3.120  15.326  17.917  0.00  0.00    +0.000 C 
BRANCH  17  18
ATOM     18  C   UNL     1       4.518  15.376  18.477  0.00  0.00    +0.000 A 
ATOM     19  C   UNL     1       4.757  15.867  19.768  0.00  0.00    +0.000 A 
ATOM     20  C   UNL     1       6.037  15.806  20.325  0.00  0.00    +0.000 A 
ATOM     21  C   UNL     1       7.089  15.253  19.597  0.00  0.00    +0.000 A 
ATOM     22  C   UNL     1       6.868  14.784  18.303  0.00  0.00    +0.000 A 
ATOM     23  C   UNL     1       5.590  14.850  17.744  0.00  0.00    +0.000 A 
ENDBRANCH  17  18
ENDBRANCH  15  17
ENDBRANCH   9  13
ENDBRANCH   4   7
BRANCH   1  24
ATOM     24  O   UNL     1       2.231   5.777  20.517  0.00  0.00    +0.000 OA
BRANCH  24  25
ATOM     25  C   UNL     1       1.539   4.788  19.757  0.00  0.00    +0.000 C 
BRANCH  25  27
ATOM     26  N   UNL     1       3.524   4.896  18.366  0.00  0.00    +0.000 N 
ATOM     27  C   UNL     1       2.180   4.573  18.394  0.00  0.00    +0.000 C 
ATOM     28  O   UNL     1       1.503   4.145  17.461  0.00  0.00    +0.000 OA
ATOM     29  H   UNL     1       3.939   5.101  19.271  0.00  0.00    +0.000 HD
BRANCH  26  34
ATOM     30  C   UNL     1       6.935   4.752  13.785  0.00  0.00    +0.000 C 
ATOM     31  C   UNL     1       6.050   4.808  14.993  0.00  0.00    +0.000 A 
ATOM     32  C   UNL     1       5.524   6.023  15.432  0.00  0.00    +0.000 A 
ATOM     33  C   UNL     1       4.683   6.068  16.545  0.00  0.00    +0.000 A 
ATOM     34  C   UNL     1       4.359   4.905  17.241  0.00  0.00    +0.000 A 
ATOM     35  C   UNL     1       4.910   3.690  16.820  0.00  0.00    +0.000 A 
ATOM     36  C   UNL     1       5.740   3.641  15.697  0.00  0.00    +0.000 A 
ENDBRANCH  26  34
ENDBRANCH  25  27
ENDBRANCH  24  25
ENDBRANCH   1  24
TORSDOF 8
ENDMDL
MODEL 9
REMARK VINA RESULT:      -7.5      3.424      5.198
REMARK  Name = 
REMARK  9 active torsions:
REMARK  status: ('A' for Active; 'I' for Inactive)
REMARK    1  A    between atoms: C_1  and  C_2
REMARK    2  A    between atoms: C_5  and  N_6
REMARK    3  A    between atoms: C_7  and  C_9
REMARK    4  A    between atoms: C_9  and  O_10
REMARK    5  A    between atoms: O_10  and  C_11
REMARK    6  A    between atoms: C_14  and  N_15
REMARK    7  A    between atoms: C_17  and  C_18
REMARK    8  A    between atoms: N_20  and  C_21
REMARK    9  A    between atoms: C_21  and  C_22
REMARK                            x       y       z     vdW  Elec       q    Type
REMARK                         _______ _______ _______ _____ _____    ______ ____
ROOT
ATOM      1  C   UNL     1       2.562   6.598  19.315  0.00  0.00    +0.000 A 
ATOM      2  C   UNL     1       2.438   7.473  18.237  0.00  0.00    +0.000 A 
ATOM      3  C   UNL     1       1.841   8.721  18.415  0.00  0.00    +0.000 A 
ATOM      4  C   UNL     1       1.292   9.072  19.651  0.00  0.00    +0.000 A 
ATOM      5  C   UNL     1       1.368   8.169  20.715  0.00  0.00    +0.000 A 
ATOM      6  C   UNL     1       2.019   6.943  20.551  0.00  0.00    +0.000 A 
ENDROOT
BRANCH   4   7
ATOM      7  N   UNL     1       0.666  10.319  19.819  0.00  0.00    +0.000 N 
ATOM      8  C   UNL     1       1.182  11.347  20.686  0.00  0.00    +0.000 C 
ATOM      9  C   UNL     1       0.077  12.392  20.693  0.00  0.00    +0.000 C 
ATOM     10  C   UNL     1      -0.507  12.276  19.292  0.00  0.00    +0.000 C 
ATOM     11  C   UNL     1      -0.307  10.818  18.952  0.00  0.00    +0.000 C 
ATOM     12  O   UNL     1      -0.856  10.254  18.020  0.00  0.00    +0.000 OA
BRANCH   9  13
ATOM     13  C   UNL     1       0.616  13.767  21.014  0.00  0.00    +0.000 C 
ATOM     14  O   UNL     1       0.879  14.121  22.158  0.00  0.00    +0.000 OA
ATOM     15  N   UNL     1       0.720  14.597  19.923  0.00  0.00    +0.000 N 
ATOM     16  H   UNL     1       0.466  14.270  19.002  0.00  0.00    +0.000 HD
BRANCH  15  17
ATOM     17  C   UNL     1       1.097  15.988  20.051  0.00  0.00    +0.000 C 
BRANCH  17  18
ATOM     18  C   UNL     1       0.791  16.779  18.806  0.00  0.00    +0.000 A 
ATOM     19  C   UNL     1      -0.513  17.219  18.538  0.00  0.00    +0.000 A 
ATOM     20  C   UNL     1      -0.771  18.048  17.443  0.00  0.00    +0.000 A 
ATOM     21  C   UNL     1       0.272  18.445  16.608  0.00  0.00    +0.000 A 
ATOM     22  C   UNL     1       1.568  17.995  16.851  0.00  0.00    +0.000 A 
ATOM     23  C   UNL     1       1.825  17.162  17.942  0.00  0.00    +0.000 A 
ENDBRANCH  17  18
ENDBRANCH  15  17
ENDBRANCH   9  13
ENDBRANCH   4   7
BRANCH   1  24
ATOM     24  O   UNL     1       3.184   5.381  19.256  0.00  0.00    +0.000 OA
BRANCH  24  25
ATOM     25  C   UNL     1       4.609   5.444  19.293  0.00  0.00    +0.000 C 
BRANCH  25  27
ATOM     26  N   UNL     1       5.046   4.624  17.053  0.00  0.00    +0.000 N 
ATOM     27  C   UNL     1       5.199   5.694  17.913  0.00  0.00    +0.000 C 
ATOM     28  O   UNL     1       5.737   6.772  17.664  0.00  0.00    +0.000 OA
ATOM     29  H   UNL     1       4.453   3.872  17.396  0.00  0.00    +0.000 HD
BRANCH  26  34
ATOM     30  C   UNL     1       7.346   4.203  11.839  0.00  0.00    +0.000 C 
ATOM     31  C   UNL     1       6.725   4.320  13.197  0.00  0.00    +0.000 A 
ATOM     32  C   UNL     1       5.394   3.956  13.404  0.00  0.00    +0.000 A 
ATOM     33  C   UNL     1       4.824   4.048  14.674  0.00  0.00    +0.000 A 
ATOM     34  C   UNL     1       5.570   4.509  15.759  0.00  0.00    +0.000 A 
ATOM     35  C   UNL     1       6.896   4.902  15.547  0.00  0.00    +0.000 A 
ATOM     36  C   UNL     1       7.471   4.797  14.278  0.00  0.00    +0.000 A 
ENDBRANCH  26  34
ENDBRANCH  25  27
ENDBRANCH  24  25
ENDBRANCH   1  24
TORSDOF 8
ENDMDL
