MODEL 1
REMARK VINA RESULT:      -6.8      0.000      0.000
REMARK  Name = 
REMARK  6 active torsions:
REMARK  status: ('A' for Active; 'I' for Inactive)
REMARK    1  A    between atoms: C_1  and  O_2
REMARK    2  A    between atoms: O_2  and  C_3
REMARK    3  A    between atoms: C_3  and  C_4
REMARK    4  A    between atoms: C_4  and  N_5
REMARK    5  A    between atoms: C_9  and  C_10
REMARK    6  A    between atoms: C_10  and  N_11
REMARK                            x       y       z     vdW  Elec       q    Type
REMARK                         _______ _______ _______ _____ _____    ______ ____
ROOT
ATOM      1  N   UNL     1       3.307   5.831  18.653  0.00  0.00    +0.000 N 
ATOM      2  N   UNL     1       3.479   6.755  17.637  0.00  0.00    +0.000 NA
ATOM      3  C   UNL     1       2.906   7.913  17.752  0.00  0.00    +0.000 A 
ATOM      4  C   UNL     1       2.075   8.307  18.882  0.00  0.00    +0.000 A 
ATOM      5  C   UNL     1       1.425   9.541  18.911  0.00  0.00    +0.000 A 
ATOM      6  C   UNL     1       0.605   9.854  19.998  0.00  0.00    +0.000 A 
ATOM      7  C   UNL     1       0.461   8.948  21.052  0.00  0.00    +0.000 A 
ATOM      8  C   UNL     1       1.136   7.726  21.022  0.00  0.00    +0.000 A 
ATOM      9  C   UNL     1       1.933   7.402  19.920  0.00  0.00    +0.000 A 
ATOM     10  C   UNL     1       2.607   6.096  19.833  0.00  0.00    +0.000 A 
ATOM     11  O   UNL     1       2.515   5.318  20.776  0.00  0.00    +0.000 OA
ENDROOT
BRANCH   1  12
ATOM     12  C   UNL     1       4.015   4.560  18.514  0.00  0.00    +0.000 C 
BRANCH  12  17
ATOM     13  N   UNL     1       6.284   4.439  17.311  0.00  0.00    +0.000 N 
ATOM     14  C   UNL     1       7.582   4.665  17.685  0.00  0.00    +0.000 A 
ATOM     15  N   UNL     1       7.670   5.151  18.900  0.00  0.00    +0.000 NA
ATOM     16  C   UNL     1       6.381   5.217  19.346  0.00  0.00    +0.000 A 
ATOM     17  C   UNL     1       5.489   4.760  18.395  0.00  0.00    +0.000 A 
BRANCH  13  18
ATOM     18  C   UNL     1       5.854   3.994  15.994  0.00  0.00    +0.000 C 
BRANCH  18  19
ATOM     19  C   UNL     1       5.889   5.053  14.886  0.00  0.00    +0.000 C 
BRANCH  19  21
ATOM     20  C   UNL     1       6.172   3.618  13.030  0.00  0.00    +0.000 C 
ATOM     21  O   UNL     1       6.761   4.624  13.844  0.00  0.00    +0.000 OA
ENDBRANCH  19  21
ENDBRANCH  18  19
ENDBRANCH  13  18
ENDBRANCH  12  17
ENDBRANCH   1  12
TORSDOF 5
ENDMDL
MODEL 2
REMARK VINA RESULT:      -6.7      2.755      4.047
REMARK  Name = 
REMARK  6 active torsions:
REMARK  status: ('A' for Active; 'I' for Inactive)
REMARK    1  A    between atoms: C_1  and  O_2
REMARK    2  A    between atoms: O_2  and  C_3
REMARK    3  A    between atoms: C_3  and  C_4
REMARK    4  A    between atoms: C_4  and  N_5
REMARK    5  A    between atoms: C_9  and  C_10
REMARK    6  A    between atoms: C_10  and  N_11
REMARK                            x       y       z     vdW  Elec       q    Type
REMARK                         _______ _______ _______ _____ _____    ______ ____
ROOT
ATOM      1  N   UNL     1       2.541   7.339  18.791  0.00  0.00    +0.000 N 
ATOM      2  N   UNL     1       2.299   6.619  19.948  0.00  0.00    +0.000 NA
ATOM      3  C   UNL     1       1.575   7.165  20.875  0.00  0.00    +0.000 A 
ATOM      4  C   UNL     1       1.004   8.503  20.788  0.00  0.00    +0.000 A 
ATOM      5  C   UNL     1       0.297   9.062  21.852  0.00  0.00    +0.000 A 
ATOM      6  C   UNL     1      -0.194  10.365  21.734  0.00  0.00    +0.000 A 
ATOM      7  C   UNL     1       0.003  11.085  20.552  0.00  0.00    +0.000 A 
ATOM      8  C   UNL     1       0.693  10.504  19.486  0.00  0.00    +0.000 A 
ATOM      9  C   UNL     1       1.209   9.211  19.616  0.00  0.00    +0.000 A 
ATOM     10  C   UNL     1       1.992   8.597  18.531  0.00  0.00    +0.000 A 
ATOM     11  O   UNL     1       2.129   9.211  17.479  0.00  0.00    +0.000 OA
ENDROOT
BRANCH   1  12
ATOM     12  C   UNL     1       3.312   6.667  17.747  0.00  0.00    +0.000 C 
BRANCH  12  17
ATOM     13  N   UNL     1       3.514   4.167  18.309  0.00  0.00    +0.000 N 
ATOM     14  C   UNL     1       4.430   3.406  18.986  0.00  0.00    +0.000 A 
ATOM     15  N   UNL     1       5.490   4.098  19.332  0.00  0.00    +0.000 NA
ATOM     16  C   UNL     1       5.241   5.366  18.890  0.00  0.00    +0.000 A 
ATOM     17  C   UNL     1       4.011   5.456  18.268  0.00  0.00    +0.000 A 
BRANCH  13  18
ATOM     18  C   UNL     1       2.284   3.668  17.712  0.00  0.00    +0.000 C 
BRANCH  18  19
ATOM     19  C   UNL     1       1.415   2.783  18.612  0.00  0.00    +0.000 C 
BRANCH  19  21
ATOM     20  C   UNL     1       1.257   2.991  20.962  0.00  0.00    +0.000 C 
ATOM     21  O   UNL     1       0.917   3.556  19.701  0.00  0.00    +0.000 OA
ENDBRANCH  19  21
ENDBRANCH  18  19
ENDBRANCH  13  18
ENDBRANCH  12  17
ENDBRANCH   1  12
TORSDOF 5
ENDMDL
MODEL 3
REMARK VINA RESULT:      -6.6      2.249      3.481
REMARK  Name = 
REMARK  6 active torsions:
REMARK  status: ('A' for Active; 'I' for Inactive)
REMARK    1  A    between atoms: C_1  and  O_2
REMARK    2  A    between atoms: O_2  and  C_3
REMARK    3  A    between atoms: C_3  and  C_4
REMARK    4  A    between atoms: C_4  and  N_5
REMARK    5  A    between atoms: C_9  and  C_10
REMARK    6  A    between atoms: C_10  and  N_11
REMARK                            x       y       z     vdW  Elec       q    Type
REMARK                         _______ _______ _______ _____ _____    ______ ____
ROOT
ATOM      1  N   UNL     1       3.759   5.881  17.978  0.00  0.00    +0.000 N 
ATOM      2  N   UNL     1       3.343   6.534  19.125  0.00  0.00    +0.000 NA
ATOM      3  C   UNL     1       2.464   5.954  19.881  0.00  0.00    +0.000 A 
ATOM      4  C   UNL     1       1.868   4.654  19.597  0.00  0.00    +0.000 A 
ATOM      5  C   UNL     1       0.872   4.117  20.411  0.00  0.00    +0.000 A 
ATOM      6  C   UNL     1       0.303   2.887  20.072  0.00  0.00    +0.000 A 
ATOM      7  C   UNL     1       0.749   2.196  18.942  0.00  0.00    +0.000 A 
ATOM      8  C   UNL     1       1.764   2.734  18.148  0.00  0.00    +0.000 A 
ATOM      9  C   UNL     1       2.312   3.979  18.472  0.00  0.00    +0.000 A 
ATOM     10  C   UNL     1       3.340   4.598  17.619  0.00  0.00    +0.000 A 
ATOM     11  O   UNL     1       3.761   3.973  16.652  0.00  0.00    +0.000 OA
ENDROOT
BRANCH   1  12
ATOM     12  C   UNL     1       4.793   6.541  17.183  0.00  0.00    +0.000 C 
BRANCH  12  17
ATOM     13  N   UNL     1       6.746   5.160  16.241  0.00  0.00    +0.000 N 
ATOM     14  C   UNL     1       7.832   4.533  16.791  0.00  0.00    +0.000 A 
ATOM     15  N   UNL     1       7.953   4.785  18.073  0.00  0.00    +0.000 NA
ATOM     16  C   UNL     1       6.887   5.583  18.375  0.00  0.00    +0.000 A 
ATOM     17  C   UNL     1       6.098   5.821  17.267  0.00  0.00    +0.000 A 
BRANCH  13  18
ATOM     18  C   UNL     1       6.399   5.154  14.827  0.00  0.00    +0.000 C 
BRANCH  18  19
ATOM     19  C   UNL     1       6.282   3.773  14.173  0.00  0.00    +0.000 C 
BRANCH  19  21
ATOM     20  C   UNL     1       5.630   3.055  12.017  0.00  0.00    +0.000 C 
ATOM     21  O   UNL     1       6.501   3.890  12.770  0.00  0.00    +0.000 OA
ENDBRANCH  19  21
ENDBRANCH  18  19
ENDBRANCH  13  18
ENDBRANCH  12  17
ENDBRANCH   1  12
TORSDOF 5
ENDMDL
MODEL 4
REMARK VINA RESULT:      -6.6      2.353      6.565
REMARK  Name = 
REMARK  6 active torsions:
REMARK  status: ('A' for Active; 'I' for Inactive)
REMARK    1  A    between atoms: C_1  and  O_2
REMARK    2  A    between atoms: O_2  and  C_3
REMARK    3  A    between atoms: C_3  and  C_4
REMARK    4  A    between atoms: C_4  and  N_5
REMARK    5  A    between atoms: C_9  and  C_10
REMARK    6  A    between atoms: C_10  and  N_11
REMARK                            x       y       z     vdW  Elec       q    Type
REMARK                         _______ _______ _______ _____ _____    ______ ____
ROOT
ATOM      1  N   UNL     1       5.277   4.024  18.303  0.00  0.00    +0.000 N 
ATOM      2  N   UNL     1       6.529   4.578  18.500  0.00  0.00    +0.000 NA
ATOM      3  C   UNL     1       7.241   4.882  17.460  0.00  0.00    +0.000 A 
ATOM      4  C   UNL     1       6.814   4.667  16.083  0.00  0.00    +0.000 A 
ATOM      5  C   UNL     1       7.656   4.947  15.008  0.00  0.00    +0.000 A 
ATOM      6  C   UNL     1       7.215   4.683  13.709  0.00  0.00    +0.000 A 
ATOM      7  C   UNL     1       5.932   4.169  13.494  0.00  0.00    +0.000 A 
ATOM      8  C   UNL     1       5.090   3.915  14.578  0.00  0.00    +0.000 A 
ATOM      9  C   UNL     1       5.544   4.152  15.879  0.00  0.00    +0.000 A 
ATOM     10  C   UNL     1       4.700   3.837  17.044  0.00  0.00    +0.000 A 
ATOM     11  O   UNL     1       3.561   3.426  16.855  0.00  0.00    +0.000 OA
ENDROOT
BRANCH   1  12
ATOM     12  C   UNL     1       4.482   3.750  19.498  0.00  0.00    +0.000 C 
BRANCH  12  17
ATOM     13  N   UNL     1       2.487   4.842  20.697  0.00  0.00    +0.000 N 
ATOM     14  C   UNL     1       1.823   6.033  20.565  0.00  0.00    +0.000 A 
ATOM     15  N   UNL     1       2.405   6.832  19.703  0.00  0.00    +0.000 NA
ATOM     16  C   UNL     1       3.473   6.123  19.233  0.00  0.00    +0.000 A 
ATOM     17  C   UNL     1       3.546   4.870  19.809  0.00  0.00    +0.000 A 
BRANCH  13  18
ATOM     18  C   UNL     1       2.146   3.790  21.642  0.00  0.00    +0.000 C 
BRANCH  18  19
ATOM     19  C   UNL     1       1.435   2.567  21.054  0.00  0.00    +0.000 C 
BRANCH  19  21
ATOM     20  C   UNL     1       0.918   2.269  18.766  0.00  0.00    +0.000 C 
ATOM     21  O   UNL     1       0.612   2.973  19.964  0.00  0.00    +0.000 OA
ENDBRANCH  19  21
ENDBRANCH  18  19
ENDBRANCH  13  18
ENDBRANCH  12  17
ENDBRANCH   1  12
TORSDOF 5
ENDMDL
MODEL 5
REMARK VINA RESULT:      -6.6      2.633      5.578
REMARK  Name = 
REMARK  6 active torsions:
REMARK  status: ('A' for Active; 'I' for Inactive)
REMARK    1  A    between atoms: C_1  and  O_2
REMARK    2  A    between atoms: O_2  and  C_3
REMARK    3  A    between atoms: C_3  and  C_4
REMARK    4  A    between atoms: C_4  and  N_5
REMARK    5  A    between atoms: C_9  and  C_10
REMARK    6  A    between atoms: C_10  and  N_11
REMARK                            x       y       z     vdW  Elec       q    Type
REMARK                         _______ _______ _______ _____ _____    ______ ____
ROOT
ATOM      1  N   UNL     1       4.331   3.725  17.659  0.00  0.00    +0.000 N 
ATOM      2  N   UNL     1       4.312   4.328  16.414  0.00  0.00    +0.000 NA
ATOM      3  C   UNL     1       5.180   5.260  16.167  0.00  0.00    +0.000 A 
ATOM      4  C   UNL     1       6.175   5.729  17.123  0.00  0.00    +0.000 A 
ATOM      5  C   UNL     1       7.032   6.787  16.821  0.00  0.00    +0.000 A 
ATOM      6  C   UNL     1       7.939   7.226  17.788  0.00  0.00    +0.000 A 
ATOM      7  C   UNL     1       8.000   6.592  19.033  0.00  0.00    +0.000 A 
ATOM      8  C   UNL     1       7.153   5.519  19.313  0.00  0.00    +0.000 A 
ATOM      9  C   UNL     1       6.225   5.099  18.355  0.00  0.00    +0.000 A 
ATOM     10  C   UNL     1       5.277   4.010  18.646  0.00  0.00    +0.000 A 
ATOM     11  O   UNL     1       5.359   3.427  19.721  0.00  0.00    +0.000 OA
ENDROOT
BRANCH   1  12
ATOM     12  C   UNL     1       3.377   2.640  17.879  0.00  0.00    +0.000 C 
BRANCH  12  17
ATOM     13  N   UNL     1       1.805   4.206  19.179  0.00  0.00    +0.000 N 
ATOM     14  C   UNL     1       1.085   4.097  20.339  0.00  0.00    +0.000 A 
ATOM     15  N   UNL     1       1.130   2.885  20.838  0.00  0.00    +0.000 NA
ATOM     16  C   UNL     1       1.935   2.184  19.986  0.00  0.00    +0.000 A 
ATOM     17  C   UNL     1       2.396   2.977  18.953  0.00  0.00    +0.000 A 
BRANCH  13  18
ATOM     18  C   UNL     1       1.871   5.393  18.338  0.00  0.00    +0.000 C 
BRANCH  18  19
ATOM     19  C   UNL     1       2.574   6.609  18.953  0.00  0.00    +0.000 C 
BRANCH  19  21
ATOM     20  C   UNL     1       2.269   8.640  17.783  0.00  0.00    +0.000 C 
ATOM     21  O   UNL     1       3.051   7.459  17.913  0.00  0.00    +0.000 OA
ENDBRANCH  19  21
ENDBRANCH  18  19
ENDBRANCH  13  18
ENDBRANCH  12  17
ENDBRANCH   1  12
TORSDOF 5
ENDMDL
MODEL 6
REMARK VINA RESULT:      -6.5      2.462      4.545
REMARK  Name = 
REMARK  6 active torsions:
REMARK  status: ('A' for Active; 'I' for Inactive)
REMARK    1  A    between atoms: C_1  and  O_2
REMARK    2  A    between atoms: O_2  and  C_3
REMARK    3  A    between atoms: C_3  and  C_4
REMARK    4  A    between atoms: C_4  and  N_5
REMARK    5  A    between atoms: C_9  and  C_10
REMARK    6  A    between atoms: C_10  and  N_11
REMARK                            x       y       z     vdW  Elec       q    Type
REMARK                         _______ _______ _______ _____ _____    ______ ____
ROOT
ATOM      1  N   UNL     1       4.383   3.695  17.556  0.00  0.00    +0.000 N 
ATOM      2  N   UNL     1       3.189   3.820  16.868  0.00  0.00    +0.000 NA
ATOM      3  C   UNL     1       2.080   3.655  17.520  0.00  0.00    +0.000 A 
ATOM      4  C   UNL     1       2.004   3.331  18.939  0.00  0.00    +0.000 A 
ATOM      5  C   UNL     1       0.782   3.093  19.566  0.00  0.00    +0.000 A 
ATOM      6  C   UNL     1       0.766   2.745  20.919  0.00  0.00    +0.000 A 
ATOM      7  C   UNL     1       1.963   2.663  21.636  0.00  0.00    +0.000 A 
ATOM      8  C   UNL     1       3.178   2.927  21.002  0.00  0.00    +0.000 A 
ATOM      9  C   UNL     1       3.195   3.247  19.641  0.00  0.00    +0.000 A 
ATOM     10  C   UNL     1       4.466   3.471  18.932  0.00  0.00    +0.000 A 
ATOM     11  O   UNL     1       5.512   3.440  19.570  0.00  0.00    +0.000 OA
ENDROOT
BRANCH   1  12
ATOM     12  C   UNL     1       5.608   3.946  16.800  0.00  0.00    +0.000 C 
BRANCH  12  17
ATOM     13  N   UNL     1       5.779   6.499  17.045  0.00  0.00    +0.000 N 
ATOM     14  C   UNL     1       6.762   7.361  17.454  0.00  0.00    +0.000 A 
ATOM     15  N   UNL     1       7.812   6.728  17.921  0.00  0.00    +0.000 NA
ATOM     16  C   UNL     1       7.513   5.403  17.784  0.00  0.00    +0.000 A 
ATOM     17  C   UNL     1       6.266   5.218  17.220  0.00  0.00    +0.000 A 
BRANCH  13  18
ATOM     18  C   UNL     1       4.460   6.893  16.571  0.00  0.00    +0.000 C 
BRANCH  18  19
ATOM     19  C   UNL     1       3.543   7.546  17.611  0.00  0.00    +0.000 C 
BRANCH  19  21
ATOM     20  C   UNL     1       2.337   7.080  19.590  0.00  0.00    +0.000 C 
ATOM     21  O   UNL     1       3.393   6.674  18.728  0.00  0.00    +0.000 OA
ENDBRANCH  19  21
ENDBRANCH  18  19
ENDBRANCH  13  18
ENDBRANCH  12  17
ENDBRANCH   1  12
TORSDOF 5
ENDMDL
MODEL 7
REMARK VINA RESULT:      -6.5      2.839      4.335
REMARK  Name = 
REMARK  6 active torsions:
REMARK  status: ('A' for Active; 'I' for Inactive)
REMARK    1  A    between atoms: C_1  and  O_2
REMARK    2  A    between atoms: O_2  and  C_3
REMARK    3  A    between atoms: C_3  and  C_4
REMARK    4  A    between atoms: C_4  and  N_5
REMARK    5  A    between atoms: C_9  and  C_10
REMARK    6  A    between atoms: C_10  and  N_11
REMARK                            x       y       z     vdW  Elec       q    Type
REMARK                         _______ _______ _______ _____ _____    ______ ____
ROOT
ATOM      1  N   UNL     1       3.798   5.154  17.603  0.00  0.00    +0.000 N 
ATOM      2  N   UNL     1       3.511   3.972  16.943  0.00  0.00    +0.000 NA
ATOM      3  C   UNL     1       2.845   3.057  17.577  0.00  0.00    +0.000 A 
ATOM      4  C   UNL     1       2.384   3.184  18.953  0.00  0.00    +0.000 A 
ATOM      5  C   UNL     1       1.736   2.134  19.603  0.00  0.00    +0.000 A 
ATOM      6  C   UNL     1       1.352   2.292  20.937  0.00  0.00    +0.000 A 
ATOM      7  C   UNL     1       1.593   3.499  21.599  0.00  0.00    +0.000 A 
ATOM      8  C   UNL     1       2.221   4.550  20.930  0.00  0.00    +0.000 A 
ATOM      9  C   UNL     1       2.632   4.381  19.604  0.00  0.00    +0.000 A 
ATOM     10  C   UNL     1       3.350   5.452  18.892  0.00  0.00    +0.000 A 
ATOM     11  O   UNL     1       3.524   6.525  19.459  0.00  0.00    +0.000 OA
ENDROOT
BRANCH   1  12
ATOM     12  C   UNL     1       4.499   6.183  16.837  0.00  0.00    +0.000 C 
BRANCH  12  17
ATOM     13  N   UNL     1       6.795   5.104  16.420  0.00  0.00    +0.000 N 
ATOM     14  C   UNL     1       7.523   4.798  15.301  0.00  0.00    +0.000 A 
ATOM     15  N   UNL     1       6.848   5.011  14.197  0.00  0.00    +0.000 NA
ATOM     16  C   UNL     1       5.643   5.503  14.612  0.00  0.00    +0.000 A 
ATOM     17  C   UNL     1       5.579   5.599  15.988  0.00  0.00    +0.000 A 
BRANCH  13  18
ATOM     18  C   UNL     1       7.230   4.885  17.792  0.00  0.00    +0.000 C 
BRANCH  18  19
ATOM     19  C   UNL     1       7.140   6.099  18.723  0.00  0.00    +0.000 C 
BRANCH  19  21
ATOM     20  C   UNL     1       7.807   8.124  17.703  0.00  0.00    +0.000 C 
ATOM     21  O   UNL     1       8.220   6.988  18.453  0.00  0.00    +0.000 OA
ENDBRANCH  19  21
ENDBRANCH  18  19
ENDBRANCH  13  18
ENDBRANCH  12  17
ENDBRANCH   1  12
TORSDOF 5
ENDMDL
MODEL 8
REMARK VINA RESULT:      -6.5      1.819      2.894
REMARK  Name = 
REMARK  6 active torsions:
REMARK  status: ('A' for Active; 'I' for Inactive)
REMARK    1  A    between atoms: C_1  and  O_2
REMARK    2  A    between atoms: O_2  and  C_3
REMARK    3  A    between atoms: C_3  and  C_4
REMARK    4  A    between atoms: C_4  and  N_5
REMARK    5  A    between atoms: C_9  and  C_10
REMARK    6  A    between atoms: C_10  and  N_11
REMARK                            x       y       z     vdW  Elec       q    Type
REMARK                         _______ _______ _______ _____ _____    ______ ____
ROOT
ATOM      1  N   UNL     1       3.833   4.972  17.740  0.00  0.00    +0.000 N 
ATOM      2  N   UNL     1       3.994   6.146  17.024  0.00  0.00    +0.000 NA
ATOM      3  C   UNL     1       3.451   7.230  17.485  0.00  0.00    +0.000 A 
ATOM      4  C   UNL     1       2.666   7.296  18.711  0.00  0.00    +0.000 A 
ATOM      5  C   UNL     1       2.046   8.478  19.114  0.00  0.00    +0.000 A 
ATOM      6  C   UNL     1       1.269   8.478  20.275  0.00  0.00    +0.000 A 
ATOM      7  C   UNL     1       1.139   7.311  21.033  0.00  0.00    +0.000 A 
ATOM      8  C   UNL     1       1.784   6.140  20.631  0.00  0.00    +0.000 A 
ATOM      9  C   UNL     1       2.538   6.134  19.453  0.00  0.00    +0.000 A 
ATOM     10  C   UNL     1       3.179   4.898  18.972  0.00  0.00    +0.000 A 
ATOM     11  O   UNL     1       3.100   3.885  19.658  0.00  0.00    +0.000 OA
ENDROOT
BRANCH   1  12
ATOM     12  C   UNL     1       4.508   3.785  17.219  0.00  0.00    +0.000 C 
BRANCH  12  17
ATOM     13  N   UNL     1       6.842   4.587  16.499  0.00  0.00    +0.000 N 
ATOM     14  C   UNL     1       7.416   4.921  15.300  0.00  0.00    +0.000 A 
ATOM     15  N   UNL     1       6.621   4.674  14.286  0.00  0.00    +0.000 NA
ATOM     16  C   UNL     1       5.475   4.189  14.847  0.00  0.00    +0.000 A 
ATOM     17  C   UNL     1       5.563   4.142  16.225  0.00  0.00    +0.000 A 
BRANCH  13  18
ATOM     18  C   UNL     1       7.504   4.652  17.794  0.00  0.00    +0.000 C 
BRANCH  18  19
ATOM     19  C   UNL     1       7.180   5.882  18.649  0.00  0.00    +0.000 C 
BRANCH  19  21
ATOM     20  C   UNL     1       7.666   7.955  17.622  0.00  0.00    +0.000 C 
ATOM     21  O   UNL     1       8.162   6.890  18.425  0.00  0.00    +0.000 OA
ENDBRANCH  19  21
ENDBRANCH  18  19
ENDBRANCH  13  18
ENDBRANCH  12  17
ENDBRANCH   1  12
TORSDOF 5
ENDMDL
MODEL 9
REMARK VINA RESULT:      -6.4      2.804      4.060
REMARK  Name = 
REMARK  6 active torsions:
REMARK  status: ('A' for Active; 'I' for Inactive)
REMARK    1  A    between atoms: C_1  and  O_2
REMARK    2  A    between atoms: O_2  and  C_3
REMARK    3  A    between atoms: C_3  and  C_4
REMARK    4  A    between atoms: C_4  and  N_5
REMARK    5  A    between atoms: C_9  and  C_10
REMARK    6  A    between atoms: C_10  and  N_11
REMARK                            x       y       z     vdW  Elec       q    Type
REMARK                         _______ _______ _______ _____ _____    ______ ____
ROOT
ATOM      1  N   UNL     1       2.281   7.662  18.948  0.00  0.00    +0.000 N 
ATOM      2  N   UNL     1       2.002   7.170  20.211  0.00  0.00    +0.000 NA
ATOM      3  C   UNL     1       1.268   7.886  21.005  0.00  0.00    +0.000 A 
ATOM      4  C   UNL     1       0.721   9.192  20.659  0.00  0.00    +0.000 A 
ATOM      5  C   UNL     1      -0.000   9.946  21.584  0.00  0.00    +0.000 A 
ATOM      6  C   UNL     1      -0.467  11.211  21.217  0.00  0.00    +0.000 A 
ATOM      7  C   UNL     1      -0.233  11.698  19.928  0.00  0.00    +0.000 A 
ATOM      8  C   UNL     1       0.470  10.923  19.004  0.00  0.00    +0.000 A 
ATOM      9  C   UNL     1       0.963   9.670  19.382  0.00  0.00    +0.000 A 
ATOM     10  C   UNL     1       1.759   8.857  18.448  0.00  0.00    +0.000 A 
ATOM     11  O   UNL     1       1.929   9.266  17.305  0.00  0.00    +0.000 OA
ENDROOT
BRANCH   1  12
ATOM     12  C   UNL     1       3.063   6.800  18.064  0.00  0.00    +0.000 C 
BRANCH  12  17
ATOM     13  N   UNL     1       3.339   4.348  18.783  0.00  0.00    +0.000 N 
ATOM     14  C   UNL     1       2.655   3.189  18.527  0.00  0.00    +0.000 A 
ATOM     15  N   UNL     1       1.555   3.404  17.846  0.00  0.00    +0.000 NA
ATOM     16  C   UNL     1       1.537   4.751  17.624  0.00  0.00    +0.000 A 
ATOM     17  C   UNL     1       2.643   5.372  18.171  0.00  0.00    +0.000 A 
BRANCH  13  18
ATOM     18  C   UNL     1       4.542   4.452  19.597  0.00  0.00    +0.000 C 
BRANCH  18  19
ATOM     19  C   UNL     1       5.846   4.704  18.832  0.00  0.00    +0.000 C 
BRANCH  19  21
ATOM     20  C   UNL     1       7.841   5.950  19.066  0.00  0.00    +0.000 C 
ATOM     21  O   UNL     1       6.839   5.191  19.732  0.00  0.00    +0.000 OA
ENDBRANCH  19  21
ENDBRANCH  18  19
ENDBRANCH  13  18
ENDBRANCH  12  17
ENDBRANCH   1  12
TORSDOF 5
ENDMDL
