MODEL 1
REMARK VINA RESULT:      -7.0      0.000      0.000
REMARK  Name = 
REMARK  3 active torsions:
REMARK  status: ('A' for Active; 'I' for Inactive)
REMARK    1  A    between atoms: C_1  and  C_2
REMARK    2  A    between atoms: C_4  and  N_5
REMARK    3  A    between atoms: N_7  and  C_8
REMARK                            x       y       z     vdW  Elec       q    Type
REMARK                         _______ _______ _______ _____ _____    ______ ____
ROOT
ATOM      1  N   UNL     1      -0.466  12.246  18.794  0.00  0.00    +0.000 N 
ATOM      2  C   UNL     1       0.418  11.783  19.734  0.00  0.00    +0.000 C 
ATOM      3  N   UNL     1       0.963  10.649  19.979  0.00  0.00    +0.000 NA
ATOM      4  N   UNL     1       0.919  12.742  20.578  0.00  0.00    +0.000 N 
ATOM      5  C   UNL     1       1.197  14.043  20.351  0.00  0.00    +0.000 A 
ATOM      6  N   UNL     1       0.781  14.753  19.320  0.00  0.00    +0.000 NA
ATOM      7  C   UNL     1       1.359  16.011  19.355  0.00  0.00    +0.000 A 
ATOM      8  C   UNL     1       2.163  16.274  20.441  0.00  0.00    +0.000 A 
ATOM      9  S   UNL     1       2.231  14.891  21.444  0.00  0.00    +0.000 S 
ATOM     10  H   UNL     1      -0.445  13.262  18.723  0.00  0.00    +0.000 HD
ATOM     11  H   UNL     1       1.538  12.297  21.244  0.00  0.00    +0.000 HD
ENDROOT
BRANCH   1  15
ATOM     12  C   UNL     1      -3.140   9.895  15.268  0.00  0.00    +0.000 C 
ATOM     13  C   UNL     1      -2.984  10.626  16.566  0.00  0.00    +0.000 A 
ATOM     14  C   UNL     1      -1.745  10.978  17.094  0.00  0.00    +0.000 A 
ATOM     15  C   UNL     1      -1.684  11.708  18.288  0.00  0.00    +0.000 A 
ATOM     16  C   UNL     1      -2.918  11.980  18.970  0.00  0.00    +0.000 A 
ATOM     17  C   UNL     1      -3.040  12.638  20.223  0.00  0.00    +0.000 A 
ATOM     18  C   UNL     1      -4.287  12.845  20.827  0.00  0.00    +0.000 A 
ATOM     19  C   UNL     1      -5.441  12.421  20.187  0.00  0.00    +0.000 A 
ATOM     20  C   UNL     1      -5.342  11.784  18.957  0.00  0.00    +0.000 A 
ATOM     21  C   UNL     1      -4.113  11.545  18.351  0.00  0.00    +0.000 A 
ATOM     22  N   UNL     1      -4.148  10.906  17.185  0.00  0.00    +0.000 NA
ENDBRANCH   1  15
BRANCH   3  23
ATOM     23  C   UNL     1       0.889   9.429  19.213  0.00  0.00    +0.000 C 
ATOM     24  C   UNL     1       1.785   9.593  17.977  0.00  0.00    +0.000 C 
ATOM     25  C   UNL     1       2.579   8.303  17.814  0.00  0.00    +0.000 C 
ATOM     26  C   UNL     1       2.348   7.471  19.063  0.00  0.00    +0.000 C 
ATOM     27  C   UNL     1       1.574   8.341  20.035  0.00  0.00    +0.000 C 
ENDBRANCH   3  23
TORSDOF 2
ENDMDL
MODEL 2
REMARK VINA RESULT:      -6.9      2.544      6.022
REMARK  Name = 
REMARK  3 active torsions:
REMARK  status: ('A' for Active; 'I' for Inactive)
REMARK    1  A    between atoms: C_1  and  C_2
REMARK    2  A    between atoms: C_4  and  N_5
REMARK    3  A    between atoms: N_7  and  C_8
REMARK                            x       y       z     vdW  Elec       q    Type
REMARK                         _______ _______ _______ _____ _____    ______ ____
ROOT
ATOM      1  N   UNL     1      -1.660  11.438  19.006  0.00  0.00    +0.000 N 
ATOM      2  C   UNL     1      -2.007  12.708  19.389  0.00  0.00    +0.000 C 
ATOM      3  N   UNL     1      -1.384  13.824  19.484  0.00  0.00    +0.000 NA
ATOM      4  N   UNL     1      -3.340  12.885  19.667  0.00  0.00    +0.000 N 
ATOM      5  C   UNL     1      -4.428  12.304  19.121  0.00  0.00    +0.000 A 
ATOM      6  N   UNL     1      -4.430  11.217  18.372  0.00  0.00    +0.000 NA
ATOM      7  C   UNL     1      -5.706  10.983  17.890  0.00  0.00    +0.000 A 
ATOM      8  C   UNL     1      -6.682  11.855  18.320  0.00  0.00    +0.000 A 
ATOM      9  S   UNL     1      -5.978  13.034  19.340  0.00  0.00    +0.000 S 
ATOM     10  H   UNL     1      -2.478  10.877  18.772  0.00  0.00    +0.000 HD
ATOM     11  H   UNL     1      -3.486  13.842  19.962  0.00  0.00    +0.000 HD
ENDROOT
BRANCH   1  15
ATOM     12  C   UNL     1       2.211   8.535  17.703  0.00  0.00    +0.000 C 
ATOM     13  C   UNL     1       1.294   9.180  18.698  0.00  0.00    +0.000 A 
ATOM     14  C   UNL     1       0.317  10.105  18.340  0.00  0.00    +0.000 A 
ATOM     15  C   UNL     1      -0.536  10.624  19.323  0.00  0.00    +0.000 A 
ATOM     16  C   UNL     1      -0.297  10.243  20.686  0.00  0.00    +0.000 A 
ATOM     17  C   UNL     1      -1.010  10.727  21.815  0.00  0.00    +0.000 A 
ATOM     18  C   UNL     1      -0.696  10.315  23.116  0.00  0.00    +0.000 A 
ATOM     19  C   UNL     1       0.321   9.396  23.322  0.00  0.00    +0.000 A 
ATOM     20  C   UNL     1       1.023   8.904  22.228  0.00  0.00    +0.000 A 
ATOM     21  C   UNL     1       0.746   9.318  20.931  0.00  0.00    +0.000 A 
ATOM     22  N   UNL     1       1.504   8.794  19.971  0.00  0.00    +0.000 NA
ENDBRANCH   1  15
BRANCH   3  23
ATOM     23  C   UNL     1      -0.034  14.139  19.084  0.00  0.00    +0.000 C 
ATOM     24  C   UNL     1       0.035  15.647  18.803  0.00  0.00    +0.000 C 
ATOM     25  C   UNL     1       1.315  16.173  19.440  0.00  0.00    +0.000 C 
ATOM     26  C   UNL     1       1.885  15.055  20.294  0.00  0.00    +0.000 C 
ATOM     27  C   UNL     1       0.855  13.942  20.310  0.00  0.00    +0.000 C 
ENDBRANCH   3  23
TORSDOF 2
ENDMDL
MODEL 3
REMARK VINA RESULT:      -6.7      2.429      5.389
REMARK  Name = 
REMARK  3 active torsions:
REMARK  status: ('A' for Active; 'I' for Inactive)
REMARK    1  A    between atoms: C_1  and  C_2
REMARK    2  A    between atoms: C_4  and  N_5
REMARK    3  A    between atoms: N_7  and  C_8
REMARK                            x       y       z     vdW  Elec       q    Type
REMARK                         _______ _______ _______ _____ _____    ______ ____
ROOT
ATOM      1  N   UNL     1       0.476  10.556  19.237  0.00  0.00    +0.000 N 
ATOM      2  C   UNL     1       1.582  10.813  18.469  0.00  0.00    +0.000 C 
ATOM      3  N   UNL     1       2.246  11.867  18.169  0.00  0.00    +0.000 NA
ATOM      4  N   UNL     1       2.196   9.702  17.948  0.00  0.00    +0.000 N 
ATOM      5  C   UNL     1       2.323   8.458  18.456  0.00  0.00    +0.000 A 
ATOM      6  N   UNL     1       1.634   7.962  19.465  0.00  0.00    +0.000 NA
ATOM      7  C   UNL     1       2.116   6.704  19.787  0.00  0.00    +0.000 A 
ATOM      8  C   UNL     1       3.127   6.224  18.986  0.00  0.00    +0.000 A 
ATOM      9  S   UNL     1       3.518   7.395  17.804  0.00  0.00    +0.000 S 
ATOM     10  H   UNL     1       0.410   9.570  19.486  0.00  0.00    +0.000 HD
ATOM     11  H   UNL     1       2.980   9.999  17.381  0.00  0.00    +0.000 HD
ENDROOT
BRANCH   1  15
ATOM     12  C   UNL     1      -2.857  13.392  21.677  0.00  0.00    +0.000 C 
ATOM     13  C   UNL     1      -2.413  12.529  20.536  0.00  0.00    +0.000 A 
ATOM     14  C   UNL     1      -1.109  12.056  20.407  0.00  0.00    +0.000 A 
ATOM     15  C   UNL     1      -0.785  11.210  19.338  0.00  0.00    +0.000 A 
ATOM     16  C   UNL     1      -1.802  10.944  18.361  0.00  0.00    +0.000 A 
ATOM     17  C   UNL     1      -1.631  10.175  17.179  0.00  0.00    +0.000 A 
ATOM     18  C   UNL     1      -2.677   9.982  16.269  0.00  0.00    +0.000 A 
ATOM     19  C   UNL     1      -3.924  10.532  16.524  0.00  0.00    +0.000 A 
ATOM     20  C   UNL     1      -4.112  11.280  17.679  0.00  0.00    +0.000 A 
ATOM     21  C   UNL     1      -3.082  11.506  18.584  0.00  0.00    +0.000 A 
ATOM     22  N   UNL     1      -3.381  12.257  19.641  0.00  0.00    +0.000 NA
ENDBRANCH   1  15
BRANCH   3  23
ATOM     23  C   UNL     1       2.084  13.210  18.672  0.00  0.00    +0.000 C 
ATOM     24  C   UNL     1       2.410  13.194  20.172  0.00  0.00    +0.000 C 
ATOM     25  C   UNL     1       3.278  14.411  20.464  0.00  0.00    +0.000 C 
ATOM     26  C   UNL     1       3.669  15.016  19.127  0.00  0.00    +0.000 C 
ATOM     27  C   UNL     1       3.191  14.058  18.053  0.00  0.00    +0.000 C 
ENDBRANCH   3  23
TORSDOF 2
ENDMDL
MODEL 4
REMARK VINA RESULT:      -6.5      1.435      1.657
REMARK  Name = 
REMARK  3 active torsions:
REMARK  status: ('A' for Active; 'I' for Inactive)
REMARK    1  A    between atoms: C_1  and  C_2
REMARK    2  A    between atoms: C_4  and  N_5
REMARK    3  A    between atoms: N_7  and  C_8
REMARK                            x       y       z     vdW  Elec       q    Type
REMARK                         _______ _______ _______ _____ _____    ______ ____
ROOT
ATOM      1  N   UNL     1      -1.625  12.574  19.036  0.00  0.00    +0.000 N 
ATOM      2  C   UNL     1      -1.123  12.344  20.291  0.00  0.00    +0.000 C 
ATOM      3  N   UNL     1      -0.699  11.309  20.917  0.00  0.00    +0.000 NA
ATOM      4  N   UNL     1      -0.942  13.468  21.056  0.00  0.00    +0.000 N 
ATOM      5  C   UNL     1      -0.599  14.722  20.695  0.00  0.00    +0.000 A 
ATOM      6  N   UNL     1      -0.630  15.208  19.469  0.00  0.00    +0.000 NA
ATOM      7  C   UNL     1      -0.097  16.486  19.459  0.00  0.00    +0.000 A 
ATOM      8  C   UNL     1       0.281  16.990  20.683  0.00  0.00    +0.000 A 
ATOM      9  S   UNL     1      -0.007  15.817  21.892  0.00  0.00    +0.000 S 
ATOM     10  H   UNL     1      -1.578  13.560  18.784  0.00  0.00    +0.000 HD
ATOM     11  H   UNL     1      -0.594  13.190  21.965  0.00  0.00    +0.000 HD
ENDROOT
BRANCH   1  15
ATOM     12  C   UNL     1      -3.042  10.086  14.923  0.00  0.00    +0.000 C 
ATOM     13  C   UNL     1      -3.292  10.729  16.253  0.00  0.00    +0.000 A 
ATOM     14  C   UNL     1      -2.273  11.244  17.049  0.00  0.00    +0.000 A 
ATOM     15  C   UNL     1      -2.594  11.877  18.257  0.00  0.00    +0.000 A 
ATOM     16  C   UNL     1      -3.969  11.881  18.667  0.00  0.00    +0.000 A 
ATOM     17  C   UNL     1      -4.465  12.408  19.890  0.00  0.00    +0.000 A 
ATOM     18  C   UNL     1      -5.825  12.351  20.218  0.00  0.00    +0.000 A 
ATOM     19  C   UNL     1      -6.726  11.788  19.328  0.00  0.00    +0.000 A 
ATOM     20  C   UNL     1      -6.261  11.277  18.123  0.00  0.00    +0.000 A 
ATOM     21  C   UNL     1      -4.912  11.299  17.787  0.00  0.00    +0.000 A 
ATOM     22  N   UNL     1      -4.589  10.757  16.616  0.00  0.00    +0.000 NA
ENDBRANCH   1  15
BRANCH   3  23
ATOM     23  C   UNL     1      -0.506   9.969  20.418  0.00  0.00    +0.000 C 
ATOM     24  C   UNL     1       0.638  10.006  19.395  0.00  0.00    +0.000 C 
ATOM     25  C   UNL     1       1.538   8.809  19.672  0.00  0.00    +0.000 C 
ATOM     26  C   UNL     1       1.083   8.199  20.986  0.00  0.00    +0.000 C 
ATOM     27  C   UNL     1       0.045   9.136  21.572  0.00  0.00    +0.000 C 
ENDBRANCH   3  23
TORSDOF 2
ENDMDL
MODEL 5
REMARK VINA RESULT:      -6.5      2.472      5.379
REMARK  Name = 
REMARK  3 active torsions:
REMARK  status: ('A' for Active; 'I' for Inactive)
REMARK    1  A    between atoms: C_1  and  C_2
REMARK    2  A    between atoms: C_4  and  N_5
REMARK    3  A    between atoms: N_7  and  C_8
REMARK                            x       y       z     vdW  Elec       q    Type
REMARK                         _______ _______ _______ _____ _____    ______ ____
ROOT
ATOM      1  N   UNL     1      -2.478  12.506  20.111  0.00  0.00    +0.000 N 
ATOM      2  C   UNL     1      -1.935  13.561  20.798  0.00  0.00    +0.000 C 
ATOM      3  N   UNL     1      -1.074  14.469  20.524  0.00  0.00    +0.000 NA
ATOM      4  N   UNL     1      -2.470  13.776  22.044  0.00  0.00    +0.000 N 
ATOM      5  C   UNL     1      -3.727  13.588  22.497  0.00  0.00    +0.000 A 
ATOM      6  N   UNL     1      -4.667  12.885  21.896  0.00  0.00    +0.000 NA
ATOM      7  C   UNL     1      -5.860  13.012  22.587  0.00  0.00    +0.000 A 
ATOM      8  C   UNL     1      -5.810  13.761  23.742  0.00  0.00    +0.000 A 
ATOM      9  S   UNL     1      -4.223  14.358  23.961  0.00  0.00    +0.000 S 
ATOM     10  H   UNL     1      -3.346  12.183  20.538  0.00  0.00    +0.000 HD
ATOM     11  H   UNL     1      -1.987  14.555  22.475  0.00  0.00    +0.000 HD
ENDROOT
BRANCH   1  15
ATOM     12  C   UNL     1       1.281   9.425  18.893  0.00  0.00    +0.000 C 
ATOM     13  C   UNL     1      -0.058  10.059  18.669  0.00  0.00    +0.000 A 
ATOM     14  C   UNL     1      -0.659  10.907  19.596  0.00  0.00    +0.000 A 
ATOM     15  C   UNL     1      -1.890  11.503  19.290  0.00  0.00    +0.000 A 
ATOM     16  C   UNL     1      -2.525  11.133  18.057  0.00  0.00    +0.000 A 
ATOM     17  C   UNL     1      -3.802  11.578  17.620  0.00  0.00    +0.000 A 
ATOM     18  C   UNL     1      -4.355  11.149  16.408  0.00  0.00    +0.000 A 
ATOM     19  C   UNL     1      -3.642  10.284  15.592  0.00  0.00    +0.000 A 
ATOM     20  C   UNL     1      -2.388   9.846  15.998  0.00  0.00    +0.000 A 
ATOM     21  C   UNL     1      -1.830  10.238  17.209  0.00  0.00    +0.000 A 
ATOM     22  N   UNL     1      -0.633   9.732  17.496  0.00  0.00    +0.000 NA
ENDBRANCH   1  15
BRANCH   3  23
ATOM     23  C   UNL     1      -0.428  14.748  19.264  0.00  0.00    +0.000 C 
ATOM     24  C   UNL     1      -0.230  16.268  19.162  0.00  0.00    +0.000 C 
ATOM     25  C   UNL     1       1.179  16.510  18.637  0.00  0.00    +0.000 C 
ATOM     26  C   UNL     1       1.900  15.175  18.650  0.00  0.00    +0.000 C 
ATOM     27  C   UNL     1       0.988  14.187  19.351  0.00  0.00    +0.000 C 
ENDBRANCH   3  23
TORSDOF 2
ENDMDL
MODEL 6
REMARK VINA RESULT:      -6.5      2.625      5.122
REMARK  Name = 
REMARK  3 active torsions:
REMARK  status: ('A' for Active; 'I' for Inactive)
REMARK    1  A    between atoms: C_1  and  C_2
REMARK    2  A    between atoms: C_4  and  N_5
REMARK    3  A    between atoms: N_7  and  C_8
REMARK                            x       y       z     vdW  Elec       q    Type
REMARK                         _______ _______ _______ _____ _____    ______ ____
ROOT
ATOM      1  N   UNL     1       0.523  10.058  19.021  0.00  0.00    +0.000 N 
ATOM      2  C   UNL     1       1.641  10.414  18.313  0.00  0.00    +0.000 C 
ATOM      3  N   UNL     1       2.239  11.520  18.068  0.00  0.00    +0.000 NA
ATOM      4  N   UNL     1       2.357   9.363  17.796  0.00  0.00    +0.000 N 
ATOM      5  C   UNL     1       2.551   8.120  18.280  0.00  0.00    +0.000 A 
ATOM      6  N   UNL     1       1.855   7.549  19.244  0.00  0.00    +0.000 NA
ATOM      7  C   UNL     1       2.411   6.321  19.560  0.00  0.00    +0.000 A 
ATOM      8  C   UNL     1       3.490   5.935  18.796  0.00  0.00    +0.000 A 
ATOM      9  S   UNL     1       3.849   7.162  17.661  0.00  0.00    +0.000 S 
ATOM     10  H   UNL     1       0.517   9.064  19.245  0.00  0.00    +0.000 HD
ATOM     11  H   UNL     1       3.142   9.731  17.273  0.00  0.00    +0.000 HD
ENDROOT
BRANCH   1  15
ATOM     12  C   UNL     1      -3.837  11.345  16.911  0.00  0.00    +0.000 C 
ATOM     13  C   UNL     1      -2.864  11.289  18.049  0.00  0.00    +0.000 A 
ATOM     14  C   UNL     1      -1.668  10.578  17.989  0.00  0.00    +0.000 A 
ATOM     15  C   UNL     1      -0.786  10.618  19.077  0.00  0.00    +0.000 A 
ATOM     16  C   UNL     1      -1.206  11.322  20.255  0.00  0.00    +0.000 A 
ATOM     17  C   UNL     1      -0.478  11.404  21.472  0.00  0.00    +0.000 A 
ATOM     18  C   UNL     1      -0.974  12.099  22.582  0.00  0.00    +0.000 A 
ATOM     19  C   UNL     1      -2.196  12.748  22.498  0.00  0.00    +0.000 A 
ATOM     20  C   UNL     1      -2.918  12.688  21.313  0.00  0.00    +0.000 A 
ATOM     21  C   UNL     1      -2.457  11.982  20.208  0.00  0.00    +0.000 A 
ATOM     22  N   UNL     1      -3.250  11.979  19.139  0.00  0.00    +0.000 NA
ENDBRANCH   1  15
BRANCH   3  23
ATOM     23  C   UNL     1       1.957  12.834  18.594  0.00  0.00    +0.000 C 
ATOM     24  C   UNL     1       2.274  12.819  20.096  0.00  0.00    +0.000 C 
ATOM     25  C   UNL     1       3.030  14.102  20.416  0.00  0.00    +0.000 C 
ATOM     26  C   UNL     1       3.375  14.763  19.093  0.00  0.00    +0.000 C 
ATOM     27  C   UNL     1       2.989  13.787  17.998  0.00  0.00    +0.000 C 
ENDBRANCH   3  23
TORSDOF 2
ENDMDL
MODEL 7
REMARK VINA RESULT:      -6.5      2.531      4.197
REMARK  Name = 
REMARK  3 active torsions:
REMARK  status: ('A' for Active; 'I' for Inactive)
REMARK    1  A    between atoms: C_1  and  C_2
REMARK    2  A    between atoms: C_4  and  N_5
REMARK    3  A    between atoms: N_7  and  C_8
REMARK                            x       y       z     vdW  Elec       q    Type
REMARK                         _______ _______ _______ _____ _____    ______ ____
ROOT
ATOM      1  N   UNL     1      -2.639  13.343  19.678  0.00  0.00    +0.000 N 
ATOM      2  C   UNL     1      -1.604  12.655  19.100  0.00  0.00    +0.000 C 
ATOM      3  N   UNL     1      -1.511  11.583  18.403  0.00  0.00    +0.000 NA
ATOM      4  N   UNL     1      -0.378  13.262  19.201  0.00  0.00    +0.000 N 
ATOM      5  C   UNL     1      -0.053  14.572  19.210  0.00  0.00    +0.000 A 
ATOM      6  N   UNL     1      -0.889  15.574  19.399  0.00  0.00    +0.000 NA
ATOM      7  C   UNL     1      -0.227  16.777  19.221  0.00  0.00    +0.000 A 
ATOM      8  C   UNL     1       1.122  16.688  18.957  0.00  0.00    +0.000 A 
ATOM      9  S   UNL     1       1.579  15.041  18.894  0.00  0.00    +0.000 S 
ATOM     10  H   UNL     1      -2.379  14.303  19.898  0.00  0.00    +0.000 HD
ATOM     11  H   UNL     1       0.317  12.667  18.768  0.00  0.00    +0.000 HD
ENDROOT
BRANCH   1  15
ATOM     12  C   UNL     1      -7.331  11.636  20.105  0.00  0.00    +0.000 C 
ATOM     13  C   UNL     1      -6.034  12.141  20.658  0.00  0.00    +0.000 A 
ATOM     14  C   UNL     1      -4.916  12.387  19.864  0.00  0.00    +0.000 A 
ATOM     15  C   UNL     1      -3.755  12.909  20.449  0.00  0.00    +0.000 A 
ATOM     16  C   UNL     1      -3.742  13.080  21.874  0.00  0.00    +0.000 A 
ATOM     17  C   UNL     1      -2.632  13.524  22.642  0.00  0.00    +0.000 A 
ATOM     18  C   UNL     1      -2.701  13.642  24.036  0.00  0.00    +0.000 A 
ATOM     19  C   UNL     1      -3.883  13.343  24.695  0.00  0.00    +0.000 A 
ATOM     20  C   UNL     1      -4.982  12.917  23.960  0.00  0.00    +0.000 A 
ATOM     21  C   UNL     1      -4.929  12.767  22.579  0.00  0.00    +0.000 A 
ATOM     22  N   UNL     1      -6.039  12.329  21.991  0.00  0.00    +0.000 NA
ENDBRANCH   1  15
BRANCH   3  23
ATOM     23  C   UNL     1      -2.568  10.754  17.878  0.00  0.00    +0.000 C 
ATOM     24  C   UNL     1      -3.417  11.615  16.931  0.00  0.00    +0.000 C 
ATOM     25  C   UNL     1      -3.696  10.783  15.685  0.00  0.00    +0.000 C 
ATOM     26  C   UNL     1      -2.834   9.537  15.773  0.00  0.00    +0.000 C 
ATOM     27  C   UNL     1      -1.916   9.718  16.966  0.00  0.00    +0.000 C 
ENDBRANCH   3  23
TORSDOF 2
ENDMDL
MODEL 8
REMARK VINA RESULT:      -6.5      1.913      4.802
REMARK  Name = 
REMARK  3 active torsions:
REMARK  status: ('A' for Active; 'I' for Inactive)
REMARK    1  A    between atoms: C_1  and  C_2
REMARK    2  A    between atoms: C_4  and  N_5
REMARK    3  A    between atoms: N_7  and  C_8
REMARK                            x       y       z     vdW  Elec       q    Type
REMARK                         _______ _______ _______ _____ _____    ______ ____
ROOT
ATOM      1  N   UNL     1       0.173  12.594  19.591  0.00  0.00    +0.000 N 
ATOM      2  C   UNL     1      -0.773  13.141  18.763  0.00  0.00    +0.000 C 
ATOM      3  N   UNL     1      -1.937  12.784  18.364  0.00  0.00    +0.000 NA
ATOM      4  N   UNL     1      -0.475  14.396  18.295  0.00  0.00    +0.000 N 
ATOM      5  C   UNL     1       0.198  15.408  18.882  0.00  0.00    +0.000 A 
ATOM      6  N   UNL     1       0.965  15.307  19.950  0.00  0.00    +0.000 NA
ATOM      7  C   UNL     1       1.394  16.565  20.339  0.00  0.00    +0.000 A 
ATOM      8  C   UNL     1       1.002  17.610  19.532  0.00  0.00    +0.000 A 
ATOM      9  S   UNL     1       0.034  17.009  18.257  0.00  0.00    +0.000 S 
ATOM     10  H   UNL     1       0.845  13.290  19.910  0.00  0.00    +0.000 HD
ATOM     11  H   UNL     1      -1.219  14.698  17.678  0.00  0.00    +0.000 HD
ENDROOT
BRANCH   1  15
ATOM     12  C   UNL     1       2.513   8.591  17.690  0.00  0.00    +0.000 C 
ATOM     13  C   UNL     1       1.770   9.323  18.765  0.00  0.00    +0.000 A 
ATOM     14  C   UNL     1       1.436  10.672  18.671  0.00  0.00    +0.000 A 
ATOM     15  C   UNL     1       0.694  11.272  19.697  0.00  0.00    +0.000 A 
ATOM     16  C   UNL     1       0.390  10.481  20.856  0.00  0.00    +0.000 A 
ATOM     17  C   UNL     1      -0.284  10.944  22.018  0.00  0.00    +0.000 A 
ATOM     18  C   UNL     1      -0.521  10.106  23.114  0.00  0.00    +0.000 A 
ATOM     19  C   UNL     1      -0.112   8.782  23.071  0.00  0.00    +0.000 A 
ATOM     20  C   UNL     1       0.540   8.309  21.939  0.00  0.00    +0.000 A 
ATOM     21  C   UNL     1       0.810   9.130  20.850  0.00  0.00    +0.000 A 
ATOM     22  N   UNL     1       1.461   8.567  19.836  0.00  0.00    +0.000 NA
ENDBRANCH   1  15
BRANCH   3  23
ATOM     23  C   UNL     1      -2.725  11.649  18.780  0.00  0.00    +0.000 C 
ATOM     24  C   UNL     1      -4.178  11.902  18.354  0.00  0.00    +0.000 C 
ATOM     25  C   UNL     1      -4.709  10.606  17.753  0.00  0.00    +0.000 C 
ATOM     26  C   UNL     1      -3.529   9.664  17.598  0.00  0.00    +0.000 C 
ATOM     27  C   UNL     1      -2.282  10.461  17.930  0.00  0.00    +0.000 C 
ENDBRANCH   3  23
TORSDOF 2
ENDMDL
MODEL 9
REMARK VINA RESULT:      -6.4      2.271      4.676
REMARK  Name = 
REMARK  3 active torsions:
REMARK  status: ('A' for Active; 'I' for Inactive)
REMARK    1  A    between atoms: C_1  and  C_2
REMARK    2  A    between atoms: C_4  and  N_5
REMARK    3  A    between atoms: N_7  and  C_8
REMARK                            x       y       z     vdW  Elec       q    Type
REMARK                         _______ _______ _______ _____ _____    ______ ____
ROOT
ATOM      1  N   UNL     1      -1.018  12.790  20.522  0.00  0.00    +0.000 N 
ATOM      2  C   UNL     1      -0.147  13.730  21.006  0.00  0.00    +0.000 C 
ATOM      3  N   UNL     1       0.764  14.467  20.487  0.00  0.00    +0.000 NA
ATOM      4  N   UNL     1      -0.308  14.040  22.333  0.00  0.00    +0.000 N 
ATOM      5  C   UNL     1      -1.426  14.083  23.088  0.00  0.00    +0.000 A 
ATOM      6  N   UNL     1      -2.594  13.559  22.769  0.00  0.00    +0.000 NA
ATOM      7  C   UNL     1      -3.537  13.901  23.724  0.00  0.00    +0.000 A 
ATOM      8  C   UNL     1      -3.071  14.631  24.795  0.00  0.00    +0.000 A 
ATOM      9  S   UNL     1      -1.401  14.933  24.592  0.00  0.00    +0.000 S 
ATOM     10  H   UNL     1      -1.795  12.628  21.162  0.00  0.00    +0.000 HD
ATOM     11  H   UNL     1       0.394  14.720  22.596  0.00  0.00    +0.000 HD
ENDROOT
BRANCH   1  15
ATOM     12  C   UNL     1       1.822   9.301  18.315  0.00  0.00    +0.000 C 
ATOM     13  C   UNL     1       0.542  10.051  18.524  0.00  0.00    +0.000 A 
ATOM     14  C   UNL     1       0.374  10.997  19.532  0.00  0.00    +0.000 A 
ATOM     15  C   UNL     1      -0.837  11.695  19.629  0.00  0.00    +0.000 A 
ATOM     16  C   UNL     1      -1.895  11.329  18.731  0.00  0.00    +0.000 A 
ATOM     17  C   UNL     1      -3.206  11.875  18.735  0.00  0.00    +0.000 A 
ATOM     18  C   UNL     1      -4.185  11.444  17.831  0.00  0.00    +0.000 A 
ATOM     19  C   UNL     1      -3.876  10.476  16.889  0.00  0.00    +0.000 A 
ATOM     20  C   UNL     1      -2.595   9.938  16.864  0.00  0.00    +0.000 A 
ATOM     21  C   UNL     1      -1.615  10.332  17.767  0.00  0.00    +0.000 A 
ATOM     22  N   UNL     1      -0.436   9.726  17.657  0.00  0.00    +0.000 NA
ENDBRANCH   1  15
BRANCH   3  23
ATOM     23  C   UNL     1       1.114  14.624  19.096  0.00  0.00    +0.000 C 
ATOM     24  C   UNL     1       1.395  16.112  18.845  0.00  0.00    +0.000 C 
ATOM     25  C   UNL     1       2.655  16.202  17.993  0.00  0.00    +0.000 C 
ATOM     26  C   UNL     1       3.258  14.810  17.934  0.00  0.00    +0.000 C 
ATOM     27  C   UNL     1       2.466  13.944  18.894  0.00  0.00    +0.000 C 
ENDBRANCH   3  23
TORSDOF 2
ENDMDL
