MODEL 1
REMARK VINA RESULT:      -7.9      0.000      0.000
REMARK  Name = 
REMARK  5 active torsions:
REMARK  status: ('A' for Active; 'I' for Inactive)
REMARK    1  A    between atoms: C_1  and  N_2
REMARK    2  A    between atoms: N_2  and  C_17
REMARK    3  A    between atoms: C_3  and  C_5
REMARK    4  A    between atoms: C_5  and  N_6
REMARK    5  A    between atoms: C_21  and  O_22
REMARK                            x       y       z     vdW  Elec       q    Type
REMARK                         _______ _______ _______ _____ _____    ______ ____
ROOT
ATOM      1  C   UNL     1       5.429   5.527  17.839  0.00  0.00    +0.000 C 
ENDROOT
BRANCH   1   2
ATOM      2  N   UNL     1       5.709   4.994  16.503  0.00  0.00    +0.000 N 
ATOM      3  C   UNL     1       4.933   3.961  16.004  0.00  0.00    +0.000 A 
ATOM      4  C   UNL     1       5.136   3.433  14.793  0.00  0.00    +0.000 A 
ATOM      5  C   UNL     1       6.136   4.028  13.914  0.00  0.00    +0.000 A 
ATOM      6  C   UNL     1       6.250   3.621  12.580  0.00  0.00    +0.000 A 
ATOM      7  C   UNL     1       7.146   4.267  11.727  0.00  0.00    +0.000 A 
ATOM      8  C   UNL     1       7.945   5.308  12.203  0.00  0.00    +0.000 A 
ATOM      9  C   UNL     1       7.862   5.697  13.541  0.00  0.00    +0.000 A 
ATOM     10  C   UNL     1       6.957   5.059  14.394  0.00  0.00    +0.000 A 
ATOM     11  C   UNL     1       6.816   5.497  15.810  0.00  0.00    +0.000 A 
ATOM     12  O   UNL     1       7.652   6.251  16.306  0.00  0.00    +0.000 OA
ENDBRANCH   1   2
BRANCH   1  15
ATOM     13  C   UNL     1       2.579   5.395  18.549  0.00  0.00    +0.000 C 
ATOM     14  N   UNL     1       3.511   4.387  19.045  0.00  0.00    +0.000 N 
ATOM     15  C   UNL     1       4.903   4.459  18.827  0.00  0.00    +0.000 C 
ATOM     16  O   UNL     1       5.665   3.670  19.394  0.00  0.00    +0.000 OA
BRANCH  14  17
ATOM     17  C   UNL     1       3.063   3.396  20.058  0.00  0.00    +0.000 C 
ATOM     18  C   UNL     1       2.291   2.177  19.525  0.00  0.00    +0.000 C 
ATOM     19  C   UNL     1       0.805   2.532  19.623  0.00  0.00    +0.000 C 
ATOM     20  C   UNL     1       0.709   3.819  20.443  0.00  0.00    +0.000 C 
ATOM     21  C   UNL     1       2.075   3.985  21.094  0.00  0.00    +0.000 C 
BRANCH  21  22
ATOM     22  O   UNL     1       2.094   3.254  22.325  0.00  0.00    +0.000 OA
ATOM     23  H   UNL     1       2.285   2.320  22.142  0.00  0.00    +0.000 HD
ENDBRANCH  21  22
ENDBRANCH  14  17
ENDBRANCH   1  15
TORSDOF 4
ENDMDL
MODEL 2
REMARK VINA RESULT:      -7.4      1.351      1.742
REMARK  Name = 
REMARK  5 active torsions:
REMARK  status: ('A' for Active; 'I' for Inactive)
REMARK    1  A    between atoms: C_1  and  N_2
REMARK    2  A    between atoms: N_2  and  C_17
REMARK    3  A    between atoms: C_3  and  C_5
REMARK    4  A    between atoms: C_5  and  N_6
REMARK    5  A    between atoms: C_21  and  O_22
REMARK                            x       y       z     vdW  Elec       q    Type
REMARK                         _______ _______ _______ _____ _____    ______ ____
ROOT
ATOM      1  C   UNL     1       5.317   5.672  17.897  0.00  0.00    +0.000 C 
ENDROOT
BRANCH   1   2
ATOM      2  N   UNL     1       5.612   5.071  16.594  0.00  0.00    +0.000 N 
ATOM      3  C   UNL     1       4.842   4.012  16.141  0.00  0.00    +0.000 A 
ATOM      4  C   UNL     1       5.057   3.423  14.962  0.00  0.00    +0.000 A 
ATOM      5  C   UNL     1       6.067   3.972  14.063  0.00  0.00    +0.000 A 
ATOM      6  C   UNL     1       6.195   3.496  12.753  0.00  0.00    +0.000 A 
ATOM      7  C   UNL     1       7.100   4.098  11.877  0.00  0.00    +0.000 A 
ATOM      8  C   UNL     1       7.893   5.163  12.307  0.00  0.00    +0.000 A 
ATOM      9  C   UNL     1       7.796   5.621  13.622  0.00  0.00    +0.000 A 
ATOM     10  C   UNL     1       6.881   5.027  14.498  0.00  0.00    +0.000 A 
ATOM     11  C   UNL     1       6.726   5.538  15.887  0.00  0.00    +0.000 A 
ATOM     12  O   UNL     1       7.556   6.317  16.353  0.00  0.00    +0.000 OA
ENDBRANCH   1   2
BRANCH   1  15
ATOM     13  C   UNL     1       4.457   3.325  19.444  0.00  0.00    +0.000 C 
ATOM     14  N   UNL     1       3.518   4.405  19.158  0.00  0.00    +0.000 N 
ATOM     15  C   UNL     1       3.842   5.501  18.332  0.00  0.00    +0.000 C 
ATOM     16  O   UNL     1       2.971   6.309  17.996  0.00  0.00    +0.000 OA
BRANCH  14  17
ATOM     17  C   UNL     1       2.077   4.243  19.487  0.00  0.00    +0.000 C 
ATOM     18  C   UNL     1       1.654   4.644  20.910  0.00  0.00    +0.000 C 
ATOM     19  C   UNL     1       1.702   3.365  21.750  0.00  0.00    +0.000 C 
ATOM     20  C   UNL     1       1.890   2.200  20.776  0.00  0.00    +0.000 C 
ATOM     21  C   UNL     1       1.592   2.777  19.398  0.00  0.00    +0.000 C 
BRANCH  21  22
ATOM     22  O   UNL     1       0.183   2.695  19.156  0.00  0.00    +0.000 OA
ATOM     23  H   UNL     1      -0.122   3.521  18.748  0.00  0.00    +0.000 HD
ENDBRANCH  21  22
ENDBRANCH  14  17
ENDBRANCH   1  15
TORSDOF 4
ENDMDL
MODEL 3
REMARK VINA RESULT:      -7.3      3.804      7.024
REMARK  Name = 
REMARK  5 active torsions:
REMARK  status: ('A' for Active; 'I' for Inactive)
REMARK    1  A    between atoms: C_1  and  N_2
REMARK    2  A    between atoms: N_2  and  C_17
REMARK    3  A    between atoms: C_3  and  C_5
REMARK    4  A    between atoms: C_5  and  N_6
REMARK    5  A    between atoms: C_21  and  O_22
REMARK                            x       y       z     vdW  Elec       q    Type
REMARK                         _______ _______ _______ _____ _____    ______ ____
ROOT
ATOM      1  C   UNL     1       3.354   7.105  17.746  0.00  0.00    +0.000 C 
ENDROOT
BRANCH   1   2
ATOM      2  N   UNL     1       2.485   7.632  18.802  0.00  0.00    +0.000 N 
ATOM      3  C   UNL     1       2.320   6.910  19.973  0.00  0.00    +0.000 A 
ATOM      4  C   UNL     1       1.545   7.337  20.974  0.00  0.00    +0.000 A 
ATOM      5  C   UNL     1       0.930   8.656  20.887  0.00  0.00    +0.000 A 
ATOM      6  C   UNL     1       0.263   9.209  21.987  0.00  0.00    +0.000 A 
ATOM      7  C   UNL     1      -0.236  10.511  21.918  0.00  0.00    +0.000 A 
ATOM      8  C   UNL     1      -0.090  11.260  20.750  0.00  0.00    +0.000 A 
ATOM      9  C   UNL     1       0.544  10.703  19.637  0.00  0.00    +0.000 A 
ATOM     10  C   UNL     1       1.054   9.404  19.708  0.00  0.00    +0.000 A 
ATOM     11  C   UNL     1       1.780   8.814  18.550  0.00  0.00    +0.000 A 
ATOM     12  O   UNL     1       1.730   9.361  17.449  0.00  0.00    +0.000 OA
ENDBRANCH   1   2
BRANCH   1  15
ATOM     13  C   UNL     1       1.724   4.676  17.451  0.00  0.00    +0.000 C 
ATOM     14  N   UNL     1       3.136   4.579  17.811  0.00  0.00    +0.000 N 
ATOM     15  C   UNL     1       3.938   5.709  18.071  0.00  0.00    +0.000 C 
ATOM     16  O   UNL     1       5.080   5.574  18.520  0.00  0.00    +0.000 OA
BRANCH  14  17
ATOM     17  C   UNL     1       3.711   3.268  18.209  0.00  0.00    +0.000 C 
ATOM     18  C   UNL     1       2.826   2.033  17.968  0.00  0.00    +0.000 C 
ATOM     19  C   UNL     1       2.072   1.782  19.276  0.00  0.00    +0.000 C 
ATOM     20  C   UNL     1       2.705   2.688  20.334  0.00  0.00    +0.000 C 
ATOM     21  C   UNL     1       4.014   3.167  19.723  0.00  0.00    +0.000 C 
BRANCH  21  22
ATOM     22  O   UNL     1       5.036   2.203  20.000  0.00  0.00    +0.000 OA
ATOM     23  H   UNL     1       4.663   1.485  20.537  0.00  0.00    +0.000 HD
ENDBRANCH  21  22
ENDBRANCH  14  17
ENDBRANCH   1  15
TORSDOF 4
ENDMDL
MODEL 4
REMARK VINA RESULT:      -7.2      4.262      7.044
REMARK  Name = 
REMARK  5 active torsions:
REMARK  status: ('A' for Active; 'I' for Inactive)
REMARK    1  A    between atoms: C_1  and  N_2
REMARK    2  A    between atoms: N_2  and  C_17
REMARK    3  A    between atoms: C_3  and  C_5
REMARK    4  A    between atoms: C_5  and  N_6
REMARK    5  A    between atoms: C_21  and  O_22
REMARK                            x       y       z     vdW  Elec       q    Type
REMARK                         _______ _______ _______ _____ _____    ______ ____
ROOT
ATOM      1  C   UNL     1       3.225   7.063  18.222  0.00  0.00    +0.000 C 
ENDROOT
BRANCH   1   2
ATOM      2  N   UNL     1       2.305   7.862  19.036  0.00  0.00    +0.000 N 
ATOM      3  C   UNL     1       1.938   7.409  20.293  0.00  0.00    +0.000 A 
ATOM      4  C   UNL     1       1.105   8.091  21.084  0.00  0.00    +0.000 A 
ATOM      5  C   UNL     1       0.644   9.411  20.667  0.00  0.00    +0.000 A 
ATOM      6  C   UNL     1      -0.079  10.228  21.544  0.00  0.00    +0.000 A 
ATOM      7  C   UNL     1      -0.429  11.524  21.162  0.00  0.00    +0.000 A 
ATOM      8  C   UNL     1      -0.078  12.005  19.900  0.00  0.00    +0.000 A 
ATOM      9  C   UNL     1       0.613  11.184  19.006  0.00  0.00    +0.000 A 
ATOM     10  C   UNL     1       0.975   9.890  19.391  0.00  0.00    +0.000 A 
ATOM     11  C   UNL     1       1.759   9.020  18.472  0.00  0.00    +0.000 A 
ATOM     12  O   UNL     1       1.888   9.334  17.289  0.00  0.00    +0.000 OA
ENDBRANCH   1   2
BRANCH   1  15
ATOM     13  C   UNL     1       1.570   4.686  17.723  0.00  0.00    +0.000 C 
ATOM     14  N   UNL     1       2.803   4.578  18.496  0.00  0.00    +0.000 N 
ATOM     15  C   UNL     1       3.579   5.698  18.858  0.00  0.00    +0.000 C 
ATOM     16  O   UNL     1       4.528   5.574  19.639  0.00  0.00    +0.000 OA
BRANCH  14  17
ATOM     17  C   UNL     1       3.135   3.305  19.189  0.00  0.00    +0.000 C 
ATOM     18  C   UNL     1       2.474   2.033  18.633  0.00  0.00    +0.000 C 
ATOM     19  C   UNL     1       1.197   1.819  19.449  0.00  0.00    +0.000 C 
ATOM     20  C   UNL     1       1.255   2.792  20.628  0.00  0.00    +0.000 C 
ATOM     21  C   UNL     1       2.695   3.284  20.673  0.00  0.00    +0.000 C 
BRANCH  21  22
ATOM     22  O   UNL     1       3.475   2.367  21.448  0.00  0.00    +0.000 OA
ATOM     23  H   UNL     1       2.909   1.949  22.116  0.00  0.00    +0.000 HD
ENDBRANCH  21  22
ENDBRANCH  14  17
ENDBRANCH   1  15
TORSDOF 4
ENDMDL
MODEL 5
REMARK VINA RESULT:      -7.1      4.276      7.430
REMARK  Name = 
REMARK  5 active torsions:
REMARK  status: ('A' for Active; 'I' for Inactive)
REMARK    1  A    between atoms: C_1  and  N_2
REMARK    2  A    between atoms: N_2  and  C_17
REMARK    3  A    between atoms: C_3  and  C_5
REMARK    4  A    between atoms: C_5  and  N_6
REMARK    5  A    between atoms: C_21  and  O_22
REMARK                            x       y       z     vdW  Elec       q    Type
REMARK                         _______ _______ _______ _____ _____    ______ ____
ROOT
ATOM      1  C   UNL     1       3.031   7.276  18.246  0.00  0.00    +0.000 C 
ENDROOT
BRANCH   1   2
ATOM      2  N   UNL     1       2.137   8.041  19.119  0.00  0.00    +0.000 N 
ATOM      3  C   UNL     1       1.835   7.556  20.380  0.00  0.00    +0.000 A 
ATOM      4  C   UNL     1       1.029   8.208  21.224  0.00  0.00    +0.000 A 
ATOM      5  C   UNL     1       0.531   9.529  20.857  0.00  0.00    +0.000 A 
ATOM      6  C   UNL     1      -0.163  10.315  21.785  0.00  0.00    +0.000 A 
ATOM      7  C   UNL     1      -0.549  11.613  21.449  0.00  0.00    +0.000 A 
ATOM      8  C   UNL     1      -0.263  12.128  20.183  0.00  0.00    +0.000 A 
ATOM      9  C   UNL     1       0.399  11.337  19.241  0.00  0.00    +0.000 A 
ATOM     10  C   UNL     1       0.796  10.041  19.579  0.00  0.00    +0.000 A 
ATOM     11  C   UNL     1       1.549   9.204  18.606  0.00  0.00    +0.000 A 
ATOM     12  O   UNL     1       1.619   9.545  17.426  0.00  0.00    +0.000 OA
ENDBRANCH   1   2
BRANCH   1  15
ATOM     13  C   UNL     1       4.887   5.222  19.236  0.00  0.00    +0.000 C 
ATOM     14  N   UNL     1       3.562   4.848  18.753  0.00  0.00    +0.000 N 
ATOM     15  C   UNL     1       2.672   5.772  18.168  0.00  0.00    +0.000 C 
ATOM     16  O   UNL     1       1.628   5.383  17.636  0.00  0.00    +0.000 OA
BRANCH  14  17
ATOM     17  C   UNL     1       3.211   3.413  18.587  0.00  0.00    +0.000 C 
ATOM     18  C   UNL     1       1.801   2.999  19.041  0.00  0.00    +0.000 C 
ATOM     19  C   UNL     1       1.942   2.509  20.485  0.00  0.00    +0.000 C 
ATOM     20  C   UNL     1       3.440   2.389  20.770  0.00  0.00    +0.000 C 
ATOM     21  C   UNL     1       4.116   2.463  19.407  0.00  0.00    +0.000 C 
BRANCH  21  22
ATOM     22  O   UNL     1       4.163   1.149  18.841  0.00  0.00    +0.000 OA
ATOM     23  H   UNL     1       4.242   1.218  17.876  0.00  0.00    +0.000 HD
ENDBRANCH  21  22
ENDBRANCH  14  17
ENDBRANCH   1  15
TORSDOF 4
ENDMDL
MODEL 6
REMARK VINA RESULT:      -7.0      1.198      1.917
REMARK  Name = 
REMARK  5 active torsions:
REMARK  status: ('A' for Active; 'I' for Inactive)
REMARK    1  A    between atoms: C_1  and  N_2
REMARK    2  A    between atoms: N_2  and  C_17
REMARK    3  A    between atoms: C_3  and  C_5
REMARK    4  A    between atoms: C_5  and  N_6
REMARK    5  A    between atoms: C_21  and  O_22
REMARK                            x       y       z     vdW  Elec       q    Type
REMARK                         _______ _______ _______ _____ _____    ______ ____
ROOT
ATOM      1  C   UNL     1       5.466   5.655  18.669  0.00  0.00    +0.000 C 
ENDROOT
BRANCH   1   2
ATOM      2  N   UNL     1       5.944   5.493  17.294  0.00  0.00    +0.000 N 
ATOM      3  C   UNL     1       7.200   5.963  16.948  0.00  0.00    +0.000 A 
ATOM      4  C   UNL     1       7.694   5.844  15.712  0.00  0.00    +0.000 A 
ATOM      5  C   UNL     1       6.939   5.101  14.710  0.00  0.00    +0.000 A 
ATOM      6  C   UNL     1       7.503   4.801  13.464  0.00  0.00    +0.000 A 
ATOM      7  C   UNL     1       6.803   4.007  12.555  0.00  0.00    +0.000 A 
ATOM      8  C   UNL     1       5.533   3.524  12.873  0.00  0.00    +0.000 A 
ATOM      9  C   UNL     1       4.950   3.847  14.100  0.00  0.00    +0.000 A 
ATOM     10  C   UNL     1       5.654   4.632  15.017  0.00  0.00    +0.000 A 
ATOM     11  C   UNL     1       5.069   4.941  16.351  0.00  0.00    +0.000 A 
ATOM     12  O   UNL     1       3.879   4.718  16.568  0.00  0.00    +0.000 OA
ENDBRANCH   1   2
BRANCH   1  15
ATOM     13  C   UNL     1       2.745   5.658  19.782  0.00  0.00    +0.000 C 
ATOM     14  N   UNL     1       3.500   4.413  19.681  0.00  0.00    +0.000 N 
ATOM     15  C   UNL     1       4.844   4.366  19.258  0.00  0.00    +0.000 C 
ATOM     16  O   UNL     1       5.486   3.314  19.334  0.00  0.00    +0.000 OA
BRANCH  14  17
ATOM     17  C   UNL     1       2.971   3.172  20.307  0.00  0.00    +0.000 C 
ATOM     18  C   UNL     1       2.489   2.075  19.343  0.00  0.00    +0.000 C 
ATOM     19  C   UNL     1       0.984   2.291  19.164  0.00  0.00    +0.000 C 
ATOM     20  C   UNL     1       0.556   3.324  20.208  0.00  0.00    +0.000 C 
ATOM     21  C   UNL     1       1.720   3.415  21.185  0.00  0.00    +0.000 C 
BRANCH  21  22
ATOM     22  O   UNL     1       1.566   2.404  22.186  0.00  0.00    +0.000 OA
ATOM     23  H   UNL     1       0.837   2.648  22.779  0.00  0.00    +0.000 HD
ENDBRANCH  21  22
ENDBRANCH  14  17
ENDBRANCH   1  15
TORSDOF 4
ENDMDL
MODEL 7
REMARK VINA RESULT:      -6.8      3.104      7.560
REMARK  Name = 
REMARK  5 active torsions:
REMARK  status: ('A' for Active; 'I' for Inactive)
REMARK    1  A    between atoms: C_1  and  N_2
REMARK    2  A    between atoms: N_2  and  C_17
REMARK    3  A    between atoms: C_3  and  C_5
REMARK    4  A    between atoms: C_5  and  N_6
REMARK    5  A    between atoms: C_21  and  O_22
REMARK                            x       y       z     vdW  Elec       q    Type
REMARK                         _______ _______ _______ _____ _____    ______ ____
ROOT
ATOM      1  C   UNL     1       2.713   4.940  18.198  0.00  0.00    +0.000 C 
ENDROOT
BRANCH   1   2
ATOM      2  N   UNL     1       2.341   6.293  18.618  0.00  0.00    +0.000 N 
ATOM      3  C   UNL     1       2.476   7.345  17.727  0.00  0.00    +0.000 A 
ATOM      4  C   UNL     1       2.152   8.601  18.047  0.00  0.00    +0.000 A 
ATOM      5  C   UNL     1       1.533   8.871  19.340  0.00  0.00    +0.000 A 
ATOM      6  C   UNL     1       1.017  10.138  19.637  0.00  0.00    +0.000 A 
ATOM      7  C   UNL     1       0.344  10.352  20.841  0.00  0.00    +0.000 A 
ATOM      8  C   UNL     1       0.197   9.313  21.760  0.00  0.00    +0.000 A 
ATOM      9  C   UNL     1       0.739   8.055  21.487  0.00  0.00    +0.000 A 
ATOM     10  C   UNL     1       1.404   7.835  20.277  0.00  0.00    +0.000 A 
ATOM     11  C   UNL     1       1.941   6.487  19.945  0.00  0.00    +0.000 A 
ATOM     12  O   UNL     1       2.020   5.624  20.818  0.00  0.00    +0.000 OA
ENDBRANCH   1   2
BRANCH   1  15
ATOM     13  C   UNL     1       5.207   5.172  19.737  0.00  0.00    +0.000 C 
ATOM     14  N   UNL     1       5.246   4.887  18.306  0.00  0.00    +0.000 N 
ATOM     15  C   UNL     1       4.091   4.872  17.498  0.00  0.00    +0.000 C 
ATOM     16  O   UNL     1       4.190   4.779  16.270  0.00  0.00    +0.000 OA
BRANCH  14  17
ATOM     17  C   UNL     1       6.546   4.895  17.584  0.00  0.00    +0.000 C 
ATOM     18  C   UNL     1       7.808   5.024  18.453  0.00  0.00    +0.000 C 
ATOM     19  C   UNL     1       8.146   6.516  18.503  0.00  0.00    +0.000 C 
ATOM     20  C   UNL     1       7.257   7.208  17.467  0.00  0.00    +0.000 C 
ATOM     21  C   UNL     1       6.694   6.085  16.606  0.00  0.00    +0.000 C 
BRANCH  21  22
ATOM     22  O   UNL     1       7.622   5.798  15.554  0.00  0.00    +0.000 OA
ATOM     23  H   UNL     1       8.202   5.069  15.826  0.00  0.00    +0.000 HD
ENDBRANCH  21  22
ENDBRANCH  14  17
ENDBRANCH   1  15
TORSDOF 4
ENDMDL
MODEL 8
REMARK VINA RESULT:      -6.7      2.647      3.616
REMARK  Name = 
REMARK  5 active torsions:
REMARK  status: ('A' for Active; 'I' for Inactive)
REMARK    1  A    between atoms: C_1  and  N_2
REMARK    2  A    between atoms: N_2  and  C_17
REMARK    3  A    between atoms: C_3  and  C_5
REMARK    4  A    between atoms: C_5  and  N_6
REMARK    5  A    between atoms: C_21  and  O_22
REMARK                            x       y       z     vdW  Elec       q    Type
REMARK                         _______ _______ _______ _____ _____    ______ ____
ROOT
ATOM      1  C   UNL     1       5.168   3.296  17.307  0.00  0.00    +0.000 C 
ENDROOT
BRANCH   1   2
ATOM      2  N   UNL     1       5.645   4.680  17.230  0.00  0.00    +0.000 N 
ATOM      3  C   UNL     1       4.907   5.618  16.528  0.00  0.00    +0.000 A 
ATOM      4  C   UNL     1       5.286   6.895  16.423  0.00  0.00    +0.000 A 
ATOM      5  C   UNL     1       6.459   7.353  17.159  0.00  0.00    +0.000 A 
ATOM      6  C   UNL     1       6.780   8.715  17.219  0.00  0.00    +0.000 A 
ATOM      7  C   UNL     1       7.849   9.146  18.006  0.00  0.00    +0.000 A 
ATOM      8  C   UNL     1       8.614   8.223  18.721  0.00  0.00    +0.000 A 
ATOM      9  C   UNL     1       8.321   6.860  18.639  0.00  0.00    +0.000 A 
ATOM     10  C   UNL     1       7.244   6.427  17.861  0.00  0.00    +0.000 A 
ATOM     11  C   UNL     1       6.885   4.984  17.804  0.00  0.00    +0.000 A 
ATOM     12  O   UNL     1       7.665   4.138  18.240  0.00  0.00    +0.000 OA
ENDBRANCH   1   2
BRANCH   1  15
ATOM     13  C   UNL     1       2.228   3.311  17.326  0.00  0.00    +0.000 C 
ATOM     14  N   UNL     1       2.973   2.913  18.518  0.00  0.00    +0.000 N 
ATOM     15  C   UNL     1       4.378   2.990  18.602  0.00  0.00    +0.000 C 
ATOM     16  O   UNL     1       4.951   2.790  19.677  0.00  0.00    +0.000 OA
BRANCH  14  17
ATOM     17  C   UNL     1       2.256   2.691  19.801  0.00  0.00    +0.000 C 
ATOM     18  C   UNL     1       0.761   3.054  19.818  0.00  0.00    +0.000 C 
ATOM     19  C   UNL     1       0.674   4.490  20.342  0.00  0.00    +0.000 C 
ATOM     20  C   UNL     1       2.063   4.857  20.868  0.00  0.00    +0.000 C 
ATOM     21  C   UNL     1       2.816   3.538  20.969  0.00  0.00    +0.000 C 
BRANCH  21  22
ATOM     22  O   UNL     1       2.539   2.941  22.241  0.00  0.00    +0.000 OA
ATOM     23  H   UNL     1       3.221   3.212  22.877  0.00  0.00    +0.000 HD
ENDBRANCH  21  22
ENDBRANCH  14  17
ENDBRANCH   1  15
TORSDOF 4
ENDMDL
MODEL 9
REMARK VINA RESULT:      -6.7      3.434      7.735
REMARK  Name = 
REMARK  5 active torsions:
REMARK  status: ('A' for Active; 'I' for Inactive)
REMARK    1  A    between atoms: C_1  and  N_2
REMARK    2  A    between atoms: N_2  and  C_17
REMARK    3  A    between atoms: C_3  and  C_5
REMARK    4  A    between atoms: C_5  and  N_6
REMARK    5  A    between atoms: C_21  and  O_22
REMARK                            x       y       z     vdW  Elec       q    Type
REMARK                         _______ _______ _______ _____ _____    ______ ____
ROOT
ATOM      1  C   UNL     1       2.365   5.495  18.479  0.00  0.00    +0.000 C 
ENDROOT
BRANCH   1   2
ATOM      2  N   UNL     1       2.046   6.873  18.863  0.00  0.00    +0.000 N 
ATOM      3  C   UNL     1       2.211   7.893  17.941  0.00  0.00    +0.000 A 
ATOM      4  C   UNL     1       1.936   9.169  18.228  0.00  0.00    +0.000 A 
ATOM      5  C   UNL     1       1.340   9.497  19.518  0.00  0.00    +0.000 A 
ATOM      6  C   UNL     1       0.873  10.791  19.783  0.00  0.00    +0.000 A 
ATOM      7  C   UNL     1       0.219  11.064  20.985  0.00  0.00    +0.000 A 
ATOM      8  C   UNL     1       0.043  10.057  21.935  0.00  0.00    +0.000 A 
ATOM      9  C   UNL     1       0.537   8.773  21.693  0.00  0.00    +0.000 A 
ATOM     10  C   UNL     1       1.182   8.495  20.485  0.00  0.00    +0.000 A 
ATOM     11  C   UNL     1       1.666   7.119  20.188  0.00  0.00    +0.000 A 
ATOM     12  O   UNL     1       1.722   6.279  21.084  0.00  0.00    +0.000 OA
ENDBRANCH   1   2
BRANCH   1  15
ATOM     13  C   UNL     1       4.542   5.811  16.530  0.00  0.00    +0.000 C 
ATOM     14  N   UNL     1       4.827   5.353  17.886  0.00  0.00    +0.000 N 
ATOM     15  C   UNL     1       3.814   5.080  18.829  0.00  0.00    +0.000 C 
ATOM     16  O   UNL     1       4.093   4.550  19.909  0.00  0.00    +0.000 OA
BRANCH  14  17
ATOM     17  C   UNL     1       6.188   4.869  18.236  0.00  0.00    +0.000 C 
ATOM     18  C   UNL     1       6.926   5.647  19.338  0.00  0.00    +0.000 C 
ATOM     19  C   UNL     1       7.785   6.694  18.625  0.00  0.00    +0.000 C 
ATOM     20  C   UNL     1       7.753   6.354  17.133  0.00  0.00    +0.000 C 
ATOM     21  C   UNL     1       7.185   4.944  17.055  0.00  0.00    +0.000 C 
BRANCH  21  22
ATOM     22  O   UNL     1       8.256   4.004  17.200  0.00  0.00    +0.000 OA
ATOM     23  H   UNL     1       9.072   4.480  17.425  0.00  0.00    +0.000 HD
ENDBRANCH  21  22
ENDBRANCH  14  17
ENDBRANCH   1  15
TORSDOF 4
ENDMDL
