MODEL 1
REMARK VINA RESULT:      -5.4      0.000      0.000
REMARK  Name = 
REMARK  7 active torsions:
REMARK  status: ('A' for Active; 'I' for Inactive)
REMARK    1  A    between atoms: C_1  and  O_2
REMARK    2  A    between atoms: O_2  and  C_3
REMARK    3  A    between atoms: C_6  and  N_7
REMARK    4  A    between atoms: C_8  and  C_9
REMARK    5  A    between atoms: C_9  and  C_11
REMARK    6  A    between atoms: C_11  and  C_12
REMARK    7  A    between atoms: C_12  and  N_13
REMARK                            x       y       z     vdW  Elec       q    Type
REMARK                         _______ _______ _______ _____ _____    ______ ____
ROOT
ATOM      1  C   UNL     1       5.856   4.866  18.578  0.00  0.00    +0.000 A 
ATOM      2  C   UNL     1       5.245   5.783  17.730  0.00  0.00    +0.000 A 
ATOM      3  C   UNL     1       3.883   5.661  17.439  0.00  0.00    +0.000 A 
ATOM      4  C   UNL     1       3.116   4.607  17.958  0.00  0.00    +0.000 A 
ATOM      5  C   UNL     1       3.732   3.704  18.850  0.00  0.00    +0.000 A 
ATOM      6  C   UNL     1       5.104   3.824  19.120  0.00  0.00    +0.000 A 
ENDROOT
BRANCH   4   7
ATOM      7  N   UNL     1       1.723   4.643  17.757  0.00  0.00    +0.000 N 
ATOM      8  H   UNL     1       1.426   4.359  16.830  0.00  0.00    +0.000 HD
ATOM      9  H   UNL     1       1.222   4.131  18.495  0.00  0.00    +0.000 HD
ENDBRANCH   4   7
BRANCH   1  11
ATOM     10  C   UNL     1       7.820   6.136  18.873  0.00  0.00    +0.000 C 
ATOM     11  O   UNL     1       7.178   4.868  18.928  0.00  0.00    +0.000 OA
ENDBRANCH   1  11
BRANCH   5  12
ATOM     12  C   UNL     1       2.948   2.598  19.496  0.00  0.00    +0.000 C 
ATOM     13  O   UNL     1       2.465   1.703  18.806  0.00  0.00    +0.000 OA
BRANCH  12  14
ATOM     14  C   UNL     1       2.772   2.659  21.008  0.00  0.00    +0.000 C 
BRANCH  14  15
ATOM     15  C   UNL     1       1.332   2.895  21.443  0.00  0.00    +0.000 C 
BRANCH  15  16
ATOM     16  N   UNL     1       0.515   3.233  20.274  0.00  0.00    +0.000 NA
ATOM     17  H   UNL     1       1.014   2.987  19.419  0.00  0.00    +0.000 HD
ATOM     18  H   UNL     1       0.378   4.242  20.239  0.00  0.00    +0.000 HD
ENDBRANCH  15  16
ENDBRANCH  14  15
ENDBRANCH  12  14
ENDBRANCH   5  12
TORSDOF 6
ENDMDL
MODEL 2
REMARK VINA RESULT:      -5.3      2.801      5.173
REMARK  Name = 
REMARK  7 active torsions:
REMARK  status: ('A' for Active; 'I' for Inactive)
REMARK    1  A    between atoms: C_1  and  O_2
REMARK    2  A    between atoms: O_2  and  C_3
REMARK    3  A    between atoms: C_6  and  N_7
REMARK    4  A    between atoms: C_8  and  C_9
REMARK    5  A    between atoms: C_9  and  C_11
REMARK    6  A    between atoms: C_11  and  C_12
REMARK    7  A    between atoms: C_12  and  N_13
REMARK                            x       y       z     vdW  Elec       q    Type
REMARK                         _______ _______ _______ _____ _____    ______ ____
ROOT
ATOM      1  C   UNL     1       3.647   4.583  19.299  0.00  0.00    +0.000 A 
ATOM      2  C   UNL     1       3.077   4.016  18.165  0.00  0.00    +0.000 A 
ATOM      3  C   UNL     1       3.871   3.757  17.043  0.00  0.00    +0.000 A 
ATOM      4  C   UNL     1       5.234   4.089  17.020  0.00  0.00    +0.000 A 
ATOM      5  C   UNL     1       5.814   4.626  18.188  0.00  0.00    +0.000 A 
ATOM      6  C   UNL     1       5.004   4.900  19.301  0.00  0.00    +0.000 A 
ENDROOT
BRANCH   4   7
ATOM      7  N   UNL     1       6.001   3.649  15.925  0.00  0.00    +0.000 N 
ATOM      8  H   UNL     1       6.376   4.395  15.348  0.00  0.00    +0.000 HD
ATOM      9  H   UNL     1       6.731   2.987  16.218  0.00  0.00    +0.000 HD
ENDBRANCH   4   7
BRANCH   1  11
ATOM     10  C   UNL     1       1.574   4.667  20.420  0.00  0.00    +0.000 C 
ATOM     11  O   UNL     1       2.977   4.898  20.450  0.00  0.00    +0.000 OA
ENDBRANCH   1  11
BRANCH   5  12
ATOM     12  C   UNL     1       7.283   4.935  18.251  0.00  0.00    +0.000 C 
ATOM     13  O   UNL     1       8.105   4.069  17.960  0.00  0.00    +0.000 OA
BRANCH  12  14
ATOM     14  C   UNL     1       7.682   6.333  18.703  0.00  0.00    +0.000 C 
BRANCH  14  15
ATOM     15  C   UNL     1       7.656   7.365  17.583  0.00  0.00    +0.000 C 
BRANCH  15  16
ATOM     16  N   UNL     1       7.532   6.683  16.291  0.00  0.00    +0.000 NA
ATOM     17  H   UNL     1       8.458   6.451  15.932  0.00  0.00    +0.000 HD
ATOM     18  H   UNL     1       7.119   7.321  15.612  0.00  0.00    +0.000 HD
ENDBRANCH  15  16
ENDBRANCH  14  15
ENDBRANCH  12  14
ENDBRANCH   5  12
TORSDOF 6
ENDMDL
MODEL 3
REMARK VINA RESULT:      -5.3      3.256      3.923
REMARK  Name = 
REMARK  7 active torsions:
REMARK  status: ('A' for Active; 'I' for Inactive)
REMARK    1  A    between atoms: C_1  and  O_2
REMARK    2  A    between atoms: O_2  and  C_3
REMARK    3  A    between atoms: C_6  and  N_7
REMARK    4  A    between atoms: C_8  and  C_9
REMARK    5  A    between atoms: C_9  and  C_11
REMARK    6  A    between atoms: C_11  and  C_12
REMARK    7  A    between atoms: C_12  and  N_13
REMARK                            x       y       z     vdW  Elec       q    Type
REMARK                         _______ _______ _______ _____ _____    ______ ____
ROOT
ATOM      1  C   UNL     1       5.735   4.377  15.218  0.00  0.00    +0.000 A 
ATOM      2  C   UNL     1       7.045   4.650  15.593  0.00  0.00    +0.000 A 
ATOM      3  C   UNL     1       7.359   4.824  16.945  0.00  0.00    +0.000 A 
ATOM      4  C   UNL     1       6.371   4.764  17.940  0.00  0.00    +0.000 A 
ATOM      5  C   UNL     1       5.051   4.446  17.555  0.00  0.00    +0.000 A 
ATOM      6  C   UNL     1       4.744   4.293  16.195  0.00  0.00    +0.000 A 
ENDROOT
BRANCH   4   7
ATOM      7  N   UNL     1       6.787   4.782  19.284  0.00  0.00    +0.000 N 
ATOM      8  H   UNL     1       6.027   4.786  19.957  0.00  0.00    +0.000 HD
ATOM      9  H   UNL     1       7.469   4.038  19.478  0.00  0.00    +0.000 HD
ENDBRANCH   4   7
BRANCH   1  11
ATOM     10  C   UNL     1       6.259   3.668  13.032  0.00  0.00    +0.000 C 
ATOM     11  O   UNL     1       5.298   4.202  13.934  0.00  0.00    +0.000 OA
ENDBRANCH   1  11
BRANCH   5  12
ATOM     12  C   UNL     1       3.963   4.295  18.579  0.00  0.00    +0.000 C 
ATOM     13  O   UNL     1       3.813   5.152  19.447  0.00  0.00    +0.000 OA
BRANCH  12  14
ATOM     14  C   UNL     1       3.096   3.045  18.495  0.00  0.00    +0.000 C 
BRANCH  14  15
ATOM     15  C   UNL     1       3.798   1.786  18.987  0.00  0.00    +0.000 C 
BRANCH  15  16
ATOM     16  N   UNL     1       4.835   2.148  19.958  0.00  0.00    +0.000 NA
ATOM     17  H   UNL     1       4.411   2.612  20.760  0.00  0.00    +0.000 HD
ATOM     18  H   UNL     1       5.465   2.830  19.538  0.00  0.00    +0.000 HD
ENDBRANCH  15  16
ENDBRANCH  14  15
ENDBRANCH  12  14
ENDBRANCH   5  12
TORSDOF 6
ENDMDL
MODEL 4
REMARK VINA RESULT:      -5.3      2.984      4.990
REMARK  Name = 
REMARK  7 active torsions:
REMARK  status: ('A' for Active; 'I' for Inactive)
REMARK    1  A    between atoms: C_1  and  O_2
REMARK    2  A    between atoms: O_2  and  C_3
REMARK    3  A    between atoms: C_6  and  N_7
REMARK    4  A    between atoms: C_8  and  C_9
REMARK    5  A    between atoms: C_9  and  C_11
REMARK    6  A    between atoms: C_11  and  C_12
REMARK    7  A    between atoms: C_12  and  N_13
REMARK                            x       y       z     vdW  Elec       q    Type
REMARK                         _______ _______ _______ _____ _____    ______ ____
ROOT
ATOM      1  C   UNL     1       2.232   5.055  20.667  0.00  0.00    +0.000 A 
ATOM      2  C   UNL     1       2.073   3.828  21.300  0.00  0.00    +0.000 A 
ATOM      3  C   UNL     1       2.910   2.758  20.964  0.00  0.00    +0.000 A 
ATOM      4  C   UNL     1       3.891   2.882  19.969  0.00  0.00    +0.000 A 
ATOM      5  C   UNL     1       4.073   4.142  19.359  0.00  0.00    +0.000 A 
ATOM      6  C   UNL     1       3.216   5.202  19.691  0.00  0.00    +0.000 A 
ENDROOT
BRANCH   4   7
ATOM      7  N   UNL     1       4.799   1.820  19.802  0.00  0.00    +0.000 N 
ATOM      8  H   UNL     1       4.696   1.313  18.929  0.00  0.00    +0.000 HD
ATOM      9  H   UNL     1       5.768   2.125  19.956  0.00  0.00    +0.000 HD
ENDBRANCH   4   7
BRANCH   1  11
ATOM     10  C   UNL     1       1.948   7.365  20.291  0.00  0.00    +0.000 C 
ATOM     11  O   UNL     1       1.472   6.169  20.896  0.00  0.00    +0.000 OA
ENDBRANCH   1  11
BRANCH   5  12
ATOM     12  C   UNL     1       5.155   4.359  18.340  0.00  0.00    +0.000 C 
ATOM     13  O   UNL     1       5.045   3.874  17.216  0.00  0.00    +0.000 OA
BRANCH  12  14
ATOM     14  C   UNL     1       6.368   5.172  18.773  0.00  0.00    +0.000 C 
BRANCH  14  15
ATOM     15  C   UNL     1       7.344   5.457  17.640  0.00  0.00    +0.000 C 
BRANCH  15  16
ATOM     16  N   UNL     1       8.007   4.213  17.238  0.00  0.00    +0.000 NA
ATOM     17  H   UNL     1       9.001   4.262  17.461  0.00  0.00    +0.000 HD
ATOM     18  H   UNL     1       7.950   4.113  16.225  0.00  0.00    +0.000 HD
ENDBRANCH  15  16
ENDBRANCH  14  15
ENDBRANCH  12  14
ENDBRANCH   5  12
TORSDOF 6
ENDMDL
MODEL 5
REMARK VINA RESULT:      -5.3      2.851      5.070
REMARK  Name = 
REMARK  7 active torsions:
REMARK  status: ('A' for Active; 'I' for Inactive)
REMARK    1  A    between atoms: C_1  and  O_2
REMARK    2  A    between atoms: O_2  and  C_3
REMARK    3  A    between atoms: C_6  and  N_7
REMARK    4  A    between atoms: C_8  and  C_9
REMARK    5  A    between atoms: C_9  and  C_11
REMARK    6  A    between atoms: C_11  and  C_12
REMARK    7  A    between atoms: C_12  and  N_13
REMARK                            x       y       z     vdW  Elec       q    Type
REMARK                         _______ _______ _______ _____ _____    ______ ____
ROOT
ATOM      1  C   UNL     1       2.602   6.116  18.273  0.00  0.00    +0.000 A 
ATOM      2  C   UNL     1       2.136   4.812  18.386  0.00  0.00    +0.000 A 
ATOM      3  C   UNL     1       3.035   3.772  18.643  0.00  0.00    +0.000 A 
ATOM      4  C   UNL     1       4.414   4.008  18.756  0.00  0.00    +0.000 A 
ATOM      5  C   UNL     1       4.875   5.339  18.680  0.00  0.00    +0.000 A 
ATOM      6  C   UNL     1       3.967   6.372  18.403  0.00  0.00    +0.000 A 
ENDROOT
BRANCH   4   7
ATOM      7  N   UNL     1       5.232   2.944  19.178  0.00  0.00    +0.000 N 
ATOM      8  H   UNL     1       5.811   2.544  18.446  0.00  0.00    +0.000 HD
ATOM      9  H   UNL     1       5.784   3.199  20.007  0.00  0.00    +0.000 HD
ENDBRANCH   4   7
BRANCH   1  11
ATOM     10  C   UNL     1       2.537   8.444  17.905  0.00  0.00    +0.000 C 
ATOM     11  O   UNL     1       1.830   7.214  18.009  0.00  0.00    +0.000 OA
ENDBRANCH   1  11
BRANCH   5  12
ATOM     12  C   UNL     1       6.329   5.665  18.866  0.00  0.00    +0.000 C 
ATOM     13  O   UNL     1       6.893   5.376  19.919  0.00  0.00    +0.000 OA
BRANCH  12  14
ATOM     14  C   UNL     1       7.036   6.374  17.718  0.00  0.00    +0.000 C 
BRANCH  14  15
ATOM     15  C   UNL     1       7.370   5.454  16.551  0.00  0.00    +0.000 C 
BRANCH  15  16
ATOM     16  N   UNL     1       7.800   4.149  17.061  0.00  0.00    +0.000 NA
ATOM     17  H   UNL     1       8.763   3.968  16.779  0.00  0.00    +0.000 HD
ATOM     18  H   UNL     1       7.238   3.417  16.628  0.00  0.00    +0.000 HD
ENDBRANCH  15  16
ENDBRANCH  14  15
ENDBRANCH  12  14
ENDBRANCH   5  12
TORSDOF 6
ENDMDL
MODEL 6
REMARK VINA RESULT:      -5.3      2.947      5.623
REMARK  Name = 
REMARK  7 active torsions:
REMARK  status: ('A' for Active; 'I' for Inactive)
REMARK    1  A    between atoms: C_1  and  O_2
REMARK    2  A    between atoms: O_2  and  C_3
REMARK    3  A    between atoms: C_6  and  N_7
REMARK    4  A    between atoms: C_8  and  C_9
REMARK    5  A    between atoms: C_9  and  C_11
REMARK    6  A    between atoms: C_11  and  C_12
REMARK    7  A    between atoms: C_12  and  N_13
REMARK                            x       y       z     vdW  Elec       q    Type
REMARK                         _______ _______ _______ _____ _____    ______ ____
ROOT
ATOM      1  C   UNL     1       2.631   3.927  18.650  0.00  0.00    +0.000 A 
ATOM      2  C   UNL     1       3.495   3.367  19.584  0.00  0.00    +0.000 A 
ATOM      3  C   UNL     1       4.877   3.500  19.419  0.00  0.00    +0.000 A 
ATOM      4  C   UNL     1       5.422   4.159  18.307  0.00  0.00    +0.000 A 
ATOM      5  C   UNL     1       4.539   4.760  17.385  0.00  0.00    +0.000 A 
ATOM      6  C   UNL     1       3.154   4.605  17.549  0.00  0.00    +0.000 A 
ENDROOT
BRANCH   4   7
ATOM      7  N   UNL     1       6.809   4.397  18.295  0.00  0.00    +0.000 N 
ATOM      8  H   UNL     1       7.341   3.805  18.925  0.00  0.00    +0.000 HD
ATOM      9  H   UNL     1       7.186   4.377  17.339  0.00  0.00    +0.000 HD
ENDBRANCH   4   7
BRANCH   1  11
ATOM     10  C   UNL     1       0.729   2.544  18.811  0.00  0.00    +0.000 C 
ATOM     11  O   UNL     1       1.265   3.855  18.689  0.00  0.00    +0.000 OA
ENDBRANCH   1  11
BRANCH   5  12
ATOM     12  C   UNL     1       5.059   5.543  16.213  0.00  0.00    +0.000 C 
ATOM     13  O   UNL     1       5.293   6.744  16.332  0.00  0.00    +0.000 OA
BRANCH  12  14
ATOM     14  C   UNL     1       5.255   4.790  14.904  0.00  0.00    +0.000 C 
BRANCH  14  15
ATOM     15  C   UNL     1       6.703   4.397  14.640  0.00  0.00    +0.000 C 
BRANCH  15  16
ATOM     16  N   UNL     1       7.598   5.320  15.343  0.00  0.00    +0.000 NA
ATOM     17  H   UNL     1       8.414   5.519  14.766  0.00  0.00    +0.000 HD
ATOM     18  H   UNL     1       7.953   4.869  16.185  0.00  0.00    +0.000 HD
ENDBRANCH  15  16
ENDBRANCH  14  15
ENDBRANCH  12  14
ENDBRANCH   5  12
TORSDOF 6
ENDMDL
MODEL 7
REMARK VINA RESULT:      -5.3      2.396      2.898
REMARK  Name = 
REMARK  7 active torsions:
REMARK  status: ('A' for Active; 'I' for Inactive)
REMARK    1  A    between atoms: C_1  and  O_2
REMARK    2  A    between atoms: O_2  and  C_3
REMARK    3  A    between atoms: C_6  and  N_7
REMARK    4  A    between atoms: C_8  and  C_9
REMARK    5  A    between atoms: C_9  and  C_11
REMARK    6  A    between atoms: C_11  and  C_12
REMARK    7  A    between atoms: C_12  and  N_13
REMARK                            x       y       z     vdW  Elec       q    Type
REMARK                         _______ _______ _______ _____ _____    ______ ____
ROOT
ATOM      1  C   UNL     1       5.713   4.848  16.101  0.00  0.00    +0.000 A 
ATOM      2  C   UNL     1       5.675   6.166  16.539  0.00  0.00    +0.000 A 
ATOM      3  C   UNL     1       4.616   6.603  17.342  0.00  0.00    +0.000 A 
ATOM      4  C   UNL     1       3.562   5.745  17.692  0.00  0.00    +0.000 A 
ATOM      5  C   UNL     1       3.627   4.398  17.278  0.00  0.00    +0.000 A 
ATOM      6  C   UNL     1       4.684   3.976  16.457  0.00  0.00    +0.000 A 
ENDROOT
BRANCH   4   7
ATOM      7  N   UNL     1       2.623   6.205  18.634  0.00  0.00    +0.000 N 
ATOM      8  H   UNL     1       1.751   5.685  18.645  0.00  0.00    +0.000 HD
ATOM      9  H   UNL     1       3.037   6.282  19.572  0.00  0.00    +0.000 HD
ENDBRANCH   4   7
BRANCH   1  11
ATOM     10  C   UNL     1       6.266   3.972  13.983  0.00  0.00    +0.000 C 
ATOM     11  O   UNL     1       6.681   4.305  15.303  0.00  0.00    +0.000 OA
ENDBRANCH   1  11
BRANCH   5  12
ATOM     12  C   UNL     1       2.568   3.413  17.681  0.00  0.00    +0.000 C 
ATOM     13  O   UNL     1       1.387   3.643  17.428  0.00  0.00    +0.000 OA
BRANCH  12  14
ATOM     14  C   UNL     1       3.025   2.161  18.419  0.00  0.00    +0.000 C 
BRANCH  14  15
ATOM     15  C   UNL     1       3.590   2.445  19.804  0.00  0.00    +0.000 C 
BRANCH  15  16
ATOM     16  N   UNL     1       5.012   2.086  19.838  0.00  0.00    +0.000 NA
ATOM     17  H   UNL     1       5.576   2.920  19.999  0.00  0.00    +0.000 HD
ATOM     18  H   UNL     1       5.290   1.729  18.925  0.00  0.00    +0.000 HD
ENDBRANCH  15  16
ENDBRANCH  14  15
ENDBRANCH  12  14
ENDBRANCH   5  12
TORSDOF 6
ENDMDL
MODEL 8
REMARK VINA RESULT:      -5.3      3.887      6.103
REMARK  Name = 
REMARK  7 active torsions:
REMARK  status: ('A' for Active; 'I' for Inactive)
REMARK    1  A    between atoms: C_1  and  O_2
REMARK    2  A    between atoms: O_2  and  C_3
REMARK    3  A    between atoms: C_6  and  N_7
REMARK    4  A    between atoms: C_8  and  C_9
REMARK    5  A    between atoms: C_9  and  C_11
REMARK    6  A    between atoms: C_11  and  C_12
REMARK    7  A    between atoms: C_12  and  N_13
REMARK                            x       y       z     vdW  Elec       q    Type
REMARK                         _______ _______ _______ _____ _____    ______ ____
ROOT
ATOM      1  C   UNL     1       4.752   3.953  17.837  0.00  0.00    +0.000 A 
ATOM      2  C   UNL     1       5.257   4.903  18.717  0.00  0.00    +0.000 A 
ATOM      3  C   UNL     1       6.235   5.803  18.283  0.00  0.00    +0.000 A 
ATOM      4  C   UNL     1       6.751   5.750  16.979  0.00  0.00    +0.000 A 
ATOM      5  C   UNL     1       6.205   4.810  16.080  0.00  0.00    +0.000 A 
ATOM      6  C   UNL     1       5.238   3.900  16.531  0.00  0.00    +0.000 A 
ENDROOT
BRANCH   4   7
ATOM      7  N   UNL     1       7.607   6.788  16.566  0.00  0.00    +0.000 N 
ATOM      8  H   UNL     1       7.139   7.669  16.381  0.00  0.00    +0.000 HD
ATOM      9  H   UNL     1       8.400   6.901  17.210  0.00  0.00    +0.000 HD
ENDBRANCH   4   7
BRANCH   1  11
ATOM     10  C   UNL     1       2.584   3.123  17.427  0.00  0.00    +0.000 C 
ATOM     11  O   UNL     1       3.808   3.011  18.142  0.00  0.00    +0.000 OA
ENDBRANCH   1  11
BRANCH   5  12
ATOM     12  C   UNL     1       6.662   4.752  14.650  0.00  0.00    +0.000 C 
ATOM     13  O   UNL     1       7.675   5.356  14.304  0.00  0.00    +0.000 OA
BRANCH  12  14
ATOM     14  C   UNL     1       5.812   3.942  13.679  0.00  0.00    +0.000 C 
BRANCH  14  15
ATOM     15  C   UNL     1       6.534   3.599  12.382  0.00  0.00    +0.000 C 
BRANCH  15  16
ATOM     16  N   UNL     1       6.103   2.277  11.916  0.00  0.00    +0.000 NA
ATOM     17  H   UNL     1       6.872   1.613  11.997  0.00  0.00    +0.000 HD
ATOM     18  H   UNL     1       5.878   2.327  10.923  0.00  0.00    +0.000 HD
ENDBRANCH  15  16
ENDBRANCH  14  15
ENDBRANCH  12  14
ENDBRANCH   5  12
TORSDOF 6
ENDMDL
MODEL 9
REMARK VINA RESULT:      -5.3      2.249      2.889
REMARK  Name = 
REMARK  7 active torsions:
REMARK  status: ('A' for Active; 'I' for Inactive)
REMARK    1  A    between atoms: C_1  and  O_2
REMARK    2  A    between atoms: O_2  and  C_3
REMARK    3  A    between atoms: C_6  and  N_7
REMARK    4  A    between atoms: C_8  and  C_9
REMARK    5  A    between atoms: C_9  and  C_11
REMARK    6  A    between atoms: C_11  and  C_12
REMARK    7  A    between atoms: C_12  and  N_13
REMARK                            x       y       z     vdW  Elec       q    Type
REMARK                         _______ _______ _______ _____ _____    ______ ____
ROOT
ATOM      1  C   UNL     1       3.689   6.392  17.721  0.00  0.00    +0.000 A 
ATOM      2  C   UNL     1       4.863   5.720  17.402  0.00  0.00    +0.000 A 
ATOM      3  C   UNL     1       4.952   4.339  17.605  0.00  0.00    +0.000 A 
ATOM      4  C   UNL     1       3.888   3.612  18.160  0.00  0.00    +0.000 A 
ATOM      5  C   UNL     1       2.685   4.293  18.444  0.00  0.00    +0.000 A 
ATOM      6  C   UNL     1       2.614   5.681  18.254  0.00  0.00    +0.000 A 
ENDROOT
BRANCH   4   7
ATOM      7  N   UNL     1       3.988   2.208  18.180  0.00  0.00    +0.000 N 
ATOM      8  H   UNL     1       3.543   1.745  17.394  0.00  0.00    +0.000 HD
ATOM      9  H   UNL     1       4.961   1.901  18.306  0.00  0.00    +0.000 HD
ENDBRANCH   4   7
BRANCH   1  11
ATOM     10  C   UNL     1       2.219   8.208  18.037  0.00  0.00    +0.000 C 
ATOM     11  O   UNL     1       3.482   7.737  17.584  0.00  0.00    +0.000 OA
ENDBRANCH   1  11
BRANCH   5  12
ATOM     12  C   UNL     1       1.486   3.558  18.971  0.00  0.00    +0.000 C 
ATOM     13  O   UNL     1       0.903   2.744  18.259  0.00  0.00    +0.000 OA
BRANCH  12  14
ATOM     14  C   UNL     1       1.036   3.886  20.389  0.00  0.00    +0.000 C 
BRANCH  14  15
ATOM     15  C   UNL     1       2.186   3.998  21.381  0.00  0.00    +0.000 C 
BRANCH  15  16
ATOM     16  N   UNL     1       2.500   2.672  21.921  0.00  0.00    +0.000 NA
ATOM     17  H   UNL     1       1.666   2.261  22.338  0.00  0.00    +0.000 HD
ATOM     18  H   UNL     1       3.175   2.768  22.679  0.00  0.00    +0.000 HD
ENDBRANCH  15  16
ENDBRANCH  14  15
ENDBRANCH  12  14
ENDBRANCH   5  12
TORSDOF 6
ENDMDL
