MODEL 1
REMARK VINA RESULT:      -7.4      0.000      0.000
REMARK  Name = 
REMARK  4 active torsions:
REMARK  status: ('A' for Active; 'I' for Inactive)
REMARK    1  A    between atoms: N_1  and  C_2
REMARK    2  A    between atoms: C_2  and  C_3
REMARK    3  A    between atoms: C_3  and  C_4
REMARK    4  A    between atoms: C_16  and  C_17
REMARK                            x       y       z     vdW  Elec       q    Type
REMARK                         _______ _______ _______ _____ _____    ______ ____
ROOT
ATOM      1  C   UNL     1       6.643   5.131  15.820  0.00  0.00    +0.000 A 
ATOM      2  N   UNL     1       7.778   4.484  16.011  0.00  0.00    +0.000 NA
ATOM      3  N   UNL     1       7.967   4.329  17.354  0.00  0.00    +0.000 NA
ATOM      4  C   UNL     1       6.949   4.884  17.973  0.00  0.00    +0.000 A 
ATOM      5  N   UNL     1       6.089   5.446  17.054  0.00  0.00    +0.000 N 
ATOM      6  C   UNL     1       4.946   6.223  17.380  0.00  0.00    +0.000 A 
ATOM      7  C   UNL     1       4.625   7.337  16.587  0.00  0.00    +0.000 A 
ATOM      8  C   UNL     1       3.513   8.130  16.882  0.00  0.00    +0.000 A 
ATOM      9  C   UNL     1       2.741   7.843  17.998  0.00  0.00    +0.000 A 
ATOM     10 BR   UNL     1       1.232   8.908  18.396  0.00  0.00    +0.000 Br
ATOM     11  C   UNL     1       3.073   6.775  18.826  0.00  0.00    +0.000 A 
ATOM     12  C   UNL     1       4.165   5.939  18.519  0.00  0.00    +0.000 A 
ATOM     13  C   UNL     1       4.384   4.751  19.414  0.00  0.00    +0.000 C 
ATOM     14  N   UNL     1       5.533   4.347  19.850  0.00  0.00    +0.000 NA
ATOM     15  C   UNL     1       6.757   5.014  19.434  0.00  0.00    +0.000 C 
ENDROOT
BRANCH  13  16
ATOM     16  C   UNL     1       3.175   3.966  19.835  0.00  0.00    +0.000 A 
ATOM     17  C   UNL     1       2.712   4.042  21.144  0.00  0.00    +0.000 A 
ATOM     18  C   UNL     1       1.599   3.282  21.493  0.00  0.00    +0.000 A 
ATOM     19  C   UNL     1       1.001   2.471  20.534  0.00  0.00    +0.000 A 
ATOM     20  C   UNL     1       1.535   2.457  19.255  0.00  0.00    +0.000 A 
ATOM     21  N   UNL     1       2.604   3.189  18.880  0.00  0.00    +0.000 NA
ENDBRANCH  13  16
BRANCH   1  22
ATOM     22  C   UNL     1       6.039   5.323  14.468  0.00  0.00    +0.000 C 
BRANCH  22  23
ATOM     23  C   UNL     1       5.464   4.020  13.911  0.00  0.00    +0.000 C 
BRANCH  23  24
ATOM     24  N   UNL     1       6.461   3.321  13.095  0.00  0.00    +0.000 NA
ATOM     25  H   UNL     1       6.705   3.904  12.295  0.00  0.00    +0.000 HD
ATOM     26  H   UNL     1       6.045   2.475  12.704  0.00  0.00    +0.000 HD
ENDBRANCH  23  24
ENDBRANCH  22  23
ENDBRANCH   1  22
TORSDOF 4
ENDMDL
MODEL 2
REMARK VINA RESULT:      -7.4      0.905      1.214
REMARK  Name = 
REMARK  4 active torsions:
REMARK  status: ('A' for Active; 'I' for Inactive)
REMARK    1  A    between atoms: N_1  and  C_2
REMARK    2  A    between atoms: C_2  and  C_3
REMARK    3  A    between atoms: C_3  and  C_4
REMARK    4  A    between atoms: C_16  and  C_17
REMARK                            x       y       z     vdW  Elec       q    Type
REMARK                         _______ _______ _______ _____ _____    ______ ____
ROOT
ATOM      1  C   UNL     1       6.667   5.031  15.844  0.00  0.00    +0.000 A 
ATOM      2  N   UNL     1       7.803   4.397  16.071  0.00  0.00    +0.000 NA
ATOM      3  N   UNL     1       7.985   4.304  17.421  0.00  0.00    +0.000 NA
ATOM      4  C   UNL     1       6.961   4.884  18.007  0.00  0.00    +0.000 A 
ATOM      5  N   UNL     1       6.105   5.400  17.058  0.00  0.00    +0.000 N 
ATOM      6  C   UNL     1       4.957   6.186  17.343  0.00  0.00    +0.000 A 
ATOM      7  C   UNL     1       4.636   7.262  16.497  0.00  0.00    +0.000 A 
ATOM      8  C   UNL     1       3.521   8.064  16.750  0.00  0.00    +0.000 A 
ATOM      9  C   UNL     1       2.743   7.825  17.873  0.00  0.00    +0.000 A 
ATOM     10 BR   UNL     1       1.227   8.901  18.212  0.00  0.00    +0.000 Br
ATOM     11  C   UNL     1       3.074   6.797  18.751  0.00  0.00    +0.000 A 
ATOM     12  C   UNL     1       4.170   5.952  18.489  0.00  0.00    +0.000 A 
ATOM     13  C   UNL     1       4.387   4.807  19.439  0.00  0.00    +0.000 C 
ATOM     14  N   UNL     1       5.535   4.427  19.899  0.00  0.00    +0.000 NA
ATOM     15  C   UNL     1       6.760   5.079  19.460  0.00  0.00    +0.000 C 
ENDROOT
BRANCH  13  16
ATOM     16  C   UNL     1       3.179   4.037  19.888  0.00  0.00    +0.000 A 
ATOM     17  C   UNL     1       2.362   3.410  18.954  0.00  0.00    +0.000 A 
ATOM     18  C   UNL     1       1.242   2.723  19.415  0.00  0.00    +0.000 A 
ATOM     19  C   UNL     1       0.975   2.697  20.779  0.00  0.00    +0.000 A 
ATOM     20  C   UNL     1       1.845   3.354  21.636  0.00  0.00    +0.000 A 
ATOM     21  N   UNL     1       2.945   4.019  21.224  0.00  0.00    +0.000 NA
ENDBRANCH  13  16
BRANCH   1  22
ATOM     22  C   UNL     1       6.070   5.159  14.481  0.00  0.00    +0.000 C 
BRANCH  22  23
ATOM     23  C   UNL     1       7.064   4.770  13.385  0.00  0.00    +0.000 C 
BRANCH  23  24
ATOM     24  N   UNL     1       8.207   5.687  13.373  0.00  0.00    +0.000 NA
ATOM     25  H   UNL     1       9.053   5.168  13.610  0.00  0.00    +0.000 HD
ATOM     26  H   UNL     1       8.093   6.380  14.114  0.00  0.00    +0.000 HD
ENDBRANCH  23  24
ENDBRANCH  22  23
ENDBRANCH   1  22
TORSDOF 4
ENDMDL
MODEL 3
REMARK VINA RESULT:      -6.4      1.967      5.585
REMARK  Name = 
REMARK  4 active torsions:
REMARK  status: ('A' for Active; 'I' for Inactive)
REMARK    1  A    between atoms: N_1  and  C_2
REMARK    2  A    between atoms: C_2  and  C_3
REMARK    3  A    between atoms: C_3  and  C_4
REMARK    4  A    between atoms: C_16  and  C_17
REMARK                            x       y       z     vdW  Elec       q    Type
REMARK                         _______ _______ _______ _____ _____    ______ ____
ROOT
ATOM      1  C   UNL     1       1.968   3.250  19.258  0.00  0.00    +0.000 A 
ATOM      2  N   UNL     1       2.163   1.993  18.903  0.00  0.00    +0.000 NA
ATOM      3  N   UNL     1       2.935   1.975  17.778  0.00  0.00    +0.000 NA
ATOM      4  C   UNL     1       3.204   3.220  17.453  0.00  0.00    +0.000 A 
ATOM      5  N   UNL     1       2.586   4.081  18.334  0.00  0.00    +0.000 N 
ATOM      6  C   UNL     1       2.573   5.496  18.212  0.00  0.00    +0.000 A 
ATOM      7  C   UNL     1       1.409   6.203  18.555  0.00  0.00    +0.000 A 
ATOM      8  C   UNL     1       1.355   7.595  18.440  0.00  0.00    +0.000 A 
ATOM      9  C   UNL     1       2.449   8.285  17.938  0.00  0.00    +0.000 A 
ATOM     10 BR   UNL     1       2.383  10.168  17.790  0.00  0.00    +0.000 Br
ATOM     11  C   UNL     1       3.593   7.598  17.544  0.00  0.00    +0.000 A 
ATOM     12  C   UNL     1       3.680   6.199  17.693  0.00  0.00    +0.000 A 
ATOM     13  C   UNL     1       4.992   5.558  17.336  0.00  0.00    +0.000 C 
ATOM     14  N   UNL     1       5.127   4.453  16.677  0.00  0.00    +0.000 NA
ATOM     15  C   UNL     1       3.958   3.688  16.269  0.00  0.00    +0.000 C 
ENDROOT
BRANCH  13  16
ATOM     16  C   UNL     1       6.248   6.250  17.780  0.00  0.00    +0.000 A 
ATOM     17  C   UNL     1       6.993   5.738  18.836  0.00  0.00    +0.000 A 
ATOM     18  C   UNL     1       8.140   6.424  19.225  0.00  0.00    +0.000 A 
ATOM     19  C   UNL     1       8.493   7.592  18.560  0.00  0.00    +0.000 A 
ATOM     20  C   UNL     1       7.687   8.030  17.520  0.00  0.00    +0.000 A 
ATOM     21  N   UNL     1       6.575   7.383  17.109  0.00  0.00    +0.000 NA
ENDBRANCH  13  16
BRANCH   1  22
ATOM     22  C   UNL     1       1.309   3.636  20.541  0.00  0.00    +0.000 C 
BRANCH  22  23
ATOM     23  C   UNL     1       1.477   2.559  21.614  0.00  0.00    +0.000 C 
BRANCH  23  24
ATOM     24  N   UNL     1       2.893   2.372  21.944  0.00  0.00    +0.000 NA
ATOM     25  H   UNL     1       3.288   3.267  22.233  0.00  0.00    +0.000 HD
ATOM     26  H   UNL     1       3.404   2.103  21.102  0.00  0.00    +0.000 HD
ENDBRANCH  23  24
ENDBRANCH  22  23
ENDBRANCH   1  22
TORSDOF 4
ENDMDL
MODEL 4
REMARK VINA RESULT:      -6.3      1.887      5.488
REMARK  Name = 
REMARK  4 active torsions:
REMARK  status: ('A' for Active; 'I' for Inactive)
REMARK    1  A    between atoms: N_1  and  C_2
REMARK    2  A    between atoms: C_2  and  C_3
REMARK    3  A    between atoms: C_3  and  C_4
REMARK    4  A    between atoms: C_16  and  C_17
REMARK                            x       y       z     vdW  Elec       q    Type
REMARK                         _______ _______ _______ _____ _____    ______ ____
ROOT
ATOM      1  C   UNL     1       2.902   2.906  19.388  0.00  0.00    +0.000 A 
ATOM      2  N   UNL     1       3.277   1.699  19.004  0.00  0.00    +0.000 NA
ATOM      3  N   UNL     1       3.976   1.813  17.838  0.00  0.00    +0.000 NA
ATOM      4  C   UNL     1       4.021   3.087  17.516  0.00  0.00    +0.000 A 
ATOM      5  N   UNL     1       3.324   3.832  18.443  0.00  0.00    +0.000 N 
ATOM      6  C   UNL     1       3.076   5.226  18.342  0.00  0.00    +0.000 A 
ATOM      7  C   UNL     1       1.834   5.734  18.761  0.00  0.00    +0.000 A 
ATOM      8  C   UNL     1       1.550   7.098  18.669  0.00  0.00    +0.000 A 
ATOM      9  C   UNL     1       2.487   7.960  18.117  0.00  0.00    +0.000 A 
ATOM     10 BR   UNL     1       2.110   9.808  18.000  0.00  0.00    +0.000 Br
ATOM     11  C   UNL     1       3.702   7.469  17.649  0.00  0.00    +0.000 A 
ATOM     12  C   UNL     1       4.022   6.103  17.773  0.00  0.00    +0.000 A 
ATOM     13  C   UNL     1       5.398   5.685  17.333  0.00  0.00    +0.000 C 
ATOM     14  N   UNL     1       5.671   4.620  16.651  0.00  0.00    +0.000 NA
ATOM     15  C   UNL     1       4.620   3.677  16.299  0.00  0.00    +0.000 C 
ENDROOT
BRANCH  13  16
ATOM     16  C   UNL     1       6.549   6.569  17.716  0.00  0.00    +0.000 A 
ATOM     17  C   UNL     1       7.419   6.184  18.730  0.00  0.00    +0.000 A 
ATOM     18  C   UNL     1       8.461   7.044  19.064  0.00  0.00    +0.000 A 
ATOM     19  C   UNL     1       8.589   8.253  18.387  0.00  0.00    +0.000 A 
ATOM     20  C   UNL     1       7.671   8.554  17.392  0.00  0.00    +0.000 A 
ATOM     21  N   UNL     1       6.657   7.738  17.036  0.00  0.00    +0.000 NA
ENDBRANCH  13  16
BRANCH   1  22
ATOM     22  C   UNL     1       2.265   3.174  20.711  0.00  0.00    +0.000 C 
BRANCH  22  23
ATOM     23  C   UNL     1       0.768   2.860  20.697  0.00  0.00    +0.000 C 
BRANCH  23  24
ATOM     24  N   UNL     1       0.324   2.516  19.343  0.00  0.00    +0.000 NA
ATOM     25  H   UNL     1      -0.542   3.015  19.140  0.00  0.00    +0.000 HD
ATOM     26  H   UNL     1       0.085   1.524  19.307  0.00  0.00    +0.000 HD
ENDBRANCH  23  24
ENDBRANCH  22  23
ENDBRANCH   1  22
TORSDOF 4
ENDMDL
MODEL 5
REMARK VINA RESULT:      -6.3      8.216     10.554
REMARK  Name = 
REMARK  4 active torsions:
REMARK  status: ('A' for Active; 'I' for Inactive)
REMARK    1  A    between atoms: N_1  and  C_2
REMARK    2  A    between atoms: C_2  and  C_3
REMARK    3  A    between atoms: C_3  and  C_4
REMARK    4  A    between atoms: C_16  and  C_17
REMARK                            x       y       z     vdW  Elec       q    Type
REMARK                         _______ _______ _______ _____ _____    ______ ____
ROOT
ATOM      1  C   UNL     1      -0.290  10.442  21.297  0.00  0.00    +0.000 A 
ATOM      2  N   UNL     1       0.163  11.128  22.330  0.00  0.00    +0.000 NA
ATOM      3  N   UNL     1      -0.307  12.406  22.241  0.00  0.00    +0.000 NA
ATOM      4  C   UNL     1      -1.042  12.492  21.154  0.00  0.00    +0.000 A 
ATOM      5  N   UNL     1      -1.040  11.285  20.488  0.00  0.00    +0.000 N 
ATOM      6  C   UNL     1      -1.639  11.057  19.221  0.00  0.00    +0.000 A 
ATOM      7  C   UNL     1      -0.994  10.214  18.300  0.00  0.00    +0.000 A 
ATOM      8  C   UNL     1      -1.547   9.972  17.040  0.00  0.00    +0.000 A 
ATOM      9  C   UNL     1      -2.726  10.606  16.675  0.00  0.00    +0.000 A 
ATOM     10 BR   UNL     1      -3.483  10.274  14.975  0.00  0.00    +0.000 Br
ATOM     11  C   UNL     1      -3.353  11.485  17.553  0.00  0.00    +0.000 A 
ATOM     12  C   UNL     1      -2.831  11.707  18.843  0.00  0.00    +0.000 A 
ATOM     13  C   UNL     1      -3.632  12.592  19.757  0.00  0.00    +0.000 C 
ATOM     14  N   UNL     1      -3.141  13.504  20.531  0.00  0.00    +0.000 NA
ATOM     15  C   UNL     1      -1.702  13.702  20.619  0.00  0.00    +0.000 C 
ENDROOT
BRANCH  13  16
ATOM     16  C   UNL     1      -5.122  12.404  19.777  0.00  0.00    +0.000 A 
ATOM     17  C   UNL     1      -5.891  12.789  18.684  0.00  0.00    +0.000 A 
ATOM     18  C   UNL     1      -7.270  12.612  18.756  0.00  0.00    +0.000 A 
ATOM     19  C   UNL     1      -7.828  12.073  19.910  0.00  0.00    +0.000 A 
ATOM     20  C   UNL     1      -6.982  11.722  20.951  0.00  0.00    +0.000 A 
ATOM     21  N   UNL     1      -5.641  11.868  20.910  0.00  0.00    +0.000 NA
ENDBRANCH  13  16
BRANCH   1  22
ATOM     22  C   UNL     1      -0.112   8.965  21.165  0.00  0.00    +0.000 C 
BRANCH  22  23
ATOM     23  C   UNL     1       1.265   8.512  21.654  0.00  0.00    +0.000 C 
BRANCH  23  24
ATOM     24  N   UNL     1       1.816   7.482  20.769  0.00  0.00    +0.000 NA
ATOM     25  H   UNL     1       1.560   7.699  19.806  0.00  0.00    +0.000 HD
ATOM     26  H   UNL     1       1.373   6.585  20.977  0.00  0.00    +0.000 HD
ENDBRANCH  23  24
ENDBRANCH  22  23
ENDBRANCH   1  22
TORSDOF 4
ENDMDL
MODEL 6
REMARK VINA RESULT:      -6.2      1.917      5.591
REMARK  Name = 
REMARK  4 active torsions:
REMARK  status: ('A' for Active; 'I' for Inactive)
REMARK    1  A    between atoms: N_1  and  C_2
REMARK    2  A    between atoms: C_2  and  C_3
REMARK    3  A    between atoms: C_3  and  C_4
REMARK    4  A    between atoms: C_16  and  C_17
REMARK                            x       y       z     vdW  Elec       q    Type
REMARK                         _______ _______ _______ _____ _____    ______ ____
ROOT
ATOM      1  C   UNL     1       1.829   3.141  19.281  0.00  0.00    +0.000 A 
ATOM      2  N   UNL     1       2.012   1.880  18.936  0.00  0.00    +0.000 NA
ATOM      3  N   UNL     1       2.824   1.845  17.839  0.00  0.00    +0.000 NA
ATOM      4  C   UNL     1       3.128   3.084  17.521  0.00  0.00    +0.000 A 
ATOM      5  N   UNL     1       2.495   3.958  18.379  0.00  0.00    +0.000 N 
ATOM      6  C   UNL     1       2.514   5.373  18.254  0.00  0.00    +0.000 A 
ATOM      7  C   UNL     1       1.352   6.103  18.555  0.00  0.00    +0.000 A 
ATOM      8  C   UNL     1       1.329   7.495  18.436  0.00  0.00    +0.000 A 
ATOM      9  C   UNL     1       2.453   8.163  17.973  0.00  0.00    +0.000 A 
ATOM     10 BR   UNL     1       2.429  10.046  17.820  0.00  0.00    +0.000 Br
ATOM     11  C   UNL     1       3.597   7.453  17.620  0.00  0.00    +0.000 A 
ATOM     12  C   UNL     1       3.651   6.054  17.774  0.00  0.00    +0.000 A 
ATOM     13  C   UNL     1       4.963   5.387  17.465  0.00  0.00    +0.000 C 
ATOM     14  N   UNL     1       5.100   4.278  16.813  0.00  0.00    +0.000 NA
ATOM     15  C   UNL     1       3.932   3.535  16.365  0.00  0.00    +0.000 C 
ENDROOT
BRANCH  13  16
ATOM     16  C   UNL     1       6.215   6.056  17.953  0.00  0.00    +0.000 A 
ATOM     17  C   UNL     1       6.706   7.183  17.302  0.00  0.00    +0.000 A 
ATOM     18  C   UNL     1       7.880   7.759  17.779  0.00  0.00    +0.000 A 
ATOM     19  C   UNL     1       8.524   7.187  18.871  0.00  0.00    +0.000 A 
ATOM     20  C   UNL     1       7.962   6.061  19.453  0.00  0.00    +0.000 A 
ATOM     21  N   UNL     1       6.820   5.485  19.025  0.00  0.00    +0.000 NA
ENDBRANCH  13  16
BRANCH   1  22
ATOM     22  C   UNL     1       1.133   3.542  20.540  0.00  0.00    +0.000 C 
BRANCH  22  23
ATOM     23  C   UNL     1       1.446   2.587  21.693  0.00  0.00    +0.000 C 
BRANCH  23  24
ATOM     24  N   UNL     1       2.893   2.484  21.902  0.00  0.00    +0.000 NA
ATOM     25  H   UNL     1       3.269   3.413  22.091  0.00  0.00    +0.000 HD
ATOM     26  H   UNL     1       3.339   2.177  21.037  0.00  0.00    +0.000 HD
ENDBRANCH  23  24
ENDBRANCH  22  23
ENDBRANCH   1  22
TORSDOF 4
ENDMDL
MODEL 7
REMARK VINA RESULT:      -6.2      2.641      4.690
REMARK  Name = 
REMARK  4 active torsions:
REMARK  status: ('A' for Active; 'I' for Inactive)
REMARK    1  A    between atoms: N_1  and  C_2
REMARK    2  A    between atoms: C_2  and  C_3
REMARK    3  A    between atoms: C_3  and  C_4
REMARK    4  A    between atoms: C_16  and  C_17
REMARK                            x       y       z     vdW  Elec       q    Type
REMARK                         _______ _______ _______ _____ _____    ______ ____
ROOT
ATOM      1  C   UNL     1       6.919   5.655  17.759  0.00  0.00    +0.000 A 
ATOM      2  N   UNL     1       7.601   6.471  16.976  0.00  0.00    +0.000 NA
ATOM      3  N   UNL     1       6.718   7.194  16.228  0.00  0.00    +0.000 NA
ATOM      4  C   UNL     1       5.503   6.813  16.557  0.00  0.00    +0.000 A 
ATOM      5  N   UNL     1       5.564   5.810  17.500  0.00  0.00    +0.000 N 
ATOM      6  C   UNL     1       4.443   5.092  17.994  0.00  0.00    +0.000 A 
ATOM      7  C   UNL     1       4.568   3.716  18.252  0.00  0.00    +0.000 A 
ATOM      8  C   UNL     1       3.485   2.974  18.730  0.00  0.00    +0.000 A 
ATOM      9  C   UNL     1       2.256   3.592  18.910  0.00  0.00    +0.000 A 
ATOM     10 BR   UNL     1       0.791   2.594  19.566  0.00  0.00    +0.000 Br
ATOM     11  C   UNL     1       2.097   4.942  18.611  0.00  0.00    +0.000 A 
ATOM     12  C   UNL     1       3.190   5.714  18.169  0.00  0.00    +0.000 A 
ATOM     13  C   UNL     1       2.946   7.184  17.970  0.00  0.00    +0.000 C 
ATOM     14  N   UNL     1       3.383   7.885  16.974  0.00  0.00    +0.000 NA
ATOM     15  C   UNL     1       4.232   7.278  15.961  0.00  0.00    +0.000 C 
ENDROOT
BRANCH  13  16
ATOM     16  C   UNL     1       2.134   7.901  19.010  0.00  0.00    +0.000 A 
ATOM     17  C   UNL     1       2.034   7.386  20.298  0.00  0.00    +0.000 A 
ATOM     18  C   UNL     1       1.255   8.075  21.223  0.00  0.00    +0.000 A 
ATOM     19  C   UNL     1       0.601   9.238  20.830  0.00  0.00    +0.000 A 
ATOM     20  C   UNL     1       0.756   9.674  19.523  0.00  0.00    +0.000 A 
ATOM     21  N   UNL     1       1.513   9.037  18.605  0.00  0.00    +0.000 NA
ENDBRANCH  13  16
BRANCH   1  22
ATOM     22  C   UNL     1       7.560   4.839  18.832  0.00  0.00    +0.000 C 
BRANCH  22  23
ATOM     23  C   UNL     1       8.333   5.709  19.825  0.00  0.00    +0.000 C 
BRANCH  23  24
ATOM     24  N   UNL     1       8.293   5.124  21.168  0.00  0.00    +0.000 NA
ATOM     25  H   UNL     1       7.358   5.249  21.557  0.00  0.00    +0.000 HD
ATOM     26  H   UNL     1       8.919   5.645  21.783  0.00  0.00    +0.000 HD
ENDBRANCH  23  24
ENDBRANCH  22  23
ENDBRANCH   1  22
TORSDOF 4
ENDMDL
MODEL 8
REMARK VINA RESULT:      -6.1      2.763      4.622
REMARK  Name = 
REMARK  4 active torsions:
REMARK  status: ('A' for Active; 'I' for Inactive)
REMARK    1  A    between atoms: N_1  and  C_2
REMARK    2  A    between atoms: C_2  and  C_3
REMARK    3  A    between atoms: C_3  and  C_4
REMARK    4  A    between atoms: C_16  and  C_17
REMARK                            x       y       z     vdW  Elec       q    Type
REMARK                         _______ _______ _______ _____ _____    ______ ____
ROOT
ATOM      1  C   UNL     1       6.782   6.269  18.247  0.00  0.00    +0.000 A 
ATOM      2  N   UNL     1       7.279   7.009  17.273  0.00  0.00    +0.000 NA
ATOM      3  N   UNL     1       6.246   7.480  16.516  0.00  0.00    +0.000 NA
ATOM      4  C   UNL     1       5.126   7.023  17.031  0.00  0.00    +0.000 A 
ATOM      5  N   UNL     1       5.401   6.215  18.113  0.00  0.00    +0.000 N 
ATOM      6  C   UNL     1       4.433   5.468  18.835  0.00  0.00    +0.000 A 
ATOM      7  C   UNL     1       4.763   4.184  19.299  0.00  0.00    +0.000 A 
ATOM      8  C   UNL     1       3.834   3.415  20.005  0.00  0.00    +0.000 A 
ATOM      9  C   UNL     1       2.554   3.906  20.213  0.00  0.00    +0.000 A 
ATOM     10 BR   UNL     1       1.297   2.873  21.175  0.00  0.00    +0.000 Br
ATOM     11  C   UNL     1       2.190   5.154  19.716  0.00  0.00    +0.000 A 
ATOM     12  C   UNL     1       3.127   5.960  19.039  0.00  0.00    +0.000 A 
ATOM     13  C   UNL     1       2.672   7.333  18.630  0.00  0.00    +0.000 C 
ATOM     14  N   UNL     1       2.924   7.894  17.492  0.00  0.00    +0.000 NA
ATOM     15  C   UNL     1       3.758   7.223  16.506  0.00  0.00    +0.000 C 
ENDROOT
BRANCH  13  16
ATOM     16  C   UNL     1       1.863   8.121  19.619  0.00  0.00    +0.000 A 
ATOM     17  C   UNL     1       1.768   7.698  20.941  0.00  0.00    +0.000 A 
ATOM     18  C   UNL     1       0.992   8.450  21.818  0.00  0.00    +0.000 A 
ATOM     19  C   UNL     1       0.335   9.581  21.346  0.00  0.00    +0.000 A 
ATOM     20  C   UNL     1       0.486   9.924  20.011  0.00  0.00    +0.000 A 
ATOM     21  N   UNL     1       1.240   9.225  19.137  0.00  0.00    +0.000 NA
ENDBRANCH  13  16
BRANCH   1  22
ATOM     22  C   UNL     1       7.616   5.735  19.365  0.00  0.00    +0.000 C 
BRANCH  22  23
ATOM     23  C   UNL     1       8.504   4.575  18.909  0.00  0.00    +0.000 C 
BRANCH  23  24
ATOM     24  N   UNL     1       8.104   4.108  17.579  0.00  0.00    +0.000 NA
ATOM     25  H   UNL     1       7.665   4.878  17.073  0.00  0.00    +0.000 HD
ATOM     26  H   UNL     1       7.381   3.394  17.674  0.00  0.00    +0.000 HD
ENDBRANCH  23  24
ENDBRANCH  22  23
ENDBRANCH   1  22
TORSDOF 4
ENDMDL
MODEL 9
REMARK VINA RESULT:      -6.0      8.930     10.796
REMARK  Name = 
REMARK  4 active torsions:
REMARK  status: ('A' for Active; 'I' for Inactive)
REMARK    1  A    between atoms: N_1  and  C_2
REMARK    2  A    between atoms: C_2  and  C_3
REMARK    3  A    between atoms: C_3  and  C_4
REMARK    4  A    between atoms: C_16  and  C_17
REMARK                            x       y       z     vdW  Elec       q    Type
REMARK                         _______ _______ _______ _____ _____    ______ ____
ROOT
ATOM      1  C   UNL     1       0.740  12.007  19.823  0.00  0.00    +0.000 A 
ATOM      2  N   UNL     1       0.971  10.739  19.540  0.00  0.00    +0.000 NA
ATOM      3  N   UNL     1       0.596   9.981  20.612  0.00  0.00    +0.000 NA
ATOM      4  C   UNL     1       0.141  10.792  21.541  0.00  0.00    +0.000 A 
ATOM      5  N   UNL     1       0.241  12.099  21.115  0.00  0.00    +0.000 N 
ATOM      6  C   UNL     1      -0.055  13.237  21.912  0.00  0.00    +0.000 A 
ATOM      7  C   UNL     1       0.746  14.385  21.792  0.00  0.00    +0.000 A 
ATOM      8  C   UNL     1       0.491  15.520  22.565  0.00  0.00    +0.000 A 
ATOM      9  C   UNL     1      -0.538  15.501  23.495  0.00  0.00    +0.000 A 
ATOM     10 BR   UNL     1      -0.891  17.038  24.536  0.00  0.00    +0.000 Br
ATOM     11  C   UNL     1      -1.309  14.356  23.666  0.00  0.00    +0.000 A 
ATOM     12  C   UNL     1      -1.094  13.217  22.865  0.00  0.00    +0.000 A 
ATOM     13  C   UNL     1      -2.043  12.066  23.051  0.00  0.00    +0.000 C 
ATOM     14  N   UNL     1      -1.704  10.819  23.095  0.00  0.00    +0.000 NA
ATOM     15  C   UNL     1      -0.317  10.423  22.898  0.00  0.00    +0.000 C 
ENDROOT
BRANCH  13  16
ATOM     16  C   UNL     1      -3.504  12.386  23.193  0.00  0.00    +0.000 A 
ATOM     17  C   UNL     1      -4.209  12.924  22.123  0.00  0.00    +0.000 A 
ATOM     18  C   UNL     1      -5.557  13.221  22.307  0.00  0.00    +0.000 A 
ATOM     19  C   UNL     1      -6.143  12.983  23.545  0.00  0.00    +0.000 A 
ATOM     20  C   UNL     1      -5.359  12.447  24.555  0.00  0.00    +0.000 A 
ATOM     21  N   UNL     1      -4.055  12.136  24.407  0.00  0.00    +0.000 NA
ENDBRANCH  13  16
BRANCH   1  22
ATOM     22  C   UNL     1       0.873  13.099  18.813  0.00  0.00    +0.000 C 
BRANCH  22  23
ATOM     23  C   UNL     1      -0.490  13.579  18.310  0.00  0.00    +0.000 C 
BRANCH  23  24
ATOM     24  N   UNL     1      -1.171  12.515  17.566  0.00  0.00    +0.000 NA
ATOM     25  H   UNL     1      -0.474  11.943  17.089  0.00  0.00    +0.000 HD
ATOM     26  H   UNL     1      -1.741  12.930  16.828  0.00  0.00    +0.000 HD
ENDBRANCH  23  24
ENDBRANCH  22  23
ENDBRANCH   1  22
TORSDOF 4
ENDMDL
