MODEL 1
REMARK VINA RESULT:      -7.2      0.000      0.000
REMARK  Name = 
REMARK  3 active torsions:
REMARK  status: ('A' for Active; 'I' for Inactive)
REMARK    1  A    between atoms: C_14  and  N_15
REMARK    2  A    between atoms: N_15  and  C_16
REMARK    3  A    between atoms: C_16  and  C_17
REMARK                            x       y       z     vdW  Elec       q    Type
REMARK                         _______ _______ _______ _____ _____    ______ ____
ROOT
ATOM      1  C   UNL     1       1.631   2.149  19.618  0.00  0.00    +0.000 A 
ATOM      2  C   UNL     1       2.507   2.267  18.531  0.00  0.00    +0.000 A 
ATOM      3  C   UNL     1       2.918   3.514  18.063  0.00  0.00    +0.000 A 
ATOM      4  C   UNL     1       2.408   4.631  18.733  0.00  0.00    +0.000 A 
ATOM      5  N   UNL     1       2.586   5.974  18.543  0.00  0.00    +0.000 N 
ATOM      6  C   UNL     1       1.892   6.657  19.513  0.00  0.00    +0.000 A 
ATOM      7  N   UNL     1       1.961   8.010  19.599  0.00  0.00    +0.000 N 
ATOM      8  C   UNL     1       2.247   8.887  18.471  0.00  0.00    +0.000 C 
ATOM      9  C   UNL     1       0.983   9.306  17.728  0.00  0.00    +0.000 C 
ATOM     10  C   UNL     1      -0.099  10.020  18.539  0.00  0.00    +0.000 C 
ATOM     11  N   UNL     1       0.365  10.506  19.831  0.00  0.00    +0.000 N 
ATOM     12  C   UNL     1       0.520  11.846  20.123  0.00  0.00    +0.000 A 
ATOM     13  C   UNL     1      -0.271  12.805  19.511  0.00  0.00    +0.000 A 
ATOM     14  C   UNL     1      -0.029  14.142  19.754  0.00  0.00    +0.000 A 
ATOM     15  N   UNL     1       0.943  14.531  20.584  0.00  0.00    +0.000 NA
ATOM     16  C   UNL     1       1.633  13.541  21.177  0.00  0.00    +0.000 A 
ATOM     17  N   UNL     1       1.467  12.219  20.999  0.00  0.00    +0.000 NA
ATOM     18  C   UNL     1       0.444   9.522  20.925  0.00  0.00    +0.000 C 
ATOM     19  C   UNL     1       1.719   8.670  20.896  0.00  0.00    +0.000 C 
ATOM     20  N   UNL     1       1.267   5.816  20.307  0.00  0.00    +0.000 NA
ATOM     21  C   UNL     1       1.563   4.557  19.824  0.00  0.00    +0.000 A 
ATOM     22  C   UNL     1       1.149   3.294  20.280  0.00  0.00    +0.000 A 
ATOM     23  H   UNL     1       3.189   6.387  17.857  0.00  0.00    +0.000 HD
ENDROOT
BRANCH  14  24
ATOM     24  N   UNL     1      -0.793  15.053  19.013  0.00  0.00    +0.000 N 
ATOM     25  H   UNL     1      -1.782  14.827  19.037  0.00  0.00    +0.000 HD
BRANCH  24  26
ATOM     26  C   UNL     1      -0.492  16.462  19.161  0.00  0.00    +0.000 C 
BRANCH  26  27
ATOM     27  C   UNL     1      -0.403  17.068  17.787  0.00  0.00    +0.000 C 
ATOM     28  C   UNL     1      -1.012  18.418  17.492  0.00  0.00    +0.000 C 
ATOM     29  C   UNL     1       0.482  18.264  17.539  0.00  0.00    +0.000 C 
ENDBRANCH  26  27
ENDBRANCH  24  26
ENDBRANCH  14  24
TORSDOF 3
ENDMDL
MODEL 2
REMARK VINA RESULT:      -7.0      2.633      3.409
REMARK  Name = 
REMARK  3 active torsions:
REMARK  status: ('A' for Active; 'I' for Inactive)
REMARK    1  A    between atoms: C_14  and  N_15
REMARK    2  A    between atoms: N_15  and  C_16
REMARK    3  A    between atoms: C_16  and  C_17
REMARK                            x       y       z     vdW  Elec       q    Type
REMARK                         _______ _______ _______ _____ _____    ______ ____
ROOT
ATOM      1  C   UNL     1       3.579   3.160  18.560  0.00  0.00    +0.000 A 
ATOM      2  C   UNL     1       4.256   3.772  17.498  0.00  0.00    +0.000 A 
ATOM      3  C   UNL     1       4.152   5.142  17.264  0.00  0.00    +0.000 A 
ATOM      4  C   UNL     1       3.335   5.865  18.140  0.00  0.00    +0.000 A 
ATOM      5  N   UNL     1       3.003   7.190  18.201  0.00  0.00    +0.000 N 
ATOM      6  C   UNL     1       2.198   7.398  19.296  0.00  0.00    +0.000 A 
ATOM      7  N   UNL     1       1.785   8.646  19.632  0.00  0.00    +0.000 N 
ATOM      8  C   UNL     1       1.638   9.741  18.682  0.00  0.00    +0.000 C 
ATOM      9  C   UNL     1       0.249   9.784  18.056  0.00  0.00    +0.000 C 
ATOM     10  C   UNL     1      -0.943   9.903  19.007  0.00  0.00    +0.000 C 
ATOM     11  N   UNL     1      -0.573  10.303  20.358  0.00  0.00    +0.000 N 
ATOM     12  C   UNL     1      -0.883  11.537  20.892  0.00  0.00    +0.000 A 
ATOM     13  C   UNL     1      -2.015  12.225  20.487  0.00  0.00    +0.000 A 
ATOM     14  C   UNL     1      -2.248  13.497  20.971  0.00  0.00    +0.000 A 
ATOM     15  N   UNL     1      -1.412  14.072  21.840  0.00  0.00    +0.000 NA
ATOM     16  C   UNL     1      -0.364  13.321  22.223  0.00  0.00    +0.000 A 
ATOM     17  N   UNL     1      -0.061  12.081  21.804  0.00  0.00    +0.000 NA
ATOM     18  C   UNL     1      -0.052   9.249  21.247  0.00  0.00    +0.000 C 
ATOM     19  C   UNL     1       1.436   8.944  21.034  0.00  0.00    +0.000 C 
ATOM     20  N   UNL     1       1.987   6.265  19.931  0.00  0.00    +0.000 NA
ATOM     21  C   UNL     1       2.671   5.303  19.215  0.00  0.00    +0.000 A 
ATOM     22  C   UNL     1       2.778   3.919  19.434  0.00  0.00    +0.000 A 
ATOM     23  H   UNL     1       3.356   7.904  17.594  0.00  0.00    +0.000 HD
ENDROOT
BRANCH  14  24
ATOM     24  N   UNL     1      -3.349  14.173  20.429  0.00  0.00    +0.000 N 
ATOM     25  H   UNL     1      -3.639  13.776  19.541  0.00  0.00    +0.000 HD
BRANCH  24  26
ATOM     26  C   UNL     1      -4.437  14.513  21.322  0.00  0.00    +0.000 C 
BRANCH  26  27
ATOM     27  C   UNL     1      -5.061  13.234  21.809  0.00  0.00    +0.000 C 
ATOM     28  C   UNL     1      -6.560  13.090  21.908  0.00  0.00    +0.000 C 
ATOM     29  C   UNL     1      -5.804  12.337  20.851  0.00  0.00    +0.000 C 
ENDBRANCH  26  27
ENDBRANCH  24  26
ENDBRANCH  14  24
TORSDOF 3
ENDMDL
MODEL 3
REMARK VINA RESULT:      -6.9      3.028      9.421
REMARK  Name = 
REMARK  3 active torsions:
REMARK  status: ('A' for Active; 'I' for Inactive)
REMARK    1  A    between atoms: C_14  and  N_15
REMARK    2  A    between atoms: N_15  and  C_16
REMARK    3  A    between atoms: C_16  and  C_17
REMARK                            x       y       z     vdW  Elec       q    Type
REMARK                         _______ _______ _______ _____ _____    ______ ____
ROOT
ATOM      1  C   UNL     1      -2.081  15.368  23.617  0.00  0.00    +0.000 A 
ATOM      2  C   UNL     1      -3.080  15.347  22.636  0.00  0.00    +0.000 A 
ATOM      3  C   UNL     1      -3.186  14.293  21.730  0.00  0.00    +0.000 A 
ATOM      4  C   UNL     1      -2.243  13.267  21.853  0.00  0.00    +0.000 A 
ATOM      5  N   UNL     1      -2.046  12.113  21.147  0.00  0.00    +0.000 N 
ATOM      6  C   UNL     1      -1.000  11.419  21.708  0.00  0.00    +0.000 A 
ATOM      7  N   UNL     1      -0.644  10.195  21.242  0.00  0.00    +0.000 N 
ATOM      8  C   UNL     1      -0.874   9.743  19.877  0.00  0.00    +0.000 C 
ATOM      9  C   UNL     1       0.281  10.094  18.947  0.00  0.00    +0.000 C 
ATOM     10  C   UNL     1       1.667   9.568  19.324  0.00  0.00    +0.000 C 
ATOM     11  N   UNL     1       1.638   8.521  20.336  0.00  0.00    +0.000 N 
ATOM     12  C   UNL     1       1.951   7.203  20.068  0.00  0.00    +0.000 A 
ATOM     13  C   UNL     1       2.853   6.874  19.069  0.00  0.00    +0.000 A 
ATOM     14  C   UNL     1       3.075   5.546  18.763  0.00  0.00    +0.000 A 
ATOM     15  N   UNL     1       2.451   4.569  19.426  0.00  0.00    +0.000 NA
ATOM     16  C   UNL     1       1.630   4.967  20.414  0.00  0.00    +0.000 A 
ATOM     17  N   UNL     1       1.355   6.232  20.777  0.00  0.00    +0.000 NA
ATOM     18  C   UNL     1       1.489   8.949  21.738  0.00  0.00    +0.000 C 
ATOM     19  C   UNL     1       0.039   9.245  22.141  0.00  0.00    +0.000 C 
ATOM     20  N   UNL     1      -0.509  12.082  22.733  0.00  0.00    +0.000 NA
ATOM     21  C   UNL     1      -1.257  13.238  22.823  0.00  0.00    +0.000 A 
ATOM     22  C   UNL     1      -1.157  14.312  23.724  0.00  0.00    +0.000 A 
ATOM     23  H   UNL     1      -2.622  11.789  20.394  0.00  0.00    +0.000 HD
ENDROOT
BRANCH  14  24
ATOM     24  N   UNL     1       3.912   5.295  17.668  0.00  0.00    +0.000 N 
ATOM     25  H   UNL     1       4.056   6.125  17.103  0.00  0.00    +0.000 HD
BRANCH  24  26
ATOM     26  C   UNL     1       5.103   4.506  17.898  0.00  0.00    +0.000 C 
BRANCH  26  27
ATOM     27  C   UNL     1       6.153   5.404  18.494  0.00  0.00    +0.000 C 
ATOM     28  C   UNL     1       7.618   5.191  18.198  0.00  0.00    +0.000 C 
ATOM     29  C   UNL     1       6.903   6.381  17.624  0.00  0.00    +0.000 C 
ENDBRANCH  26  27
ENDBRANCH  24  26
ENDBRANCH  14  24
TORSDOF 3
ENDMDL
MODEL 4
REMARK VINA RESULT:      -6.7      2.943      9.494
REMARK  Name = 
REMARK  3 active torsions:
REMARK  status: ('A' for Active; 'I' for Inactive)
REMARK    1  A    between atoms: C_14  and  N_15
REMARK    2  A    between atoms: N_15  and  C_16
REMARK    3  A    between atoms: C_16  and  C_17
REMARK                            x       y       z     vdW  Elec       q    Type
REMARK                         _______ _______ _______ _____ _____    ______ ____
ROOT
ATOM      1  C   UNL     1      -2.074  15.154  23.454  0.00  0.00    +0.000 A 
ATOM      2  C   UNL     1      -3.081  15.140  22.481  0.00  0.00    +0.000 A 
ATOM      3  C   UNL     1      -3.172  14.111  21.545  0.00  0.00    +0.000 A 
ATOM      4  C   UNL     1      -2.205  13.104  21.629  0.00  0.00    +0.000 A 
ATOM      5  N   UNL     1      -1.989  11.976  20.886  0.00  0.00    +0.000 N 
ATOM      6  C   UNL     1      -0.923  11.289  21.418  0.00  0.00    +0.000 A 
ATOM      7  N   UNL     1      -0.544  10.088  20.912  0.00  0.00    +0.000 N 
ATOM      8  C   UNL     1      -0.777   9.672  19.535  0.00  0.00    +0.000 C 
ATOM      9  C   UNL     1       0.362  10.076  18.607  0.00  0.00    +0.000 C 
ATOM     10  C   UNL     1       1.762   9.570  18.957  0.00  0.00    +0.000 C 
ATOM     11  N   UNL     1       1.765   8.492  19.936  0.00  0.00    +0.000 N 
ATOM     12  C   UNL     1       2.105   7.191  19.626  0.00  0.00    +0.000 A 
ATOM     13  C   UNL     1       3.005   6.912  18.611  0.00  0.00    +0.000 A 
ATOM     14  C   UNL     1       3.253   5.599  18.263  0.00  0.00    +0.000 A 
ATOM     15  N   UNL     1       2.656   4.588  18.901  0.00  0.00    +0.000 NA
ATOM     16  C   UNL     1       1.836   4.938  19.907  0.00  0.00    +0.000 A 
ATOM     17  N   UNL     1       1.536   6.185  20.311  0.00  0.00    +0.000 NA
ATOM     18  C   UNL     1       1.620   8.875  21.352  0.00  0.00    +0.000 C 
ATOM     19  C   UNL     1       0.167   9.126  21.776  0.00  0.00    +0.000 C 
ATOM     20  N   UNL     1      -0.437  11.931  22.458  0.00  0.00    +0.000 NA
ATOM     21  C   UNL     1      -1.211  13.068  22.589  0.00  0.00    +0.000 A 
ATOM     22  C   UNL     1      -1.126  14.115  23.522  0.00  0.00    +0.000 A 
ATOM     23  H   UNL     1      -2.564  11.662  20.129  0.00  0.00    +0.000 HD
ENDROOT
BRANCH  14  24
ATOM     24  N   UNL     1       4.086   5.400  17.154  0.00  0.00    +0.000 N 
ATOM     25  H   UNL     1       4.854   6.062  17.132  0.00  0.00    +0.000 HD
BRANCH  24  26
ATOM     26  C   UNL     1       4.452   4.039  16.822  0.00  0.00    +0.000 C 
BRANCH  26  27
ATOM     27  C   UNL     1       5.783   4.070  16.122  0.00  0.00    +0.000 C 
ATOM     28  C   UNL     1       5.873   3.960  14.619  0.00  0.00    +0.000 C 
ATOM     29  C   UNL     1       6.181   5.266  15.294  0.00  0.00    +0.000 C 
ENDBRANCH  26  27
ENDBRANCH  24  26
ENDBRANCH  14  24
TORSDOF 3
ENDMDL
MODEL 5
REMARK VINA RESULT:      -6.6      1.799      9.496
REMARK  Name = 
REMARK  3 active torsions:
REMARK  status: ('A' for Active; 'I' for Inactive)
REMARK    1  A    between atoms: C_14  and  N_15
REMARK    2  A    between atoms: N_15  and  C_16
REMARK    3  A    between atoms: C_16  and  C_17
REMARK                            x       y       z     vdW  Elec       q    Type
REMARK                         _______ _______ _______ _____ _____    ______ ____
ROOT
ATOM      1  C   UNL     1       0.370  15.389  21.206  0.00  0.00    +0.000 A 
ATOM      2  C   UNL     1      -0.332  15.494  19.998  0.00  0.00    +0.000 A 
ATOM      3  C   UNL     1      -0.567  14.378  19.197  0.00  0.00    +0.000 A 
ATOM      4  C   UNL     1      -0.063  13.158  19.661  0.00  0.00    +0.000 A 
ATOM      5  N   UNL     1      -0.099  11.894  19.141  0.00  0.00    +0.000 N 
ATOM      6  C   UNL     1       0.508  11.031  20.024  0.00  0.00    +0.000 A 
ATOM      7  N   UNL     1       0.542   9.696  19.783  0.00  0.00    +0.000 N 
ATOM      8  C   UNL     1       0.492   9.105  18.453  0.00  0.00    +0.000 C 
ATOM      9  C   UNL     1       1.878   8.939  17.840  0.00  0.00    +0.000 C 
ATOM     10  C   UNL     1       2.893   8.104  18.622  0.00  0.00    +0.000 C 
ATOM     11  N   UNL     1       2.295   7.299  19.679  0.00  0.00    +0.000 N 
ATOM     12  C   UNL     1       2.215   5.922  19.625  0.00  0.00    +0.000 A 
ATOM     13  C   UNL     1       3.162   5.179  18.940  0.00  0.00    +0.000 A 
ATOM     14  C   UNL     1       3.002   3.812  18.826  0.00  0.00    +0.000 A 
ATOM     15  N   UNL     1       1.960   3.188  19.383  0.00  0.00    +0.000 NA
ATOM     16  C   UNL     1       1.113   3.970  20.073  0.00  0.00    +0.000 A 
ATOM     17  N   UNL     1       1.190   5.303  20.233  0.00  0.00    +0.000 NA
ATOM     18  C   UNL     1       1.981   7.985  20.944  0.00  0.00    +0.000 C 
ATOM     19  C   UNL     1       0.655   8.756  20.914  0.00  0.00    +0.000 C 
ATOM     20  N   UNL     1       0.943  11.686  21.078  0.00  0.00    +0.000 NA
ATOM     21  C   UNL     1       0.612  13.009  20.859  0.00  0.00    +0.000 A 
ATOM     22  C   UNL     1       0.849  14.144  21.653  0.00  0.00    +0.000 A 
ATOM     23  H   UNL     1      -0.562  11.629  18.293  0.00  0.00    +0.000 HD
ENDROOT
BRANCH  14  24
ATOM     24  N   UNL     1       3.937   3.145  18.024  0.00  0.00    +0.000 N 
ATOM     25  H   UNL     1       3.940   2.145  18.196  0.00  0.00    +0.000 HD
BRANCH  24  26
ATOM     26  C   UNL     1       4.015   3.518  16.628  0.00  0.00    +0.000 C 
BRANCH  26  27
ATOM     27  C   UNL     1       5.434   3.917  16.328  0.00  0.00    +0.000 C 
ATOM     28  C   UNL     1       5.906   4.096  14.905  0.00  0.00    +0.000 C 
ATOM     29  C   UNL     1       5.741   5.295  15.796  0.00  0.00    +0.000 C 
ENDBRANCH  26  27
ENDBRANCH  24  26
ENDBRANCH  14  24
TORSDOF 3
ENDMDL
MODEL 6
REMARK VINA RESULT:      -6.5      3.117      3.838
REMARK  Name = 
REMARK  3 active torsions:
REMARK  status: ('A' for Active; 'I' for Inactive)
REMARK    1  A    between atoms: C_14  and  N_15
REMARK    2  A    between atoms: N_15  and  C_16
REMARK    3  A    between atoms: C_16  and  C_17
REMARK                            x       y       z     vdW  Elec       q    Type
REMARK                         _______ _______ _______ _____ _____    ______ ____
ROOT
ATOM      1  C   UNL     1       3.608   3.921  19.197  0.00  0.00    +0.000 A 
ATOM      2  C   UNL     1       4.139   4.449  18.014  0.00  0.00    +0.000 A 
ATOM      3  C   UNL     1       3.880   5.762  17.625  0.00  0.00    +0.000 A 
ATOM      4  C   UNL     1       3.062   6.516  18.474  0.00  0.00    +0.000 A 
ATOM      5  N   UNL     1       2.604   7.802  18.402  0.00  0.00    +0.000 N 
ATOM      6  C   UNL     1       1.865   8.075  19.529  0.00  0.00    +0.000 A 
ATOM      7  N   UNL     1       1.354   9.314  19.745  0.00  0.00    +0.000 N 
ATOM      8  C   UNL     1       1.028  10.259  18.686  0.00  0.00    +0.000 C 
ATOM      9  C   UNL     1      -0.401  10.094  18.181  0.00  0.00    +0.000 C 
ATOM     10  C   UNL     1      -1.525  10.227  19.210  0.00  0.00    +0.000 C 
ATOM     11  N   UNL     1      -1.098  10.830  20.465  0.00  0.00    +0.000 N 
ATOM     12  C   UNL     1      -1.491  12.090  20.870  0.00  0.00    +0.000 A 
ATOM     13  C   UNL     1      -2.713  12.614  20.483  0.00  0.00    +0.000 A 
ATOM     14  C   UNL     1      -3.037  13.912  20.827  0.00  0.00    +0.000 A 
ATOM     15  N   UNL     1      -2.201  14.667  21.545  0.00  0.00    +0.000 NA
ATOM     16  C   UNL     1      -1.057  14.071  21.925  0.00  0.00    +0.000 A 
ATOM     17  N   UNL     1      -0.662  12.819  21.635  0.00  0.00    +0.000 NA
ATOM     18  C   UNL     1      -0.409   9.952  21.428  0.00  0.00    +0.000 C 
ATOM     19  C   UNL     1       1.082   9.758  21.125  0.00  0.00    +0.000 C 
ATOM     20  N   UNL     1       1.817   7.020  20.312  0.00  0.00    +0.000 NA
ATOM     21  C   UNL     1       2.540   6.039  19.662  0.00  0.00    +0.000 A 
ATOM     22  C   UNL     1       2.802   4.711  20.038  0.00  0.00    +0.000 A 
ATOM     23  H   UNL     1       2.836   8.461  17.684  0.00  0.00    +0.000 HD
ENDROOT
BRANCH  14  24
ATOM     24  N   UNL     1      -4.238  14.409  20.305  0.00  0.00    +0.000 N 
ATOM     25  H   UNL     1      -4.080  15.053  19.537  0.00  0.00    +0.000 HD
BRANCH  24  26
ATOM     26  C   UNL     1      -5.320  13.471  20.094  0.00  0.00    +0.000 C 
BRANCH  26  27
ATOM     27  C   UNL     1      -6.354  13.700  21.161  0.00  0.00    +0.000 C 
ATOM     28  C   UNL     1      -7.824  13.513  20.872  0.00  0.00    +0.000 C 
ATOM     29  C   UNL     1      -7.105  12.536  21.757  0.00  0.00    +0.000 C 
ENDBRANCH  26  27
ENDBRANCH  24  26
ENDBRANCH  14  24
TORSDOF 3
ENDMDL
MODEL 7
REMARK VINA RESULT:      -6.5      1.196      1.694
REMARK  Name = 
REMARK  3 active torsions:
REMARK  status: ('A' for Active; 'I' for Inactive)
REMARK    1  A    between atoms: C_14  and  N_15
REMARK    2  A    between atoms: N_15  and  C_16
REMARK    3  A    between atoms: C_16  and  C_17
REMARK                            x       y       z     vdW  Elec       q    Type
REMARK                         _______ _______ _______ _____ _____    ______ ____
ROOT
ATOM      1  C   UNL     1       2.131   2.052  18.961  0.00  0.00    +0.000 A 
ATOM      2  C   UNL     1       3.020   2.305  17.908  0.00  0.00    +0.000 A 
ATOM      3  C   UNL     1       3.364   3.606  17.546  0.00  0.00    +0.000 A 
ATOM      4  C   UNL     1       2.774   4.637  18.284  0.00  0.00    +0.000 A 
ATOM      5  N   UNL     1       2.873   5.998  18.200  0.00  0.00    +0.000 N 
ATOM      6  C   UNL     1       2.118   6.563  19.202  0.00  0.00    +0.000 A 
ATOM      7  N   UNL     1       2.103   7.907  19.391  0.00  0.00    +0.000 N 
ATOM      8  C   UNL     1       2.358   8.883  18.339  0.00  0.00    +0.000 C 
ATOM      9  C   UNL     1       1.087   9.282  17.598  0.00  0.00    +0.000 C 
ATOM     10  C   UNL     1      -0.054   9.867  18.432  0.00  0.00    +0.000 C 
ATOM     11  N   UNL     1       0.353  10.279  19.768  0.00  0.00    +0.000 N 
ATOM     12  C   UNL     1       0.420  11.600  20.164  0.00  0.00    +0.000 A 
ATOM     13  C   UNL     1      -0.415  12.554  19.606  0.00  0.00    +0.000 A 
ATOM     14  C   UNL     1      -0.260  13.881  19.955  0.00  0.00    +0.000 A 
ATOM     15  N   UNL     1       0.669  14.262  20.836  0.00  0.00    +0.000 NA
ATOM     16  C   UNL     1       1.405  13.272  21.371  0.00  0.00    +0.000 A 
ATOM     17  N   UNL     1       1.324  11.960  21.090  0.00  0.00    +0.000 NA
ATOM     18  C   UNL     1       0.469   9.221  20.787  0.00  0.00    +0.000 C 
ATOM     19  C   UNL     1       1.795   8.450  20.727  0.00  0.00    +0.000 C 
ATOM     20  N   UNL     1       1.529   5.628  19.914  0.00  0.00    +0.000 NA
ATOM     21  C   UNL     1       1.912   4.429  19.345  0.00  0.00    +0.000 A 
ATOM     22  C   UNL     1       1.566   3.113  19.695  0.00  0.00    +0.000 A 
ATOM     23  H   UNL     1       3.463   6.498  17.563  0.00  0.00    +0.000 HD
ENDROOT
BRANCH  14  24
ATOM     24  N   UNL     1      -1.063  14.799  19.266  0.00  0.00    +0.000 N 
ATOM     25  H   UNL     1      -1.890  14.361  18.873  0.00  0.00    +0.000 HD
BRANCH  24  26
ATOM     26  C   UNL     1      -1.298  16.086  19.885  0.00  0.00    +0.000 C 
BRANCH  26  27
ATOM     27  C   UNL     1      -2.562  15.993  20.695  0.00  0.00    +0.000 C 
ATOM     28  C   UNL     1      -2.570  16.337  22.165  0.00  0.00    +0.000 C 
ATOM     29  C   UNL     1      -3.250  17.244  21.180  0.00  0.00    +0.000 C 
ENDBRANCH  26  27
ENDBRANCH  24  26
ENDBRANCH  14  24
TORSDOF 3
ENDMDL
MODEL 8
REMARK VINA RESULT:      -6.4      3.194      9.765
REMARK  Name = 
REMARK  3 active torsions:
REMARK  status: ('A' for Active; 'I' for Inactive)
REMARK    1  A    between atoms: C_14  and  N_15
REMARK    2  A    between atoms: N_15  and  C_16
REMARK    3  A    between atoms: C_16  and  C_17
REMARK                            x       y       z     vdW  Elec       q    Type
REMARK                         _______ _______ _______ _____ _____    ______ ____
ROOT
ATOM      1  C   UNL     1      -6.164  15.108  22.667  0.00  0.00    +0.000 A 
ATOM      2  C   UNL     1      -5.252  15.790  23.482  0.00  0.00    +0.000 A 
ATOM      3  C   UNL     1      -3.894  15.476  23.471  0.00  0.00    +0.000 A 
ATOM      4  C   UNL     1      -3.497  14.448  22.610  0.00  0.00    +0.000 A 
ATOM      5  N   UNL     1      -2.277  13.884  22.356  0.00  0.00    +0.000 N 
ATOM      6  C   UNL     1      -2.423  12.930  21.377  0.00  0.00    +0.000 A 
ATOM      7  N   UNL     1      -1.346  12.268  20.882  0.00  0.00    +0.000 N 
ATOM      8  C   UNL     1      -0.112  12.047  21.623  0.00  0.00    +0.000 C 
ATOM      9  C   UNL     1      -0.145  10.757  22.434  0.00  0.00    +0.000 C 
ATOM     10  C   UNL     1      -0.403   9.457  21.670  0.00  0.00    +0.000 C 
ATOM     11  N   UNL     1      -0.243   9.587  20.228  0.00  0.00    +0.000 N 
ATOM     12  C   UNL     1       0.794   9.004  19.528  0.00  0.00    +0.000 A 
ATOM     13  C   UNL     1       1.377   7.827  19.966  0.00  0.00    +0.000 A 
ATOM     14  C   UNL     1       2.472   7.319  19.296  0.00  0.00    +0.000 A 
ATOM     15  N   UNL     1       2.970   7.932  18.218  0.00  0.00    +0.000 NA
ATOM     16  C   UNL     1       2.319   9.040  17.826  0.00  0.00    +0.000 A 
ATOM     17  N   UNL     1       1.251   9.604  18.417  0.00  0.00    +0.000 NA
ATOM     18  C   UNL     1      -1.369  10.174  19.481  0.00  0.00    +0.000 C 
ATOM     19  C   UNL     1      -1.401  11.708  19.518  0.00  0.00    +0.000 C 
ATOM     20  N   UNL     1      -3.681  12.845  21.003  0.00  0.00    +0.000 NA
ATOM     21  C   UNL     1      -4.362  13.768  21.772  0.00  0.00    +0.000 A 
ATOM     22  C   UNL     1      -5.730  14.088  21.799  0.00  0.00    +0.000 A 
ATOM     23  H   UNL     1      -1.409  14.176  22.760  0.00  0.00    +0.000 HD
ENDROOT
BRANCH  14  24
ATOM     24  N   UNL     1       3.075   6.189  19.864  0.00  0.00    +0.000 N 
ATOM     25  H   UNL     1       2.808   6.064  20.834  0.00  0.00    +0.000 HD
BRANCH  24  26
ATOM     26  C   UNL     1       3.097   4.972  19.081  0.00  0.00    +0.000 C 
BRANCH  26  27
ATOM     27  C   UNL     1       1.716   4.376  19.103  0.00  0.00    +0.000 C 
ATOM     28  C   UNL     1       1.504   2.916  19.425  0.00  0.00    +0.000 C 
ATOM     29  C   UNL     1       1.083   3.969  20.410  0.00  0.00    +0.000 C 
ENDBRANCH  26  27
ENDBRANCH  24  26
ENDBRANCH  14  24
TORSDOF 3
ENDMDL
MODEL 9
REMARK VINA RESULT:      -6.4      2.837      3.562
REMARK  Name = 
REMARK  3 active torsions:
REMARK  status: ('A' for Active; 'I' for Inactive)
REMARK    1  A    between atoms: C_14  and  N_15
REMARK    2  A    between atoms: N_15  and  C_16
REMARK    3  A    between atoms: C_16  and  C_17
REMARK                            x       y       z     vdW  Elec       q    Type
REMARK                         _______ _______ _______ _____ _____    ______ ____
ROOT
ATOM      1  C   UNL     1       3.560   3.890  19.380  0.00  0.00    +0.000 A 
ATOM      2  C   UNL     1       4.063   4.350  18.157  0.00  0.00    +0.000 A 
ATOM      3  C   UNL     1       3.797   5.640  17.702  0.00  0.00    +0.000 A 
ATOM      4  C   UNL     1       3.002   6.442  18.528  0.00  0.00    +0.000 A 
ATOM      5  N   UNL     1       2.545   7.724  18.396  0.00  0.00    +0.000 N 
ATOM      6  C   UNL     1       1.834   8.062  19.524  0.00  0.00    +0.000 A 
ATOM      7  N   UNL     1       1.332   9.313  19.683  0.00  0.00    +0.000 N 
ATOM      8  C   UNL     1       0.981  10.199  18.581  0.00  0.00    +0.000 C 
ATOM      9  C   UNL     1      -0.460  10.012  18.122  0.00  0.00    +0.000 C 
ATOM     10  C   UNL     1      -1.558  10.206  19.169  0.00  0.00    +0.000 C 
ATOM     11  N   UNL     1      -1.099  10.875  20.378  0.00  0.00    +0.000 N 
ATOM     12  C   UNL     1      -1.479  12.157  20.722  0.00  0.00    +0.000 A 
ATOM     13  C   UNL     1      -2.709  12.663  20.336  0.00  0.00    +0.000 A 
ATOM     14  C   UNL     1      -3.021  13.979  20.616  0.00  0.00    +0.000 A 
ATOM     15  N   UNL     1      -2.166  14.770  21.270  0.00  0.00    +0.000 NA
ATOM     16  C   UNL     1      -1.015  14.192  21.654  0.00  0.00    +0.000 A 
ATOM     17  N   UNL     1      -0.630  12.924  21.425  0.00  0.00    +0.000 NA
ATOM     18  C   UNL     1      -0.389  10.049  21.370  0.00  0.00    +0.000 C 
ATOM     19  C   UNL     1       1.095   9.834  21.043  0.00  0.00    +0.000 C 
ATOM     20  N   UNL     1       1.803   7.052  20.365  0.00  0.00    +0.000 NA
ATOM     21  C   UNL     1       2.507   6.035  19.753  0.00  0.00    +0.000 A 
ATOM     22  C   UNL     1       2.776   4.728  20.196  0.00  0.00    +0.000 A 
ATOM     23  H   UNL     1       2.761   8.341  17.637  0.00  0.00    +0.000 HD
ENDROOT
BRANCH  14  24
ATOM     24  N   UNL     1      -4.234  14.451  20.096  0.00  0.00    +0.000 N 
ATOM     25  H   UNL     1      -4.113  14.888  19.189  0.00  0.00    +0.000 HD
BRANCH  24  26
ATOM     26  C   UNL     1      -5.392  13.589  20.202  0.00  0.00    +0.000 C 
BRANCH  26  27
ATOM     27  C   UNL     1      -5.965  13.403  18.824  0.00  0.00    +0.000 C 
ATOM     28  C   UNL     1      -5.638  12.176  18.006  0.00  0.00    +0.000 C 
ATOM     29  C   UNL     1      -7.018  12.352  18.573  0.00  0.00    +0.000 C 
ENDBRANCH  26  27
ENDBRANCH  24  26
ENDBRANCH  14  24
TORSDOF 3
ENDMDL
