MODEL 1
REMARK VINA RESULT:      -7.1      0.000      0.000
REMARK  Name = 
REMARK  14 active torsions:
REMARK  status: ('A' for Active; 'I' for Inactive)
REMARK    1  A    between atoms: C_1  and  O_2
REMARK    2  A    between atoms: O_2  and  C_3
REMARK    3  A    between atoms: C_5  and  C_6
REMARK    4  A    between atoms: C_7  and  C_8
REMARK    5  A    between atoms: C_11  and  O_12
REMARK    6  A    between atoms: O_12  and  C_13
REMARK    7  A    between atoms: C_13  and  C_14
REMARK    8  A    between atoms: C_14  and  C_15
REMARK    9  A    between atoms: C_15  and  C_16
REMARK   10  A    between atoms: C_16  and  C_17
REMARK   11  A    between atoms: C_17  and  C_18
REMARK   12  A    between atoms: C_18  and  N_19
REMARK   13  A    between atoms: C_28  and  O_29
REMARK   14  A    between atoms: O_29  and  C_30
REMARK                            x       y       z     vdW  Elec       q    Type
REMARK                         _______ _______ _______ _____ _____    ______ ____
ROOT
ATOM      1  C   UNL     1       7.685   7.219  18.136  0.00  0.00    +0.000 A 
ATOM      2  C   UNL     1       7.663   6.036  18.865  0.00  0.00    +0.000 A 
ATOM      3  C   UNL     1       6.814   5.001  18.497  0.00  0.00    +0.000 A 
ATOM      4  C   UNL     1       5.962   5.136  17.394  0.00  0.00    +0.000 A 
ATOM      5  C   UNL     1       5.967   6.323  16.670  0.00  0.00    +0.000 A 
ATOM      6  C   UNL     1       6.818   7.366  17.042  0.00  0.00    +0.000 A 
ENDROOT
BRANCH   1   8
ATOM      7  C   UNL     1       8.400   9.575  18.367  0.00  0.00    +0.000 C 
ATOM      8  C   UNL     1       8.595   8.268  18.595  0.00  0.00    +0.000 C 
BRANCH   7  11
ATOM      9  C   UNL     1      10.981  12.290  18.239  0.00  0.00    +0.000 A 
ATOM     10  C   UNL     1      10.143  11.240  17.872  0.00  0.00    +0.000 A 
ATOM     11  C   UNL     1       9.321  10.617  18.821  0.00  0.00    +0.000 A 
ATOM     12  C   UNL     1       9.356  11.071  20.142  0.00  0.00    +0.000 A 
ATOM     13  C   UNL     1      10.190  12.121  20.522  0.00  0.00    +0.000 A 
ATOM     14  C   UNL     1      11.003  12.730  19.564  0.00  0.00    +0.000 A 
BRANCH   9  16
ATOM     15  C   UNL     1      11.414  14.151  16.826  0.00  0.00    +0.000 C 
ATOM     16  O   UNL     1      11.717  12.815  17.210  0.00  0.00    +0.000 OA
ENDBRANCH   9  16
BRANCH  13  17
ATOM     17  O   UNL     1      10.103  12.467  21.843  0.00  0.00    +0.000 OA
ATOM     18  C   UNL     1       8.902  13.101  22.264  0.00  0.00    +0.000 C 
ENDBRANCH  13  17
ENDBRANCH   7  11
ENDBRANCH   1   8
BRANCH   4  19
ATOM     19  O   UNL     1       5.089   4.166  16.958  0.00  0.00    +0.000 OA
BRANCH  19  20
ATOM     20  C   UNL     1       3.729   4.514  17.173  0.00  0.00    +0.000 C 
BRANCH  20  21
ATOM     21  C   UNL     1       3.323   4.338  18.625  0.00  0.00    +0.000 C 
BRANCH  21  22
ATOM     22  C   UNL     1       2.929   5.717  19.143  0.00  0.00    +0.000 C 
BRANCH  22  23
ATOM     23  C   UNL     1       2.245   6.568  18.084  0.00  0.00    +0.000 C 
BRANCH  23  24
ATOM     24  C   UNL     1       2.694   8.034  18.149  0.00  0.00    +0.000 C 
BRANCH  24  25
ATOM     25  C   UNL     1       1.506   8.999  18.026  0.00  0.00    +0.000 C 
BRANCH  25  26
ATOM     26  N   UNL     1       1.577  10.201  18.869  0.00  0.00    +0.000 NA
ATOM     27  C   UNL     1       1.108   9.879  20.242  0.00  0.00    +0.000 C 
ATOM     28  C   UNL     1      -0.415   9.654  20.340  0.00  0.00    +0.000 C 
ATOM     29  O   UNL     1      -1.154  10.759  19.803  0.00  0.00    +0.000 OA
ATOM     30  C   UNL     1      -0.754  11.048  18.457  0.00  0.00    +0.000 C 
ATOM     31  C   UNL     1       0.754  11.323  18.377  0.00  0.00    +0.000 C 
ENDBRANCH  25  26
ENDBRANCH  24  25
ENDBRANCH  23  24
ENDBRANCH  22  23
ENDBRANCH  21  22
ENDBRANCH  20  21
ENDBRANCH  19  20
ENDBRANCH   4  19
TORSDOF 12
ENDMDL
MODEL 2
REMARK VINA RESULT:      -6.9      1.244      2.797
REMARK  Name = 
REMARK  14 active torsions:
REMARK  status: ('A' for Active; 'I' for Inactive)
REMARK    1  A    between atoms: C_1  and  O_2
REMARK    2  A    between atoms: O_2  and  C_3
REMARK    3  A    between atoms: C_5  and  C_6
REMARK    4  A    between atoms: C_7  and  C_8
REMARK    5  A    between atoms: C_11  and  O_12
REMARK    6  A    between atoms: O_12  and  C_13
REMARK    7  A    between atoms: C_13  and  C_14
REMARK    8  A    between atoms: C_14  and  C_15
REMARK    9  A    between atoms: C_15  and  C_16
REMARK   10  A    between atoms: C_16  and  C_17
REMARK   11  A    between atoms: C_17  and  C_18
REMARK   12  A    between atoms: C_18  and  N_19
REMARK   13  A    between atoms: C_28  and  O_29
REMARK   14  A    between atoms: O_29  and  C_30
REMARK                            x       y       z     vdW  Elec       q    Type
REMARK                         _______ _______ _______ _____ _____    ______ ____
ROOT
ATOM      1  C   UNL     1       7.727   7.992  17.849  0.00  0.00    +0.000 A 
ATOM      2  C   UNL     1       8.181   6.882  18.552  0.00  0.00    +0.000 A 
ATOM      3  C   UNL     1       7.503   5.673  18.467  0.00  0.00    +0.000 A 
ATOM      4  C   UNL     1       6.350   5.556  17.682  0.00  0.00    +0.000 A 
ATOM      5  C   UNL     1       5.881   6.667  16.990  0.00  0.00    +0.000 A 
ATOM      6  C   UNL     1       6.560   7.884  17.077  0.00  0.00    +0.000 A 
ENDROOT
BRANCH   1   8
ATOM      7  C   UNL     1       8.849   9.742  19.188  0.00  0.00    +0.000 C 
ATOM      8  C   UNL     1       8.485   9.233  18.002  0.00  0.00    +0.000 C 
BRANCH   7  11
ATOM      9  C   UNL     1      10.087  12.952  20.676  0.00  0.00    +0.000 A 
ATOM     10  C   UNL     1       9.347  11.794  20.452  0.00  0.00    +0.000 A 
ATOM     11  C   UNL     1       9.598  10.991  19.332  0.00  0.00    +0.000 A 
ATOM     12  C   UNL     1      10.609  11.372  18.444  0.00  0.00    +0.000 A 
ATOM     13  C   UNL     1      11.357  12.528  18.657  0.00  0.00    +0.000 A 
ATOM     14  C   UNL     1      11.092  13.317  19.777  0.00  0.00    +0.000 A 
BRANCH   9  16
ATOM     15  C   UNL     1       8.987  12.918  22.781  0.00  0.00    +0.000 C 
ATOM     16  O   UNL     1       9.747  13.633  21.814  0.00  0.00    +0.000 OA
ENDBRANCH   9  16
BRANCH  13  17
ATOM     17  O   UNL     1      12.321  12.763  17.715  0.00  0.00    +0.000 OA
ATOM     18  C   UNL     1      12.079  13.823  16.798  0.00  0.00    +0.000 C 
ENDBRANCH  13  17
ENDBRANCH   7  11
ENDBRANCH   1   8
BRANCH   4  19
ATOM     19  O   UNL     1       5.616   4.401  17.540  0.00  0.00    +0.000 OA
BRANCH  19  20
ATOM     20  C   UNL     1       4.426   4.407  18.317  0.00  0.00    +0.000 C 
BRANCH  20  21
ATOM     21  C   UNL     1       3.188   4.237  17.455  0.00  0.00    +0.000 C 
BRANCH  21  22
ATOM     22  C   UNL     1       2.048   4.945  18.178  0.00  0.00    +0.000 C 
BRANCH  22  23
ATOM     23  C   UNL     1       2.433   6.334  18.664  0.00  0.00    +0.000 C 
BRANCH  23  24
ATOM     24  C   UNL     1       2.016   6.567  20.122  0.00  0.00    +0.000 C 
BRANCH  24  25
ATOM     25  C   UNL     1       1.832   8.061  20.429  0.00  0.00    +0.000 C 
BRANCH  25  26
ATOM     26  N   UNL     1       0.448   8.552  20.371  0.00  0.00    +0.000 NA
ATOM     27  C   UNL     1       0.438   9.973  19.933  0.00  0.00    +0.000 C 
ATOM     28  C   UNL     1       0.956  10.955  21.004  0.00  0.00    +0.000 C 
ATOM     29  O   UNL     1       0.257  10.808  22.247  0.00  0.00    +0.000 OA
ATOM     30  C   UNL     1       0.305   9.453  22.714  0.00  0.00    +0.000 C 
ATOM     31  C   UNL     1      -0.262   8.487  21.664  0.00  0.00    +0.000 C 
ENDBRANCH  25  26
ENDBRANCH  24  25
ENDBRANCH  23  24
ENDBRANCH  22  23
ENDBRANCH  21  22
ENDBRANCH  20  21
ENDBRANCH  19  20
ENDBRANCH   4  19
TORSDOF 12
ENDMDL
MODEL 3
REMARK VINA RESULT:      -6.8      0.742      1.144
REMARK  Name = 
REMARK  14 active torsions:
REMARK  status: ('A' for Active; 'I' for Inactive)
REMARK    1  A    between atoms: C_1  and  O_2
REMARK    2  A    between atoms: O_2  and  C_3
REMARK    3  A    between atoms: C_5  and  C_6
REMARK    4  A    between atoms: C_7  and  C_8
REMARK    5  A    between atoms: C_11  and  O_12
REMARK    6  A    between atoms: O_12  and  C_13
REMARK    7  A    between atoms: C_13  and  C_14
REMARK    8  A    between atoms: C_14  and  C_15
REMARK    9  A    between atoms: C_15  and  C_16
REMARK   10  A    between atoms: C_16  and  C_17
REMARK   11  A    between atoms: C_17  and  C_18
REMARK   12  A    between atoms: C_18  and  N_19
REMARK   13  A    between atoms: C_28  and  O_29
REMARK   14  A    between atoms: O_29  and  C_30
REMARK                            x       y       z     vdW  Elec       q    Type
REMARK                         _______ _______ _______ _____ _____    ______ ____
ROOT
ATOM      1  C   UNL     1       7.775   7.201  18.200  0.00  0.00    +0.000 A 
ATOM      2  C   UNL     1       7.596   6.075  18.996  0.00  0.00    +0.000 A 
ATOM      3  C   UNL     1       6.780   5.036  18.566  0.00  0.00    +0.000 A 
ATOM      4  C   UNL     1       6.121   5.111  17.334  0.00  0.00    +0.000 A 
ATOM      5  C   UNL     1       6.283   6.241  16.541  0.00  0.00    +0.000 A 
ATOM      6  C   UNL     1       7.100   7.288  16.973  0.00  0.00    +0.000 A 
ENDROOT
BRANCH   1   8
ATOM      7  C   UNL     1       8.601   9.530  18.302  0.00  0.00    +0.000 C 
ATOM      8  C   UNL     1       8.636   8.259  18.728  0.00  0.00    +0.000 C 
BRANCH   7  11
ATOM      9  C   UNL     1      11.199  12.231  18.389  0.00  0.00    +0.000 A 
ATOM     10  C   UNL     1      10.398  11.175  17.960  0.00  0.00    +0.000 A 
ATOM     11  C   UNL     1       9.474  10.579  18.827  0.00  0.00    +0.000 A 
ATOM     12  C   UNL     1       9.367  11.067  20.133  0.00  0.00    +0.000 A 
ATOM     13  C   UNL     1      10.161  12.123  20.576  0.00  0.00    +0.000 A 
ATOM     14  C   UNL     1      11.078  12.704  19.698  0.00  0.00    +0.000 A 
BRANCH   9  16
ATOM     15  C   UNL     1      11.466  13.562  16.440  0.00  0.00    +0.000 C 
ATOM     16  O   UNL     1      12.046  12.727  17.434  0.00  0.00    +0.000 OA
ENDBRANCH   9  16
BRANCH  13  17
ATOM     17  O   UNL     1       9.933  12.503  21.870  0.00  0.00    +0.000 OA
ATOM     18  C   UNL     1       9.386  13.799  22.073  0.00  0.00    +0.000 C 
ENDBRANCH  13  17
ENDBRANCH   7  11
ENDBRANCH   1   8
BRANCH   4  19
ATOM     19  O   UNL     1       5.295   4.132  16.830  0.00  0.00    +0.000 OA
BRANCH  19  20
ATOM     20  C   UNL     1       3.938   4.307  17.215  0.00  0.00    +0.000 C 
BRANCH  20  21
ATOM     21  C   UNL     1       3.589   5.771  17.406  0.00  0.00    +0.000 C 
BRANCH  21  22
ATOM     22  C   UNL     1       2.500   5.830  18.471  0.00  0.00    +0.000 C 
BRANCH  22  23
ATOM     23  C   UNL     1       2.259   7.239  18.988  0.00  0.00    +0.000 C 
BRANCH  23  24
ATOM     24  C   UNL     1       2.196   8.265  17.848  0.00  0.00    +0.000 C 
BRANCH  24  25
ATOM     25  C   UNL     1       1.682   9.627  18.336  0.00  0.00    +0.000 C 
BRANCH  25  26
ATOM     26  N   UNL     1       0.574   9.575  19.302  0.00  0.00    +0.000 NA
ATOM     27  C   UNL     1      -0.616  10.265  18.738  0.00  0.00    +0.000 C 
ATOM     28  C   UNL     1      -0.472  11.799  18.679  0.00  0.00    +0.000 C 
ATOM     29  O   UNL     1      -0.128  12.353  19.956  0.00  0.00    +0.000 OA
ATOM     30  C   UNL     1       1.052  11.739  20.490  0.00  0.00    +0.000 C 
ATOM     31  C   UNL     1       0.881  10.217  20.596  0.00  0.00    +0.000 C 
ENDBRANCH  25  26
ENDBRANCH  24  25
ENDBRANCH  23  24
ENDBRANCH  22  23
ENDBRANCH  21  22
ENDBRANCH  20  21
ENDBRANCH  19  20
ENDBRANCH   4  19
TORSDOF 12
ENDMDL
MODEL 4
REMARK VINA RESULT:      -6.7      5.456      9.089
REMARK  Name = 
REMARK  14 active torsions:
REMARK  status: ('A' for Active; 'I' for Inactive)
REMARK    1  A    between atoms: C_1  and  O_2
REMARK    2  A    between atoms: O_2  and  C_3
REMARK    3  A    between atoms: C_5  and  C_6
REMARK    4  A    between atoms: C_7  and  C_8
REMARK    5  A    between atoms: C_11  and  O_12
REMARK    6  A    between atoms: O_12  and  C_13
REMARK    7  A    between atoms: C_13  and  C_14
REMARK    8  A    between atoms: C_14  and  C_15
REMARK    9  A    between atoms: C_15  and  C_16
REMARK   10  A    between atoms: C_16  and  C_17
REMARK   11  A    between atoms: C_17  and  C_18
REMARK   12  A    between atoms: C_18  and  N_19
REMARK   13  A    between atoms: C_28  and  O_29
REMARK   14  A    between atoms: O_29  and  C_30
REMARK                            x       y       z     vdW  Elec       q    Type
REMARK                         _______ _______ _______ _____ _____    ______ ____
ROOT
ATOM      1  C   UNL     1       0.871   9.255  19.920  0.00  0.00    +0.000 A 
ATOM      2  C   UNL     1       1.412   8.120  20.513  0.00  0.00    +0.000 A 
ATOM      3  C   UNL     1       2.177   7.235  19.766  0.00  0.00    +0.000 A 
ATOM      4  C   UNL     1       2.407   7.465  18.404  0.00  0.00    +0.000 A 
ATOM      5  C   UNL     1       1.855   8.590  17.800  0.00  0.00    +0.000 A 
ATOM      6  C   UNL     1       1.083   9.479  18.551  0.00  0.00    +0.000 A 
ENDROOT
BRANCH   1   8
ATOM      7  C   UNL     1       0.339  11.427  20.976  0.00  0.00    +0.000 C 
ATOM      8  C   UNL     1       0.064  10.131  20.769  0.00  0.00    +0.000 C 
BRANCH   7  11
ATOM      9  C   UNL     1      -2.434  12.544  23.237  0.00  0.00    +0.000 A 
ATOM     10  C   UNL     1      -1.668  11.789  22.352  0.00  0.00    +0.000 A 
ATOM     11  C   UNL     1      -0.468  12.293  21.836  0.00  0.00    +0.000 A 
ATOM     12  C   UNL     1      -0.050  13.568  22.228  0.00  0.00    +0.000 A 
ATOM     13  C   UNL     1      -0.806  14.334  23.113  0.00  0.00    +0.000 A 
ATOM     14  C   UNL     1      -2.001  13.816  23.617  0.00  0.00    +0.000 A 
BRANCH   9  16
ATOM     15  C   UNL     1      -4.274  12.554  24.740  0.00  0.00    +0.000 C 
ATOM     16  O   UNL     1      -3.575  11.925  23.673  0.00  0.00    +0.000 OA
ENDBRANCH   9  16
BRANCH  13  17
ATOM     17  O   UNL     1      -0.263  15.552  23.418  0.00  0.00    +0.000 OA
ATOM     18  C   UNL     1       0.413  16.236  22.370  0.00  0.00    +0.000 C 
ENDBRANCH  13  17
ENDBRANCH   7  11
ENDBRANCH   1   8
BRANCH   4  19
ATOM     19  O   UNL     1       3.149   6.644  17.587  0.00  0.00    +0.000 OA
BRANCH  19  20
ATOM     20  C   UNL     1       4.424   7.188  17.275  0.00  0.00    +0.000 C 
BRANCH  20  21
ATOM     21  C   UNL     1       5.067   6.479  16.097  0.00  0.00    +0.000 C 
BRANCH  21  22
ATOM     22  C   UNL     1       5.852   5.303  16.665  0.00  0.00    +0.000 C 
BRANCH  22  23
ATOM     23  C   UNL     1       4.955   4.158  17.110  0.00  0.00    +0.000 C 
BRANCH  23  24
ATOM     24  C   UNL     1       5.240   3.735  18.557  0.00  0.00    +0.000 C 
BRANCH  24  25
ATOM     25  C   UNL     1       4.019   3.949  19.463  0.00  0.00    +0.000 C 
BRANCH  25  26
ATOM     26  N   UNL     1       3.448   2.730  20.055  0.00  0.00    +0.000 NA
ATOM     27  C   UNL     1       2.787   1.922  18.997  0.00  0.00    +0.000 C 
ATOM     28  C   UNL     1       1.468   2.533  18.483  0.00  0.00    +0.000 C 
ATOM     29  O   UNL     1       0.553   2.805  19.552  0.00  0.00    +0.000 OA
ATOM     30  C   UNL     1       1.156   3.633  20.556  0.00  0.00    +0.000 C 
ATOM     31  C   UNL     1       2.439   2.992  21.101  0.00  0.00    +0.000 C 
ENDBRANCH  25  26
ENDBRANCH  24  25
ENDBRANCH  23  24
ENDBRANCH  22  23
ENDBRANCH  21  22
ENDBRANCH  20  21
ENDBRANCH  19  20
ENDBRANCH   4  19
TORSDOF 12
ENDMDL
MODEL 5
REMARK VINA RESULT:      -6.6      1.473      1.993
REMARK  Name = 
REMARK  14 active torsions:
REMARK  status: ('A' for Active; 'I' for Inactive)
REMARK    1  A    between atoms: C_1  and  O_2
REMARK    2  A    between atoms: O_2  and  C_3
REMARK    3  A    between atoms: C_5  and  C_6
REMARK    4  A    between atoms: C_7  and  C_8
REMARK    5  A    between atoms: C_11  and  O_12
REMARK    6  A    between atoms: O_12  and  C_13
REMARK    7  A    between atoms: C_13  and  C_14
REMARK    8  A    between atoms: C_14  and  C_15
REMARK    9  A    between atoms: C_15  and  C_16
REMARK   10  A    between atoms: C_16  and  C_17
REMARK   11  A    between atoms: C_17  and  C_18
REMARK   12  A    between atoms: C_18  and  N_19
REMARK   13  A    between atoms: C_28  and  O_29
REMARK   14  A    between atoms: O_29  and  C_30
REMARK                            x       y       z     vdW  Elec       q    Type
REMARK                         _______ _______ _______ _____ _____    ______ ____
ROOT
ATOM      1  C   UNL     1       7.977   7.356  18.202  0.00  0.00    +0.000 A 
ATOM      2  C   UNL     1       8.083   6.156  18.895  0.00  0.00    +0.000 A 
ATOM      3  C   UNL     1       7.578   4.983  18.348  0.00  0.00    +0.000 A 
ATOM      4  C   UNL     1       6.946   4.994  17.099  0.00  0.00    +0.000 A 
ATOM      5  C   UNL     1       6.821   6.194  16.409  0.00  0.00    +0.000 A 
ATOM      6  C   UNL     1       7.327   7.374  16.959  0.00  0.00    +0.000 A 
ENDROOT
BRANCH   1   8
ATOM      7  C   UNL     1       8.846   9.671  18.192  0.00  0.00    +0.000 C 
ATOM      8  C   UNL     1       8.519   8.550  18.850  0.00  0.00    +0.000 C 
BRANCH   7  11
ATOM      9  C   UNL     1      10.463  13.026  18.614  0.00  0.00    +0.000 A 
ATOM     10  C   UNL     1       9.991  11.844  18.049  0.00  0.00    +0.000 A 
ATOM     11  C   UNL     1       9.398  10.857  18.847  0.00  0.00    +0.000 A 
ATOM     12  C   UNL     1       9.285  11.082  20.222  0.00  0.00    +0.000 A 
ATOM     13  C   UNL     1       9.753  12.260  20.800  0.00  0.00    +0.000 A 
ATOM     14  C   UNL     1      10.342  13.233  19.990  0.00  0.00    +0.000 A 
BRANCH   9  16
ATOM     15  C   UNL     1      12.333  14.347  17.978  0.00  0.00    +0.000 C 
ATOM     16  O   UNL     1      11.005  13.908  17.718  0.00  0.00    +0.000 OA
ENDBRANCH   9  16
BRANCH  13  17
ATOM     17  O   UNL     1       9.559  12.347  22.152  0.00  0.00    +0.000 OA
ATOM     18  C   UNL     1       8.304  11.901  22.651  0.00  0.00    +0.000 C 
ENDBRANCH  13  17
ENDBRANCH   7  11
ENDBRANCH   1   8
BRANCH   4  19
ATOM     19  O   UNL     1       6.417   3.884  16.483  0.00  0.00    +0.000 OA
BRANCH  19  20
ATOM     20  C   UNL     1       5.040   4.037  16.164  0.00  0.00    +0.000 C 
BRANCH  20  21
ATOM     21  C   UNL     1       4.198   4.285  17.402  0.00  0.00    +0.000 C 
BRANCH  21  22
ATOM     22  C   UNL     1       2.920   3.472  17.235  0.00  0.00    +0.000 C 
BRANCH  22  23
ATOM     23  C   UNL     1       1.690   4.198  17.756  0.00  0.00    +0.000 C 
BRANCH  23  24
ATOM     24  C   UNL     1       1.757   4.426  19.272  0.00  0.00    +0.000 C 
BRANCH  24  25
ATOM     25  C   UNL     1       1.269   5.831  19.658  0.00  0.00    +0.000 C 
BRANCH  25  26
ATOM     26  N   UNL     1       2.327   6.826  19.888  0.00  0.00    +0.000 NA
ATOM     27  C   UNL     1       1.831   7.880  20.810  0.00  0.00    +0.000 C 
ATOM     28  C   UNL     1       0.797   8.829  20.170  0.00  0.00    +0.000 C 
ATOM     29  O   UNL     1       1.288   9.414  18.957  0.00  0.00    +0.000 OA
ATOM     30  C   UNL     1       1.718   8.407  18.030  0.00  0.00    +0.000 C 
ATOM     31  C   UNL     1       2.786   7.501  18.657  0.00  0.00    +0.000 C 
ENDBRANCH  25  26
ENDBRANCH  24  25
ENDBRANCH  23  24
ENDBRANCH  22  23
ENDBRANCH  21  22
ENDBRANCH  20  21
ENDBRANCH  19  20
ENDBRANCH   4  19
TORSDOF 12
ENDMDL
MODEL 6
REMARK VINA RESULT:      -6.5      2.368      9.169
REMARK  Name = 
REMARK  14 active torsions:
REMARK  status: ('A' for Active; 'I' for Inactive)
REMARK    1  A    between atoms: C_1  and  O_2
REMARK    2  A    between atoms: O_2  and  C_3
REMARK    3  A    between atoms: C_5  and  C_6
REMARK    4  A    between atoms: C_7  and  C_8
REMARK    5  A    between atoms: C_11  and  O_12
REMARK    6  A    between atoms: O_12  and  C_13
REMARK    7  A    between atoms: C_13  and  C_14
REMARK    8  A    between atoms: C_14  and  C_15
REMARK    9  A    between atoms: C_15  and  C_16
REMARK   10  A    between atoms: C_16  and  C_17
REMARK   11  A    between atoms: C_17  and  C_18
REMARK   12  A    between atoms: C_18  and  N_19
REMARK   13  A    between atoms: C_28  and  O_29
REMARK   14  A    between atoms: O_29  and  C_30
REMARK                            x       y       z     vdW  Elec       q    Type
REMARK                         _______ _______ _______ _____ _____    ______ ____
ROOT
ATOM      1  C   UNL     1       2.153   7.762  18.999  0.00  0.00    +0.000 A 
ATOM      2  C   UNL     1       2.476   6.689  19.822  0.00  0.00    +0.000 A 
ATOM      3  C   UNL     1       3.476   5.798  19.452  0.00  0.00    +0.000 A 
ATOM      4  C   UNL     1       4.164   5.960  18.244  0.00  0.00    +0.000 A 
ATOM      5  C   UNL     1       3.834   7.022  17.409  0.00  0.00    +0.000 A 
ATOM      6  C   UNL     1       2.827   7.917  17.778  0.00  0.00    +0.000 A 
ENDROOT
BRANCH   1   8
ATOM      7  C   UNL     1       0.828   9.848  18.910  0.00  0.00    +0.000 C 
ATOM      8  C   UNL     1       1.080   8.647  19.450  0.00  0.00    +0.000 C 
BRANCH   7  11
ATOM      9  C   UNL     1      -0.967  12.427  20.953  0.00  0.00    +0.000 A 
ATOM     10  C   UNL     1      -0.012  11.514  20.514  0.00  0.00    +0.000 A 
ATOM     11  C   UNL     1      -0.241  10.732  19.374  0.00  0.00    +0.000 A 
ATOM     12  C   UNL     1      -1.445  10.889  18.682  0.00  0.00    +0.000 A 
ATOM     13  C   UNL     1      -2.409  11.799  19.110  0.00  0.00    +0.000 A 
ATOM     14  C   UNL     1      -2.165  12.569  20.249  0.00  0.00    +0.000 A 
BRANCH   9  16
ATOM     15  C   UNL     1      -1.509  13.097  23.167  0.00  0.00    +0.000 C 
ATOM     16  O   UNL     1      -0.606  13.134  22.069  0.00  0.00    +0.000 OA
ENDBRANCH   9  16
BRANCH  13  17
ATOM     17  O   UNL     1      -3.528  11.855  18.325  0.00  0.00    +0.000 OA
ATOM     18  C   UNL     1      -3.477  11.163  17.083  0.00  0.00    +0.000 C 
ENDBRANCH  13  17
ENDBRANCH   7  11
ENDBRANCH   1   8
BRANCH   4  19
ATOM     19  O   UNL     1       5.165   5.129  17.797  0.00  0.00    +0.000 OA
BRANCH  19  20
ATOM     20  C   UNL     1       5.808   5.621  16.630  0.00  0.00    +0.000 C 
BRANCH  20  21
ATOM     21  C   UNL     1       7.301   5.797  16.839  0.00  0.00    +0.000 C 
BRANCH  21  22
ATOM     22  C   UNL     1       7.471   6.728  18.033  0.00  0.00    +0.000 C 
BRANCH  22  23
ATOM     23  C   UNL     1       7.766   8.162  17.622  0.00  0.00    +0.000 C 
BRANCH  23  24
ATOM     24  C   UNL     1       8.702   8.864  18.616  0.00  0.00    +0.000 C 
BRANCH  24  25
ATOM     25  C   UNL     1       8.857  10.357  18.294  0.00  0.00    +0.000 C 
BRANCH  25  26
ATOM     26  N   UNL     1       9.773  11.101  19.172  0.00  0.00    +0.000 NA
ATOM     27  C   UNL     1       9.160  12.401  19.551  0.00  0.00    +0.000 C 
ATOM     28  C   UNL     1       9.112  13.423  18.397  0.00  0.00    +0.000 C 
ATOM     29  O   UNL     1      10.404  13.629  17.810  0.00  0.00    +0.000 OA
ATOM     30  C   UNL     1      10.987  12.389  17.386  0.00  0.00    +0.000 C 
ATOM     31  C   UNL     1      11.081  11.396  18.553  0.00  0.00    +0.000 C 
ENDBRANCH  25  26
ENDBRANCH  24  25
ENDBRANCH  23  24
ENDBRANCH  22  23
ENDBRANCH  21  22
ENDBRANCH  20  21
ENDBRANCH  19  20
ENDBRANCH   4  19
TORSDOF 12
ENDMDL
MODEL 7
REMARK VINA RESULT:      -6.5      5.643      9.389
REMARK  Name = 
REMARK  14 active torsions:
REMARK  status: ('A' for Active; 'I' for Inactive)
REMARK    1  A    between atoms: C_1  and  O_2
REMARK    2  A    between atoms: O_2  and  C_3
REMARK    3  A    between atoms: C_5  and  C_6
REMARK    4  A    between atoms: C_7  and  C_8
REMARK    5  A    between atoms: C_11  and  O_12
REMARK    6  A    between atoms: O_12  and  C_13
REMARK    7  A    between atoms: C_13  and  C_14
REMARK    8  A    between atoms: C_14  and  C_15
REMARK    9  A    between atoms: C_15  and  C_16
REMARK   10  A    between atoms: C_16  and  C_17
REMARK   11  A    between atoms: C_17  and  C_18
REMARK   12  A    between atoms: C_18  and  N_19
REMARK   13  A    between atoms: C_28  and  O_29
REMARK   14  A    between atoms: O_29  and  C_30
REMARK                            x       y       z     vdW  Elec       q    Type
REMARK                         _______ _______ _______ _____ _____    ______ ____
ROOT
ATOM      1  C   UNL     1       1.418   8.919  18.805  0.00  0.00    +0.000 A 
ATOM      2  C   UNL     1       1.249   8.718  20.170  0.00  0.00    +0.000 A 
ATOM      3  C   UNL     1       0.488   9.604  20.921  0.00  0.00    +0.000 A 
ATOM      4  C   UNL     1      -0.111  10.716  20.318  0.00  0.00    +0.000 A 
ATOM      5  C   UNL     1       0.068  10.933  18.957  0.00  0.00    +0.000 A 
ATOM      6  C   UNL     1       0.836  10.044  18.201  0.00  0.00    +0.000 A 
ENDROOT
BRANCH   1   8
ATOM      7  C   UNL     1       2.738   6.834  18.641  0.00  0.00    +0.000 C 
ATOM      8  C   UNL     1       2.246   7.952  18.086  0.00  0.00    +0.000 C 
BRANCH   7  11
ATOM      9  C   UNL     1       4.059   3.558  17.388  0.00  0.00    +0.000 A 
ATOM     10  C   UNL     1       3.343   4.509  18.111  0.00  0.00    +0.000 A 
ATOM     11  C   UNL     1       3.574   5.877  17.917  0.00  0.00    +0.000 A 
ATOM     12  C   UNL     1       4.535   6.270  16.981  0.00  0.00    +0.000 A 
ATOM     13  C   UNL     1       5.259   5.329  16.251  0.00  0.00    +0.000 A 
ATOM     14  C   UNL     1       5.016   3.970  16.458  0.00  0.00    +0.000 A 
BRANCH   9  16
ATOM     15  C   UNL     1       2.547   2.060  18.444  0.00  0.00    +0.000 C 
ATOM     16  O   UNL     1       3.721   2.260  17.667  0.00  0.00    +0.000 OA
ENDBRANCH   9  16
BRANCH  13  17
ATOM     17  O   UNL     1       6.151   5.862  15.362  0.00  0.00    +0.000 OA
ATOM     18  C   UNL     1       6.918   4.944  14.592  0.00  0.00    +0.000 C 
ENDBRANCH  13  17
ENDBRANCH   7  11
ENDBRANCH   1   8
BRANCH   4  19
ATOM     19  O   UNL     1      -0.879  11.645  20.982  0.00  0.00    +0.000 OA
BRANCH  19  20
ATOM     20  C   UNL     1      -1.009  11.360  22.369  0.00  0.00    +0.000 C 
BRANCH  20  21
ATOM     21  C   UNL     1      -1.559  12.547  23.139  0.00  0.00    +0.000 C 
BRANCH  21  22
ATOM     22  C   UNL     1      -2.513  13.277  22.202  0.00  0.00    +0.000 C 
BRANCH  22  23
ATOM     23  C   UNL     1      -2.341  14.787  22.247  0.00  0.00    +0.000 C 
BRANCH  23  24
ATOM     24  C   UNL     1      -3.678  15.511  22.451  0.00  0.00    +0.000 C 
BRANCH  24  25
ATOM     25  C   UNL     1      -4.668  14.661  23.261  0.00  0.00    +0.000 C 
BRANCH  25  26
ATOM     26  N   UNL     1      -6.071  14.739  22.826  0.00  0.00    +0.000 NA
ATOM     27  C   UNL     1      -6.948  14.107  23.846  0.00  0.00    +0.000 C 
ATOM     28  C   UNL     1      -6.836  12.570  23.893  0.00  0.00    +0.000 C 
ATOM     29  O   UNL     1      -7.057  11.978  22.606  0.00  0.00    +0.000 OA
ATOM     30  C   UNL     1      -6.178  12.536  21.619  0.00  0.00    +0.000 C 
ATOM     31  C   UNL     1      -6.334  14.061  21.541  0.00  0.00    +0.000 C 
ENDBRANCH  25  26
ENDBRANCH  24  25
ENDBRANCH  23  24
ENDBRANCH  22  23
ENDBRANCH  21  22
ENDBRANCH  20  21
ENDBRANCH  19  20
ENDBRANCH   4  19
TORSDOF 12
ENDMDL
MODEL 8
REMARK VINA RESULT:      -6.5      2.205      9.163
REMARK  Name = 
REMARK  14 active torsions:
REMARK  status: ('A' for Active; 'I' for Inactive)
REMARK    1  A    between atoms: C_1  and  O_2
REMARK    2  A    between atoms: O_2  and  C_3
REMARK    3  A    between atoms: C_5  and  C_6
REMARK    4  A    between atoms: C_7  and  C_8
REMARK    5  A    between atoms: C_11  and  O_12
REMARK    6  A    between atoms: O_12  and  C_13
REMARK    7  A    between atoms: C_13  and  C_14
REMARK    8  A    between atoms: C_14  and  C_15
REMARK    9  A    between atoms: C_15  and  C_16
REMARK   10  A    between atoms: C_16  and  C_17
REMARK   11  A    between atoms: C_17  and  C_18
REMARK   12  A    between atoms: C_18  and  N_19
REMARK   13  A    between atoms: C_28  and  O_29
REMARK   14  A    between atoms: O_29  and  C_30
REMARK                            x       y       z     vdW  Elec       q    Type
REMARK                         _______ _______ _______ _____ _____    ______ ____
ROOT
ATOM      1  C   UNL     1       2.653   7.350  18.461  0.00  0.00    +0.000 A 
ATOM      2  C   UNL     1       3.448   7.531  17.335  0.00  0.00    +0.000 A 
ATOM      3  C   UNL     1       4.553   6.718  17.120  0.00  0.00    +0.000 A 
ATOM      4  C   UNL     1       4.889   5.714  18.035  0.00  0.00    +0.000 A 
ATOM      5  C   UNL     1       4.107   5.539  19.172  0.00  0.00    +0.000 A 
ATOM      6  C   UNL     1       2.997   6.357  19.391  0.00  0.00    +0.000 A 
ENDROOT
BRANCH   1   8
ATOM      7  C   UNL     1       1.556   9.563  18.331  0.00  0.00    +0.000 C 
ATOM      8  C   UNL     1       1.516   8.255  18.625  0.00  0.00    +0.000 C 
BRANCH   7  11
ATOM      9  C   UNL     1      -0.427  12.564  19.386  0.00  0.00    +0.000 A 
ATOM     10  C   UNL     1       0.603  11.636  19.252  0.00  0.00    +0.000 A 
ATOM     11  C   UNL     1       0.417  10.463  18.509  0.00  0.00    +0.000 A 
ATOM     12  C   UNL     1      -0.823  10.242  17.902  0.00  0.00    +0.000 A 
ATOM     13  C   UNL     1      -1.862  11.162  18.028  0.00  0.00    +0.000 A 
ATOM     14  C   UNL     1      -1.659  12.325  18.773  0.00  0.00    +0.000 A 
BRANCH   9  16
ATOM     15  C   UNL     1      -0.624  14.914  19.673  0.00  0.00    +0.000 C 
ATOM     16  O   UNL     1      -0.103  13.670  20.125  0.00  0.00    +0.000 OA
ENDBRANCH   9  16
BRANCH  13  17
ATOM     17  O   UNL     1      -3.009  10.819  17.366  0.00  0.00    +0.000 OA
ATOM     18  C   UNL     1      -4.232  10.973  18.076  0.00  0.00    +0.000 C 
ENDBRANCH  13  17
ENDBRANCH   7  11
ENDBRANCH   1   8
BRANCH   4  19
ATOM     19  O   UNL     1       5.963   4.865  17.904  0.00  0.00    +0.000 OA
BRANCH  19  20
ATOM     20  C   UNL     1       7.127   5.522  17.421  0.00  0.00    +0.000 C 
BRANCH  20  21
ATOM     21  C   UNL     1       7.584   6.624  18.359  0.00  0.00    +0.000 C 
BRANCH  21  22
ATOM     22  C   UNL     1       8.152   7.737  17.487  0.00  0.00    +0.000 C 
BRANCH  22  23
ATOM     23  C   UNL     1       7.853   9.123  18.035  0.00  0.00    +0.000 C 
BRANCH  23  24
ATOM     24  C   UNL     1       9.067   9.731  18.752  0.00  0.00    +0.000 C 
BRANCH  24  25
ATOM     25  C   UNL     1       9.523  11.039  18.088  0.00  0.00    +0.000 C 
BRANCH  25  26
ATOM     26  N   UNL     1       9.538  12.220  18.963  0.00  0.00    +0.000 NA
ATOM     27  C   UNL     1      10.055  13.394  18.213  0.00  0.00    +0.000 C 
ATOM     28  C   UNL     1      11.571  13.332  17.932  0.00  0.00    +0.000 C 
ATOM     29  O   UNL     1      12.329  13.129  19.131  0.00  0.00    +0.000 OA
ATOM     30  C   UNL     1      11.881  11.966  19.840  0.00  0.00    +0.000 C 
ATOM     31  C   UNL     1      10.383  12.060  20.164  0.00  0.00    +0.000 C 
ENDBRANCH  25  26
ENDBRANCH  24  25
ENDBRANCH  23  24
ENDBRANCH  22  23
ENDBRANCH  21  22
ENDBRANCH  20  21
ENDBRANCH  19  20
ENDBRANCH   4  19
TORSDOF 12
ENDMDL
MODEL 9
REMARK VINA RESULT:      -6.4      5.515      9.264
REMARK  Name = 
REMARK  14 active torsions:
REMARK  status: ('A' for Active; 'I' for Inactive)
REMARK    1  A    between atoms: C_1  and  O_2
REMARK    2  A    between atoms: O_2  and  C_3
REMARK    3  A    between atoms: C_5  and  C_6
REMARK    4  A    between atoms: C_7  and  C_8
REMARK    5  A    between atoms: C_11  and  O_12
REMARK    6  A    between atoms: O_12  and  C_13
REMARK    7  A    between atoms: C_13  and  C_14
REMARK    8  A    between atoms: C_14  and  C_15
REMARK    9  A    between atoms: C_15  and  C_16
REMARK   10  A    between atoms: C_16  and  C_17
REMARK   11  A    between atoms: C_17  and  C_18
REMARK   12  A    between atoms: C_18  and  N_19
REMARK   13  A    between atoms: C_28  and  O_29
REMARK   14  A    between atoms: O_29  and  C_30
REMARK                            x       y       z     vdW  Elec       q    Type
REMARK                         _______ _______ _______ _____ _____    ______ ____
ROOT
ATOM      1  C   UNL     1       1.444   9.777  18.070  0.00  0.00    +0.000 A 
ATOM      2  C   UNL     1       0.071   9.881  18.255  0.00  0.00    +0.000 A 
ATOM      3  C   UNL     1      -0.495  11.087  18.646  0.00  0.00    +0.000 A 
ATOM      4  C   UNL     1       0.308  12.212  18.869  0.00  0.00    +0.000 A 
ATOM      5  C   UNL     1       1.685  12.111  18.701  0.00  0.00    +0.000 A 
ATOM      6  C   UNL     1       2.255  10.897  18.311  0.00  0.00    +0.000 A 
ENDROOT
BRANCH   1   8
ATOM      7  C   UNL     1       2.485   7.582  18.534  0.00  0.00    +0.000 C 
ATOM      8  C   UNL     1       1.966   8.470  17.673  0.00  0.00    +0.000 C 
BRANCH   7  11
ATOM      9  C   UNL     1       2.662   3.887  17.930  0.00  0.00    +0.000 A 
ATOM     10  C   UNL     1       2.239   5.140  18.367  0.00  0.00    +0.000 A 
ATOM     11  C   UNL     1       3.015   6.281  18.126  0.00  0.00    +0.000 A 
ATOM     12  C   UNL     1       4.222   6.140  17.435  0.00  0.00    +0.000 A 
ATOM     13  C   UNL     1       4.657   4.892  16.992  0.00  0.00    +0.000 A 
ATOM     14  C   UNL     1       3.871   3.766  17.241  0.00  0.00    +0.000 A 
BRANCH   9  16
ATOM     15  C   UNL     1       0.865   3.093  19.266  0.00  0.00    +0.000 C 
ATOM     16  O   UNL     1       1.801   2.863  18.220  0.00  0.00    +0.000 OA
ENDBRANCH   9  16
BRANCH  13  17
ATOM     17  O   UNL     1       5.846   4.912  16.316  0.00  0.00    +0.000 OA
ATOM     18  C   UNL     1       5.824   5.422  14.989  0.00  0.00    +0.000 C 
ENDBRANCH  13  17
ENDBRANCH   7  11
ENDBRANCH   1   8
BRANCH   4  19
ATOM     19  O   UNL     1      -0.164  13.444  19.258  0.00  0.00    +0.000 OA
BRANCH  19  20
ATOM     20  C   UNL     1       0.373  13.870  20.503  0.00  0.00    +0.000 C 
BRANCH  20  21
ATOM     21  C   UNL     1      -0.388  13.282  21.676  0.00  0.00    +0.000 C 
BRANCH  21  22
ATOM     22  C   UNL     1      -1.824  13.779  21.564  0.00  0.00    +0.000 C 
BRANCH  22  23
ATOM     23  C   UNL     1      -2.829  12.646  21.427  0.00  0.00    +0.000 C 
BRANCH  23  24
ATOM     24  C   UNL     1      -3.532  12.664  20.062  0.00  0.00    +0.000 C 
BRANCH  24  25
ATOM     25  C   UNL     1      -5.056  12.777  20.209  0.00  0.00    +0.000 C 
BRANCH  25  26
ATOM     26  N   UNL     1      -5.827  11.643  19.678  0.00  0.00    +0.000 NA
ATOM     27  C   UNL     1      -5.349  11.306  18.312  0.00  0.00    +0.000 C 
ATOM     28  C   UNL     1      -5.750  12.342  17.242  0.00  0.00    +0.000 C 
ATOM     29  O   UNL     1      -7.164  12.582  17.234  0.00  0.00    +0.000 OA
ATOM     30  C   UNL     1      -7.635  12.964  18.533  0.00  0.00    +0.000 C 
ATOM     31  C   UNL     1      -7.278  11.902  19.583  0.00  0.00    +0.000 C 
ENDBRANCH  25  26
ENDBRANCH  24  25
ENDBRANCH  23  24
ENDBRANCH  22  23
ENDBRANCH  21  22
ENDBRANCH  20  21
ENDBRANCH  19  20
ENDBRANCH   4  19
TORSDOF 12
ENDMDL
