MODEL 1
REMARK VINA RESULT:      -5.9      0.000      0.000
REMARK  Name = 
REMARK  5 active torsions:
REMARK  status: ('A' for Active; 'I' for Inactive)
REMARK    1  A    between atoms: C_2  and  C_3
REMARK    2  A    between atoms: C_3  and  S_4
REMARK    3  A    between atoms: S_4  and  C_5
REMARK    4  A    between atoms: C_10  and  C_11
REMARK    5  A    between atoms: C_11  and  C_12
REMARK                            x       y       z     vdW  Elec       q    Type
REMARK                         _______ _______ _______ _____ _____    ______ ____
ROOT
ATOM      1  C   UNL     1       4.424   4.656  16.975  0.00  0.00    +0.000 A 
ATOM      2  N   UNL     1       4.243   5.943  17.067  0.00  0.00    +0.000 NA
ATOM      3  N   UNL     1       3.268   6.482  17.962  0.00  0.00    +0.000 NA
ATOM      4  C   UNL     1       2.540   5.684  18.685  0.00  0.00    +0.000 A 
ATOM      5  C   UNL     1       2.702   4.276  18.601  0.00  0.00    +0.000 A 
ATOM      6  C   UNL     1       2.107   3.177  19.179  0.00  0.00    +0.000 A 
ATOM      7  N   UNL     1       2.707   2.028  18.704  0.00  0.00    +0.000 NA
ATOM      8  C   UNL     1       3.625   2.430  17.850  0.00  0.00    +0.000 A 
ATOM      9  N   UNL     1       3.653   3.794  17.746  0.00  0.00    +0.000 N 
ENDROOT
BRANCH   6  10
ATOM     10  C   UNL     1       0.977   3.084  20.143  0.00  0.00    +0.000 C 
ATOM     11  C   UNL     1       1.427   2.756  21.557  0.00  0.00    +0.000 C 
ENDBRANCH   6  10
BRANCH   1  12
ATOM     12  S   UNL     1       5.628   4.021  15.867  0.00  0.00    +0.000 S 
BRANCH  12  13
ATOM     13  C   UNL     1       7.032   5.082  16.310  0.00  0.00    +0.000 C 
BRANCH  13  15
ATOM     14  C   UNL     1       7.710   5.539  18.687  0.00  0.00    +0.000 C 
ATOM     15  C   UNL     1       7.538   4.689  17.666  0.00  0.00    +0.000 C 
ENDBRANCH  13  15
ENDBRANCH  12  13
ENDBRANCH   1  12
TORSDOF 4
ENDMDL
MODEL 2
REMARK VINA RESULT:      -5.9      2.369      5.504
REMARK  Name = 
REMARK  5 active torsions:
REMARK  status: ('A' for Active; 'I' for Inactive)
REMARK    1  A    between atoms: C_2  and  C_3
REMARK    2  A    between atoms: C_3  and  S_4
REMARK    3  A    between atoms: S_4  and  C_5
REMARK    4  A    between atoms: C_10  and  C_11
REMARK    5  A    between atoms: C_11  and  C_12
REMARK                            x       y       z     vdW  Elec       q    Type
REMARK                         _______ _______ _______ _____ _____    ______ ____
ROOT
ATOM      1  C   UNL     1       5.194   4.831  19.036  0.00  0.00    +0.000 A 
ATOM      2  N   UNL     1       6.312   4.943  19.694  0.00  0.00    +0.000 NA
ATOM      3  N   UNL     1       7.566   4.942  19.010  0.00  0.00    +0.000 NA
ATOM      4  C   UNL     1       7.600   4.815  17.717  0.00  0.00    +0.000 A 
ATOM      5  C   UNL     1       6.401   4.678  16.969  0.00  0.00    +0.000 A 
ATOM      6  C   UNL     1       6.080   4.503  15.641  0.00  0.00    +0.000 A 
ATOM      7  N   UNL     1       4.708   4.443  15.506  0.00  0.00    +0.000 NA
ATOM      8  C   UNL     1       4.222   4.560  16.724  0.00  0.00    +0.000 A 
ATOM      9  N   UNL     1       5.218   4.696  17.652  0.00  0.00    +0.000 N 
ENDROOT
BRANCH   6  10
ATOM     10  C   UNL     1       6.954   4.354  14.446  0.00  0.00    +0.000 C 
ATOM     11  C   UNL     1       6.239   3.724  13.262  0.00  0.00    +0.000 C 
ENDBRANCH   6  10
BRANCH   1  12
ATOM     12  S   UNL     1       3.667   4.832  19.901  0.00  0.00    +0.000 S 
BRANCH  12  13
ATOM     13  C   UNL     1       3.432   3.044  20.097  0.00  0.00    +0.000 C 
BRANCH  13  15
ATOM     14  C   UNL     1       1.342   2.712  21.457  0.00  0.00    +0.000 C 
ATOM     15  C   UNL     1       2.678   2.782  21.367  0.00  0.00    +0.000 C 
ENDBRANCH  13  15
ENDBRANCH  12  13
ENDBRANCH   1  12
TORSDOF 4
ENDMDL
MODEL 3
REMARK VINA RESULT:      -5.8      2.707      3.705
REMARK  Name = 
REMARK  5 active torsions:
REMARK  status: ('A' for Active; 'I' for Inactive)
REMARK    1  A    between atoms: C_2  and  C_3
REMARK    2  A    between atoms: C_3  and  S_4
REMARK    3  A    between atoms: S_4  and  C_5
REMARK    4  A    between atoms: C_10  and  C_11
REMARK    5  A    between atoms: C_11  and  C_12
REMARK                            x       y       z     vdW  Elec       q    Type
REMARK                         _______ _______ _______ _____ _____    ______ ____
ROOT
ATOM      1  C   UNL     1       6.894   5.892  17.284  0.00  0.00    +0.000 A 
ATOM      2  N   UNL     1       7.270   5.760  16.045  0.00  0.00    +0.000 NA
ATOM      3  N   UNL     1       6.449   5.068  15.101  0.00  0.00    +0.000 NA
ATOM      4  C   UNL     1       5.319   4.551  15.481  0.00  0.00    +0.000 A 
ATOM      5  C   UNL     1       4.884   4.665  16.828  0.00  0.00    +0.000 A 
ATOM      6  C   UNL     1       3.797   4.233  17.555  0.00  0.00    +0.000 A 
ATOM      7  N   UNL     1       3.917   4.667  18.860  0.00  0.00    +0.000 NA
ATOM      8  C   UNL     1       5.055   5.326  18.915  0.00  0.00    +0.000 A 
ATOM      9  N   UNL     1       5.686   5.344  17.702  0.00  0.00    +0.000 N 
ENDROOT
BRANCH   6  10
ATOM     10  C   UNL     1       2.631   3.402  17.151  0.00  0.00    +0.000 C 
ATOM     11  C   UNL     1       1.576   3.289  18.238  0.00  0.00    +0.000 C 
ENDBRANCH   6  10
BRANCH   1  12
ATOM     12  S   UNL     1       7.922   6.745  18.423  0.00  0.00    +0.000 S 
BRANCH  12  13
ATOM     13  C   UNL     1       7.852   8.408  17.702  0.00  0.00    +0.000 C 
BRANCH  13  15
ATOM     14  C   UNL     1       9.037  10.574  18.178  0.00  0.00    +0.000 C 
ATOM     15  C   UNL     1       8.643   9.351  18.559  0.00  0.00    +0.000 C 
ENDBRANCH  13  15
ENDBRANCH  12  13
ENDBRANCH   1  12
TORSDOF 4
ENDMDL
MODEL 4
REMARK VINA RESULT:      -5.8      1.642      1.815
REMARK  Name = 
REMARK  5 active torsions:
REMARK  status: ('A' for Active; 'I' for Inactive)
REMARK    1  A    between atoms: C_2  and  C_3
REMARK    2  A    between atoms: C_3  and  S_4
REMARK    3  A    between atoms: S_4  and  C_5
REMARK    4  A    between atoms: C_10  and  C_11
REMARK    5  A    between atoms: C_11  and  C_12
REMARK                            x       y       z     vdW  Elec       q    Type
REMARK                         _______ _______ _______ _____ _____    ______ ____
ROOT
ATOM      1  C   UNL     1       5.122   5.604  17.849  0.00  0.00    +0.000 A 
ATOM      2  N   UNL     1       4.545   6.696  17.436  0.00  0.00    +0.000 NA
ATOM      3  N   UNL     1       3.196   6.993  17.801  0.00  0.00    +0.000 NA
ATOM      4  C   UNL     1       2.526   6.161  18.542  0.00  0.00    +0.000 A 
ATOM      5  C   UNL     1       3.120   4.955  19.000  0.00  0.00    +0.000 A 
ATOM      6  C   UNL     1       2.710   3.876  19.750  0.00  0.00    +0.000 A 
ATOM      7  N   UNL     1       3.757   2.984  19.878  0.00  0.00    +0.000 NA
ATOM      8  C   UNL     1       4.760   3.509  19.206  0.00  0.00    +0.000 A 
ATOM      9  N   UNL     1       4.416   4.708  18.645  0.00  0.00    +0.000 N 
ENDROOT
BRANCH   6  10
ATOM     10  C   UNL     1       1.388   3.565  20.357  0.00  0.00    +0.000 C 
ATOM     11  C   UNL     1       1.496   2.717  21.614  0.00  0.00    +0.000 C 
ENDBRANCH   6  10
BRANCH   1  12
ATOM     12  S   UNL     1       6.780   5.263  17.385  0.00  0.00    +0.000 S 
BRANCH  12  13
ATOM     13  C   UNL     1       7.634   6.514  18.384  0.00  0.00    +0.000 C 
BRANCH  13  15
ATOM     14  C   UNL     1       8.276   8.922  18.049  0.00  0.00    +0.000 C 
ATOM     15  C   UNL     1       7.798   7.765  17.572  0.00  0.00    +0.000 C 
ENDBRANCH  13  15
ENDBRANCH  12  13
ENDBRANCH   1  12
TORSDOF 4
ENDMDL
MODEL 5
REMARK VINA RESULT:      -5.8      1.817      2.386
REMARK  Name = 
REMARK  5 active torsions:
REMARK  status: ('A' for Active; 'I' for Inactive)
REMARK    1  A    between atoms: C_2  and  C_3
REMARK    2  A    between atoms: C_3  and  S_4
REMARK    3  A    between atoms: S_4  and  C_5
REMARK    4  A    between atoms: C_10  and  C_11
REMARK    5  A    between atoms: C_11  and  C_12
REMARK                            x       y       z     vdW  Elec       q    Type
REMARK                         _______ _______ _______ _____ _____    ______ ____
ROOT
ATOM      1  C   UNL     1       5.325   5.619  17.419  0.00  0.00    +0.000 A 
ATOM      2  N   UNL     1       4.904   6.774  16.990  0.00  0.00    +0.000 NA
ATOM      3  N   UNL     1       3.720   7.367  17.526  0.00  0.00    +0.000 NA
ATOM      4  C   UNL     1       3.042   6.746  18.445  0.00  0.00    +0.000 A 
ATOM      5  C   UNL     1       3.465   5.479  18.928  0.00  0.00    +0.000 A 
ATOM      6  C   UNL     1       2.992   4.563  19.840  0.00  0.00    +0.000 A 
ATOM      7  N   UNL     1       3.855   3.486  19.897  0.00  0.00    +0.000 NA
ATOM      8  C   UNL     1       4.808   3.745  19.027  0.00  0.00    +0.000 A 
ATOM      9  N   UNL     1       4.608   4.946  18.403  0.00  0.00    +0.000 N 
ENDROOT
BRANCH   6  10
ATOM     10  C   UNL     1       1.761   4.575  20.675  0.00  0.00    +0.000 C 
ATOM     11  C   UNL     1       1.113   3.205  20.799  0.00  0.00    +0.000 C 
ENDBRANCH   6  10
BRANCH   1  12
ATOM     12  S   UNL     1       6.781   4.912  16.741  0.00  0.00    +0.000 S 
BRANCH  12  13
ATOM     13  C   UNL     1       6.031   3.769  15.547  0.00  0.00    +0.000 C 
BRANCH  13  15
ATOM     14  C   UNL     1       6.158   3.642  13.039  0.00  0.00    +0.000 C 
ATOM     15  C   UNL     1       6.132   4.359  14.171  0.00  0.00    +0.000 C 
ENDBRANCH  13  15
ENDBRANCH  12  13
ENDBRANCH   1  12
TORSDOF 4
ENDMDL
MODEL 6
REMARK VINA RESULT:      -5.8      2.389      5.496
REMARK  Name = 
REMARK  5 active torsions:
REMARK  status: ('A' for Active; 'I' for Inactive)
REMARK    1  A    between atoms: C_2  and  C_3
REMARK    2  A    between atoms: C_3  and  S_4
REMARK    3  A    between atoms: S_4  and  C_5
REMARK    4  A    between atoms: C_10  and  C_11
REMARK    5  A    between atoms: C_11  and  C_12
REMARK                            x       y       z     vdW  Elec       q    Type
REMARK                         _______ _______ _______ _____ _____    ______ ____
ROOT
ATOM      1  C   UNL     1       5.288   4.326  19.039  0.00  0.00    +0.000 A 
ATOM      2  N   UNL     1       6.315   4.771  19.704  0.00  0.00    +0.000 NA
ATOM      3  N   UNL     1       7.479   5.243  19.023  0.00  0.00    +0.000 NA
ATOM      4  C   UNL     1       7.526   5.217  17.724  0.00  0.00    +0.000 A 
ATOM      5  C   UNL     1       6.429   4.727  16.968  0.00  0.00    +0.000 A 
ATOM      6  C   UNL     1       6.157   4.538  15.631  0.00  0.00    +0.000 A 
ATOM      7  N   UNL     1       4.885   4.021  15.491  0.00  0.00    +0.000 NA
ATOM      8  C   UNL     1       4.416   3.887  16.714  0.00  0.00    +0.000 A 
ATOM      9  N   UNL     1       5.326   4.296  17.649  0.00  0.00    +0.000 N 
ENDROOT
BRANCH   6  10
ATOM     10  C   UNL     1       7.003   4.772  14.429  0.00  0.00    +0.000 C 
ATOM     11  C   UNL     1       6.532   3.995  13.211  0.00  0.00    +0.000 C 
ENDBRANCH   6  10
BRANCH   1  12
ATOM     12  S   UNL     1       3.871   3.751  19.901  0.00  0.00    +0.000 S 
BRANCH  12  13
ATOM     13  C   UNL     1       2.909   5.289  19.954  0.00  0.00    +0.000 C 
BRANCH  13  15
ATOM     14  C   UNL     1       0.866   3.863  20.296  0.00  0.00    +0.000 C 
ATOM     15  C   UNL     1       1.546   4.999  20.508  0.00  0.00    +0.000 C 
ENDBRANCH  13  15
ENDBRANCH  12  13
ENDBRANCH   1  12
TORSDOF 4
ENDMDL
MODEL 7
REMARK VINA RESULT:      -5.7      2.174      2.852
REMARK  Name = 
REMARK  5 active torsions:
REMARK  status: ('A' for Active; 'I' for Inactive)
REMARK    1  A    between atoms: C_2  and  C_3
REMARK    2  A    between atoms: C_3  and  S_4
REMARK    3  A    between atoms: S_4  and  C_5
REMARK    4  A    between atoms: C_10  and  C_11
REMARK    5  A    between atoms: C_11  and  C_12
REMARK                            x       y       z     vdW  Elec       q    Type
REMARK                         _______ _______ _______ _____ _____    ______ ____
ROOT
ATOM      1  C   UNL     1       5.192   4.570  17.083  0.00  0.00    +0.000 A 
ATOM      2  N   UNL     1       6.135   4.685  17.974  0.00  0.00    +0.000 NA
ATOM      3  N   UNL     1       5.955   4.178  19.298  0.00  0.00    +0.000 NA
ATOM      4  C   UNL     1       4.835   3.607  19.627  0.00  0.00    +0.000 A 
ATOM      5  C   UNL     1       3.782   3.475  18.684  0.00  0.00    +0.000 A 
ATOM      6  C   UNL     1       2.501   2.968  18.698  0.00  0.00    +0.000 A 
ATOM      7  N   UNL     1       1.938   3.113  17.445  0.00  0.00    +0.000 NA
ATOM      8  C   UNL     1       2.852   3.708  16.708  0.00  0.00    +0.000 A 
ATOM      9  N   UNL     1       3.991   3.958  17.423  0.00  0.00    +0.000 N 
ENDROOT
BRANCH   6  10
ATOM     10  C   UNL     1       1.710   2.366  19.805  0.00  0.00    +0.000 C 
ATOM     11  C   UNL     1       1.133   3.403  20.755  0.00  0.00    +0.000 C 
ENDBRANCH   6  10
BRANCH   1  12
ATOM     12  S   UNL     1       5.439   5.203  15.464  0.00  0.00    +0.000 S 
BRANCH  12  13
ATOM     13  C   UNL     1       6.164   3.737  14.677  0.00  0.00    +0.000 C 
BRANCH  13  15
ATOM     14  C   UNL     1       5.838   3.244  12.233  0.00  0.00    +0.000 C 
ATOM     15  C   UNL     1       6.348   4.004  13.213  0.00  0.00    +0.000 C 
ENDBRANCH  13  15
ENDBRANCH  12  13
ENDBRANCH   1  12
TORSDOF 4
ENDMDL
MODEL 8
REMARK VINA RESULT:      -5.7      1.366      2.320
REMARK  Name = 
REMARK  5 active torsions:
REMARK  status: ('A' for Active; 'I' for Inactive)
REMARK    1  A    between atoms: C_2  and  C_3
REMARK    2  A    between atoms: C_3  and  S_4
REMARK    3  A    between atoms: S_4  and  C_5
REMARK    4  A    between atoms: C_10  and  C_11
REMARK    5  A    between atoms: C_11  and  C_12
REMARK                            x       y       z     vdW  Elec       q    Type
REMARK                         _______ _______ _______ _____ _____    ______ ____
ROOT
ATOM      1  C   UNL     1       4.454   5.250  17.347  0.00  0.00    +0.000 A 
ATOM      2  N   UNL     1       4.746   4.107  16.796  0.00  0.00    +0.000 NA
ATOM      3  N   UNL     1       4.087   2.908  17.206  0.00  0.00    +0.000 NA
ATOM      4  C   UNL     1       3.194   2.948  18.149  0.00  0.00    +0.000 A 
ATOM      5  C   UNL     1       2.859   4.176  18.780  0.00  0.00    +0.000 A 
ATOM      6  C   UNL     1       2.011   4.567  19.792  0.00  0.00    +0.000 A 
ATOM      7  N   UNL     1       2.107   5.933  19.968  0.00  0.00    +0.000 NA
ATOM      8  C   UNL     1       3.004   6.344  19.097  0.00  0.00    +0.000 A 
ATOM      9  N   UNL     1       3.497   5.306  18.355  0.00  0.00    +0.000 N 
ENDROOT
BRANCH   6  10
ATOM     10  C   UNL     1       1.108   3.765  20.662  0.00  0.00    +0.000 C 
ATOM     11  C   UNL     1       1.859   2.894  21.656  0.00  0.00    +0.000 C 
ENDBRANCH   6  10
BRANCH   1  12
ATOM     12  S   UNL     1       5.280   6.708  16.825  0.00  0.00    +0.000 S 
BRANCH  12  13
ATOM     13  C   UNL     1       6.995   6.120  16.890  0.00  0.00    +0.000 C 
BRANCH  13  15
ATOM     14  C   UNL     1       7.814   5.770  19.241  0.00  0.00    +0.000 C 
ATOM     15  C   UNL     1       7.620   6.564  18.179  0.00  0.00    +0.000 C 
ENDBRANCH  13  15
ENDBRANCH  12  13
ENDBRANCH   1  12
TORSDOF 4
ENDMDL
MODEL 9
REMARK VINA RESULT:      -5.6      1.369      2.061
REMARK  Name = 
REMARK  5 active torsions:
REMARK  status: ('A' for Active; 'I' for Inactive)
REMARK    1  A    between atoms: C_2  and  C_3
REMARK    2  A    between atoms: C_3  and  S_4
REMARK    3  A    between atoms: S_4  and  C_5
REMARK    4  A    between atoms: C_10  and  C_11
REMARK    5  A    between atoms: C_11  and  C_12
REMARK                            x       y       z     vdW  Elec       q    Type
REMARK                         _______ _______ _______ _____ _____    ______ ____
ROOT
ATOM      1  C   UNL     1       4.603   4.456  16.976  0.00  0.00    +0.000 A 
ATOM      2  N   UNL     1       4.454   5.750  17.010  0.00  0.00    +0.000 NA
ATOM      3  N   UNL     1       3.446   6.349  17.826  0.00  0.00    +0.000 NA
ATOM      4  C   UNL     1       2.655   5.599  18.535  0.00  0.00    +0.000 A 
ATOM      5  C   UNL     1       2.781   4.185  18.512  0.00  0.00    +0.000 A 
ATOM      6  C   UNL     1       2.123   3.125  19.095  0.00  0.00    +0.000 A 
ATOM      7  N   UNL     1       2.716   1.943  18.698  0.00  0.00    +0.000 NA
ATOM      8  C   UNL     1       3.691   2.288  17.884  0.00  0.00    +0.000 A 
ATOM      9  N   UNL     1       3.764   3.645  17.732  0.00  0.00    +0.000 N 
ENDROOT
BRANCH   6  10
ATOM     10  C   UNL     1       0.938   3.099  19.995  0.00  0.00    +0.000 C 
ATOM     11  C   UNL     1       1.301   2.852  21.449  0.00  0.00    +0.000 C 
ENDBRANCH   6  10
BRANCH   1  12
ATOM     12  S   UNL     1       5.849   3.747  15.963  0.00  0.00    +0.000 S 
BRANCH  12  13
ATOM     13  C   UNL     1       6.036   5.077  14.743  0.00  0.00    +0.000 C 
BRANCH  13  15
ATOM     14  C   UNL     1       6.146   3.527  12.765  0.00  0.00    +0.000 C 
ATOM     15  C   UNL     1       6.665   4.520  13.500  0.00  0.00    +0.000 C 
ENDBRANCH  13  15
ENDBRANCH  12  13
ENDBRANCH   1  12
TORSDOF 4
ENDMDL
