MODEL 1
REMARK VINA RESULT:      -8.4      0.000      0.000
REMARK  Name = 
REMARK  4 active torsions:
REMARK  status: ('A' for Active; 'I' for Inactive)
REMARK    1  A    between atoms: C_2  and  C_15
REMARK    2  A    between atoms: N_3  and  N_4
REMARK    3  A    between atoms: N_4  and  S_5
REMARK    4  A    between atoms: S_5  and  C_8
REMARK                            x       y       z     vdW  Elec       q    Type
REMARK                         _______ _______ _______ _____ _____    ______ ____
ROOT
ATOM      1  N   UNL     1       5.962   3.576  16.625  0.00  0.00    +0.000 NA
ATOM      2  H   UNL     1       6.319   2.691  16.255  0.00  0.00    +0.000 HD
ENDROOT
BRANCH   1   5
ATOM      3  O   UNL     1       5.776   3.967  19.409  0.00  0.00    +0.000 OA
ATOM      4  C   UNL     1       4.750   3.744  18.771  0.00  0.00    +0.000 C 
ATOM      5  N   UNL     1       4.735   3.568  17.400  0.00  0.00    +0.000 N 
ATOM      6  H   UNL     1       3.889   3.279  16.907  0.00  0.00    +0.000 HD
BRANCH   4   7
ATOM      7  C   UNL     1       3.425   3.629  19.453  0.00  0.00    +0.000 A 
ATOM      8  C   UNL     1       2.874   4.737  20.116  0.00  0.00    +0.000 A 
ATOM      9  C   UNL     1       1.624   4.633  20.743  0.00  0.00    +0.000 A 
ATOM     10  C   UNL     1       0.920   3.429  20.717  0.00  0.00    +0.000 A 
ATOM     11  C   UNL     1       1.463   2.323  20.066  0.00  0.00    +0.000 A 
ATOM     12  C   UNL     1       2.705   2.432  19.451  0.00  0.00    +0.000 A 
ATOM     13  F   UNL     1       3.184   1.336  18.844  0.00  0.00    +0.000 F 
ENDBRANCH   4   7
ENDBRANCH   1   5
BRANCH   1  14
ATOM     14  S   UNL     1       6.410   5.055  15.946  0.00  0.00    +0.000 S 
ATOM     15  O   UNL     1       5.309   5.979  16.130  0.00  0.00    +0.000 OA
ATOM     16  O   UNL     1       7.731   5.389  16.470  0.00  0.00    +0.000 OA
BRANCH  14  17
ATOM     17  C   UNL     1       6.566   4.730  14.213  0.00  0.00    +0.000 A 
ATOM     18  C   UNL     1       7.597   5.336  13.482  0.00  0.00    +0.000 A 
ATOM     19  C   UNL     1       7.834   4.946  12.161  0.00  0.00    +0.000 A 
ATOM     20  C   UNL     1       7.052   3.949  11.578  0.00  0.00    +0.000 A 
ATOM     21  C   UNL     1       6.035   3.353  12.318  0.00  0.00    +0.000 A 
ATOM     22  F   UNL     1       5.307   2.374  11.764  0.00  0.00    +0.000 F 
ATOM     23  C   UNL     1       5.780   3.733  13.631  0.00  0.00    +0.000 A 
ENDBRANCH  14  17
ENDBRANCH   1  14
TORSDOF 4
ENDMDL
MODEL 2
REMARK VINA RESULT:      -8.4      1.079      1.310
REMARK  Name = 
REMARK  4 active torsions:
REMARK  status: ('A' for Active; 'I' for Inactive)
REMARK    1  A    between atoms: C_2  and  C_15
REMARK    2  A    between atoms: N_3  and  N_4
REMARK    3  A    between atoms: N_4  and  S_5
REMARK    4  A    between atoms: S_5  and  C_8
REMARK                            x       y       z     vdW  Elec       q    Type
REMARK                         _______ _______ _______ _____ _____    ______ ____
ROOT
ATOM      1  N   UNL     1       5.984   3.592  16.804  0.00  0.00    +0.000 NA
ATOM      2  H   UNL     1       6.408   2.748  16.410  0.00  0.00    +0.000 HD
ENDROOT
BRANCH   1   5
ATOM      3  O   UNL     1       5.738   4.458  19.474  0.00  0.00    +0.000 OA
ATOM      4  C   UNL     1       4.784   3.895  18.943  0.00  0.00    +0.000 C 
ATOM      5  N   UNL     1       4.798   3.461  17.631  0.00  0.00    +0.000 N 
ATOM      6  H   UNL     1       4.036   2.902  17.244  0.00  0.00    +0.000 HD
BRANCH   4   7
ATOM      7  C   UNL     1       3.527   3.621  19.703  0.00  0.00    +0.000 A 
ATOM      8  C   UNL     1       3.506   2.633  20.699  0.00  0.00    +0.000 A 
ATOM      9  C   UNL     1       2.329   2.386  21.422  0.00  0.00    +0.000 A 
ATOM     10  C   UNL     1       1.171   3.117  21.155  0.00  0.00    +0.000 A 
ATOM     11  C   UNL     1       1.182   4.094  20.163  0.00  0.00    +0.000 A 
ATOM     12  C   UNL     1       2.351   4.330  19.447  0.00  0.00    +0.000 A 
ATOM     13  F   UNL     1       2.305   5.278  18.499  0.00  0.00    +0.000 F 
ENDBRANCH   4   7
ENDBRANCH   1   5
BRANCH   1  14
ATOM     14  S   UNL     1       6.258   5.113  16.124  0.00  0.00    +0.000 S 
ATOM     15  O   UNL     1       5.042   5.887  16.265  0.00  0.00    +0.000 OA
ATOM     16  O   UNL     1       7.508   5.618  16.683  0.00  0.00    +0.000 OA
BRANCH  14  17
ATOM     17  C   UNL     1       6.509   4.798  14.399  0.00  0.00    +0.000 A 
ATOM     18  C   UNL     1       7.554   5.439  13.721  0.00  0.00    +0.000 A 
ATOM     19  C   UNL     1       7.867   5.061  12.412  0.00  0.00    +0.000 A 
ATOM     20  C   UNL     1       7.147   4.042  11.790  0.00  0.00    +0.000 A 
ATOM     21  C   UNL     1       6.114   3.412  12.478  0.00  0.00    +0.000 A 
ATOM     22  F   UNL     1       5.445   2.413  11.887  0.00  0.00    +0.000 F 
ATOM     23  C   UNL     1       5.784   3.779  13.777  0.00  0.00    +0.000 A 
ENDBRANCH  14  17
ENDBRANCH   1  14
TORSDOF 4
ENDMDL
MODEL 3
REMARK VINA RESULT:      -8.3      2.366      2.841
REMARK  Name = 
REMARK  4 active torsions:
REMARK  status: ('A' for Active; 'I' for Inactive)
REMARK    1  A    between atoms: C_2  and  C_15
REMARK    2  A    between atoms: N_3  and  N_4
REMARK    3  A    between atoms: N_4  and  S_5
REMARK    4  A    between atoms: S_5  and  C_8
REMARK                            x       y       z     vdW  Elec       q    Type
REMARK                         _______ _______ _______ _____ _____    ______ ____
ROOT
ATOM      1  N   UNL     1       6.541   5.333  19.820  0.00  0.00    +0.000 NA
ATOM      2  H   UNL     1       6.820   5.490  20.792  0.00  0.00    +0.000 HD
ENDROOT
BRANCH   1   5
ATOM      3  O   UNL     1       3.882   6.233  19.583  0.00  0.00    +0.000 OA
ATOM      4  C   UNL     1       4.112   5.031  19.475  0.00  0.00    +0.000 C 
ATOM      5  N   UNL     1       5.385   4.497  19.548  0.00  0.00    +0.000 N 
ATOM      6  H   UNL     1       5.542   3.488  19.563  0.00  0.00    +0.000 HD
BRANCH   4   7
ATOM      7  C   UNL     1       3.007   4.046  19.274  0.00  0.00    +0.000 A 
ATOM      8  C   UNL     1       2.076   3.812  20.297  0.00  0.00    +0.000 A 
ATOM      9  C   UNL     1       1.029   2.898  20.103  0.00  0.00    +0.000 A 
ATOM     10  C   UNL     1       0.908   2.212  18.894  0.00  0.00    +0.000 A 
ATOM     11  C   UNL     1       1.833   2.434  17.876  0.00  0.00    +0.000 A 
ATOM     12  C   UNL     1       2.870   3.338  18.078  0.00  0.00    +0.000 A 
ATOM     13  F   UNL     1       3.736   3.510  17.067  0.00  0.00    +0.000 F 
ENDBRANCH   4   7
ENDBRANCH   1   5
BRANCH   1  14
ATOM     14  S   UNL     1       7.633   5.537  18.549  0.00  0.00    +0.000 S 
ATOM     15  O   UNL     1       8.168   6.880  18.636  0.00  0.00    +0.000 OA
ATOM     16  O   UNL     1       8.539   4.393  18.569  0.00  0.00    +0.000 OA
BRANCH  14  17
ATOM     17  C   UNL     1       6.645   5.436  17.083  0.00  0.00    +0.000 A 
ATOM     18  C   UNL     1       5.823   6.513  16.724  0.00  0.00    +0.000 A 
ATOM     19  C   UNL     1       5.182   6.513  15.482  0.00  0.00    +0.000 A 
ATOM     20  C   UNL     1       5.370   5.448  14.601  0.00  0.00    +0.000 A 
ATOM     21  C   UNL     1       6.193   4.388  14.970  0.00  0.00    +0.000 A 
ATOM     22  F   UNL     1       6.394   3.382  14.108  0.00  0.00    +0.000 F 
ATOM     23  C   UNL     1       6.833   4.367  16.204  0.00  0.00    +0.000 A 
ENDBRANCH  14  17
ENDBRANCH   1  14
TORSDOF 4
ENDMDL
MODEL 4
REMARK VINA RESULT:      -8.2      1.264      1.310
REMARK  Name = 
REMARK  4 active torsions:
REMARK  status: ('A' for Active; 'I' for Inactive)
REMARK    1  A    between atoms: C_2  and  C_15
REMARK    2  A    between atoms: N_3  and  N_4
REMARK    3  A    between atoms: N_4  and  S_5
REMARK    4  A    between atoms: S_5  and  C_8
REMARK                            x       y       z     vdW  Elec       q    Type
REMARK                         _______ _______ _______ _____ _____    ______ ____
ROOT
ATOM      1  N   UNL     1       5.542   3.245  16.516  0.00  0.00    +0.000 NA
ATOM      2  H   UNL     1       5.317   2.555  15.794  0.00  0.00    +0.000 HD
ENDROOT
BRANCH   1   5
ATOM      3  O   UNL     1       2.740   3.029  16.721  0.00  0.00    +0.000 OA
ATOM      4  C   UNL     1       3.401   3.155  17.749  0.00  0.00    +0.000 C 
ATOM      5  N   UNL     1       4.781   3.239  17.753  0.00  0.00    +0.000 N 
ATOM      6  H   UNL     1       5.301   3.451  18.606  0.00  0.00    +0.000 HD
BRANCH   4   7
ATOM      7  C   UNL     1       2.742   3.245  19.087  0.00  0.00    +0.000 A 
ATOM      8  C   UNL     1       1.574   4.006  19.248  0.00  0.00    +0.000 A 
ATOM      9  C   UNL     1       0.948   4.079  20.501  0.00  0.00    +0.000 A 
ATOM     10  C   UNL     1       1.481   3.400  21.596  0.00  0.00    +0.000 A 
ATOM     11  C   UNL     1       2.644   2.648  21.446  0.00  0.00    +0.000 A 
ATOM     12  C   UNL     1       3.262   2.584  20.202  0.00  0.00    +0.000 A 
ATOM     13  F   UNL     1       4.382   1.850  20.114  0.00  0.00    +0.000 F 
ENDBRANCH   4   7
ENDBRANCH   1   5
BRANCH   1  14
ATOM     14  S   UNL     1       6.349   4.679  16.141  0.00  0.00    +0.000 S 
ATOM     15  O   UNL     1       5.455   5.781  16.436  0.00  0.00    +0.000 OA
ATOM     16  O   UNL     1       7.659   4.619  16.781  0.00  0.00    +0.000 OA
BRANCH  14  17
ATOM     17  C   UNL     1       6.584   4.621  14.387  0.00  0.00    +0.000 A 
ATOM     18  C   UNL     1       7.586   5.402  13.794  0.00  0.00    +0.000 A 
ATOM     19  C   UNL     1       7.894   5.226  12.442  0.00  0.00    +0.000 A 
ATOM     20  C   UNL     1       7.212   4.268  11.691  0.00  0.00    +0.000 A 
ATOM     21  C   UNL     1       6.223   3.497  12.296  0.00  0.00    +0.000 A 
ATOM     22  F   UNL     1       5.593   2.558  11.578  0.00  0.00    +0.000 F 
ATOM     23  C   UNL     1       5.898   3.663  13.637  0.00  0.00    +0.000 A 
ENDBRANCH  14  17
ENDBRANCH   1  14
TORSDOF 4
ENDMDL
MODEL 5
REMARK VINA RESULT:      -8.2      1.572      1.776
REMARK  Name = 
REMARK  4 active torsions:
REMARK  status: ('A' for Active; 'I' for Inactive)
REMARK    1  A    between atoms: C_2  and  C_15
REMARK    2  A    between atoms: N_3  and  N_4
REMARK    3  A    between atoms: N_4  and  S_5
REMARK    4  A    between atoms: S_5  and  C_8
REMARK                            x       y       z     vdW  Elec       q    Type
REMARK                         _______ _______ _______ _____ _____    ______ ____
ROOT
ATOM      1  N   UNL     1       5.040   5.935  16.400  0.00  0.00    +0.000 NA
ATOM      2  H   UNL     1       4.799   6.912  16.214  0.00  0.00    +0.000 HD
ENDROOT
BRANCH   1   5
ATOM      3  O   UNL     1       3.046   6.982  18.092  0.00  0.00    +0.000 OA
ATOM      4  C   UNL     1       3.263   5.774  18.109  0.00  0.00    +0.000 C 
ATOM      5  N   UNL     1       4.199   5.163  17.296  0.00  0.00    +0.000 N 
ATOM      6  H   UNL     1       4.437   4.175  17.403  0.00  0.00    +0.000 HD
BRANCH   4   7
ATOM      7  C   UNL     1       2.526   4.868  19.043  0.00  0.00    +0.000 A 
ATOM      8  C   UNL     1       2.832   4.868  20.413  0.00  0.00    +0.000 A 
ATOM      9  C   UNL     1       2.130   4.030  21.291  0.00  0.00    +0.000 A 
ATOM     10  C   UNL     1       1.127   3.187  20.812  0.00  0.00    +0.000 A 
ATOM     11  C   UNL     1       0.823   3.177  19.452  0.00  0.00    +0.000 A 
ATOM     12  C   UNL     1       1.526   4.008  18.587  0.00  0.00    +0.000 A 
ATOM     13  F   UNL     1       1.197   3.954  17.287  0.00  0.00    +0.000 F 
ENDBRANCH   4   7
ENDBRANCH   1   5
BRANCH   1  14
ATOM     14  S   UNL     1       6.607   5.355  16.159  0.00  0.00    +0.000 S 
ATOM     15  O   UNL     1       7.526   6.451  16.390  0.00  0.00    +0.000 OA
ATOM     16  O   UNL     1       6.737   4.125  16.934  0.00  0.00    +0.000 OA
BRANCH  14  17
ATOM     17  C   UNL     1       6.676   4.937  14.439  0.00  0.00    +0.000 A 
ATOM     18  C   UNL     1       7.686   5.479  13.633  0.00  0.00    +0.000 A 
ATOM     19  C   UNL     1       7.853   5.015  12.325  0.00  0.00    +0.000 A 
ATOM     20  C   UNL     1       7.022   4.011  11.830  0.00  0.00    +0.000 A 
ATOM     21  C   UNL     1       6.025   3.480  12.645  0.00  0.00    +0.000 A 
ATOM     22  F   UNL     1       5.249   2.494  12.175  0.00  0.00    +0.000 F 
ATOM     23  C   UNL     1       5.840   3.933  13.945  0.00  0.00    +0.000 A 
ENDBRANCH  14  17
ENDBRANCH   1  14
TORSDOF 4
ENDMDL
MODEL 6
REMARK VINA RESULT:      -8.2      2.480      3.028
REMARK  Name = 
REMARK  4 active torsions:
REMARK  status: ('A' for Active; 'I' for Inactive)
REMARK    1  A    between atoms: C_2  and  C_15
REMARK    2  A    between atoms: N_3  and  N_4
REMARK    3  A    between atoms: N_4  and  S_5
REMARK    4  A    between atoms: S_5  and  C_8
REMARK                            x       y       z     vdW  Elec       q    Type
REMARK                         _______ _______ _______ _____ _____    ______ ____
ROOT
ATOM      1  N   UNL     1       6.533   5.308  19.844  0.00  0.00    +0.000 NA
ATOM      2  H   UNL     1       6.811   5.443  20.819  0.00  0.00    +0.000 HD
ENDROOT
BRANCH   1   5
ATOM      3  O   UNL     1       3.889   6.239  19.557  0.00  0.00    +0.000 OA
ATOM      4  C   UNL     1       4.107   5.035  19.457  0.00  0.00    +0.000 C 
ATOM      5  N   UNL     1       5.373   4.486  19.553  0.00  0.00    +0.000 N 
ATOM      6  H   UNL     1       5.517   3.474  19.574  0.00  0.00    +0.000 HD
BRANCH   4   7
ATOM      7  C   UNL     1       2.994   4.062  19.238  0.00  0.00    +0.000 A 
ATOM      8  C   UNL     1       2.990   3.240  18.100  0.00  0.00    +0.000 A 
ATOM      9  C   UNL     1       1.953   2.316  17.902  0.00  0.00    +0.000 A 
ATOM     10  C   UNL     1       0.917   2.209  18.831  0.00  0.00    +0.000 A 
ATOM     11  C   UNL     1       0.911   3.027  19.959  0.00  0.00    +0.000 A 
ATOM     12  C   UNL     1       1.940   3.943  20.146  0.00  0.00    +0.000 A 
ATOM     13  F   UNL     1       1.883   4.709  21.246  0.00  0.00    +0.000 F 
ENDBRANCH   4   7
ENDBRANCH   1   5
BRANCH   1  14
ATOM     14  S   UNL     1       7.628   5.531  18.579  0.00  0.00    +0.000 S 
ATOM     15  O   UNL     1       8.152   6.878  18.678  0.00  0.00    +0.000 OA
ATOM     16  O   UNL     1       8.544   4.395  18.594  0.00  0.00    +0.000 OA
BRANCH  14  17
ATOM     17  C   UNL     1       6.647   5.433  17.108  0.00  0.00    +0.000 A 
ATOM     18  C   UNL     1       5.839   6.517  16.740  0.00  0.00    +0.000 A 
ATOM     19  C   UNL     1       5.204   6.517  15.494  0.00  0.00    +0.000 A 
ATOM     20  C   UNL     1       5.386   5.446  14.619  0.00  0.00    +0.000 A 
ATOM     21  C   UNL     1       6.195   4.379  14.999  0.00  0.00    +0.000 A 
ATOM     22  F   UNL     1       6.390   3.367  14.143  0.00  0.00    +0.000 F 
ATOM     23  C   UNL     1       6.828   4.358  16.236  0.00  0.00    +0.000 A 
ENDBRANCH  14  17
ENDBRANCH   1  14
TORSDOF 4
ENDMDL
MODEL 7
REMARK VINA RESULT:      -8.1      1.385      1.560
REMARK  Name = 
REMARK  4 active torsions:
REMARK  status: ('A' for Active; 'I' for Inactive)
REMARK    1  A    between atoms: C_2  and  C_15
REMARK    2  A    between atoms: N_3  and  N_4
REMARK    3  A    between atoms: N_4  and  S_5
REMARK    4  A    between atoms: S_5  and  C_8
REMARK                            x       y       z     vdW  Elec       q    Type
REMARK                         _______ _______ _______ _____ _____    ______ ____
ROOT
ATOM      1  N   UNL     1       5.042   5.847  16.516  0.00  0.00    +0.000 NA
ATOM      2  H   UNL     1       4.657   6.691  16.083  0.00  0.00    +0.000 HD
ENDROOT
BRANCH   1   5
ATOM      3  O   UNL     1       3.292   3.640  16.597  0.00  0.00    +0.000 OA
ATOM      4  C   UNL     1       3.537   4.241  17.640  0.00  0.00    +0.000 C 
ATOM      5  N   UNL     1       4.404   5.316  17.706  0.00  0.00    +0.000 N 
ATOM      6  H   UNL     1       4.510   5.866  18.561  0.00  0.00    +0.000 HD
BRANCH   4   7
ATOM      7  C   UNL     1       2.886   3.854  18.928  0.00  0.00    +0.000 A 
ATOM      8  C   UNL     1       1.570   4.255  19.202  0.00  0.00    +0.000 A 
ATOM      9  C   UNL     1       0.953   3.878  20.404  0.00  0.00    +0.000 A 
ATOM     10  C   UNL     1       1.644   3.106  21.339  0.00  0.00    +0.000 A 
ATOM     11  C   UNL     1       2.953   2.709  21.077  0.00  0.00    +0.000 A 
ATOM     12  C   UNL     1       3.559   3.090  19.885  0.00  0.00    +0.000 A 
ATOM     13  F   UNL     1       4.823   2.686  19.685  0.00  0.00    +0.000 F 
ENDBRANCH   4   7
ENDBRANCH   1   5
BRANCH   1  14
ATOM     14  S   UNL     1       6.640   5.373  16.249  0.00  0.00    +0.000 S 
ATOM     15  O   UNL     1       7.488   6.527  16.468  0.00  0.00    +0.000 OA
ATOM     16  O   UNL     1       6.864   4.153  17.018  0.00  0.00    +0.000 OA
BRANCH  14  17
ATOM     17  C   UNL     1       6.709   4.964  14.527  0.00  0.00    +0.000 A 
ATOM     18  C   UNL     1       7.707   5.526  13.719  0.00  0.00    +0.000 A 
ATOM     19  C   UNL     1       7.876   5.071  12.408  0.00  0.00    +0.000 A 
ATOM     20  C   UNL     1       7.060   4.054  11.913  0.00  0.00    +0.000 A 
ATOM     21  C   UNL     1       6.077   3.503  12.729  0.00  0.00    +0.000 A 
ATOM     22  F   UNL     1       5.317   2.505  12.258  0.00  0.00    +0.000 F 
ATOM     23  C   UNL     1       5.889   3.947  14.033  0.00  0.00    +0.000 A 
ENDBRANCH  14  17
ENDBRANCH   1  14
TORSDOF 4
ENDMDL
MODEL 8
REMARK VINA RESULT:      -8.0      2.647      3.148
REMARK  Name = 
REMARK  4 active torsions:
REMARK  status: ('A' for Active; 'I' for Inactive)
REMARK    1  A    between atoms: C_2  and  C_15
REMARK    2  A    between atoms: N_3  and  N_4
REMARK    3  A    between atoms: N_4  and  S_5
REMARK    4  A    between atoms: S_5  and  C_8
REMARK                            x       y       z     vdW  Elec       q    Type
REMARK                         _______ _______ _______ _____ _____    ______ ____
ROOT
ATOM      1  N   UNL     1       6.345   5.804  19.696  0.00  0.00    +0.000 NA
ATOM      2  H   UNL     1       6.436   6.193  20.638  0.00  0.00    +0.000 HD
ENDROOT
BRANCH   1   5
ATOM      3  O   UNL     1       3.625   6.451  19.345  0.00  0.00    +0.000 OA
ATOM      4  C   UNL     1       3.965   5.271  19.297  0.00  0.00    +0.000 C 
ATOM      5  N   UNL     1       5.278   4.858  19.428  0.00  0.00    +0.000 N 
ATOM      6  H   UNL     1       5.523   3.868  19.491  0.00  0.00    +0.000 HD
BRANCH   4   7
ATOM      7  C   UNL     1       2.959   4.183  19.107  0.00  0.00    +0.000 A 
ATOM      8  C   UNL     1       1.887   4.050  20.003  0.00  0.00    +0.000 A 
ATOM      9  C   UNL     1       0.934   3.038  19.817  0.00  0.00    +0.000 A 
ATOM     10  C   UNL     1       1.044   2.155  18.742  0.00  0.00    +0.000 A 
ATOM     11  C   UNL     1       2.109   2.277  17.853  0.00  0.00    +0.000 A 
ATOM     12  C   UNL     1       3.052   3.279  18.046  0.00  0.00    +0.000 A 
ATOM     13  F   UNL     1       4.061   3.349  17.163  0.00  0.00    +0.000 F 
ENDBRANCH   4   7
ENDBRANCH   1   5
BRANCH   1  14
ATOM     14  S   UNL     1       7.649   5.785  18.624  0.00  0.00    +0.000 S 
ATOM     15  O   UNL     1       8.282   7.087  18.672  0.00  0.00    +0.000 OA
ATOM     16  O   UNL     1       8.431   4.587  18.915  0.00  0.00    +0.000 OA
BRANCH  14  17
ATOM     17  C   UNL     1       6.916   5.593  17.024  0.00  0.00    +0.000 A 
ATOM     18  C   UNL     1       7.074   4.387  16.327  0.00  0.00    +0.000 A 
ATOM     19  C   UNL     1       6.352   4.165  15.151  0.00  0.00    +0.000 A 
ATOM     20  C   UNL     1       5.471   5.138  14.680  0.00  0.00    +0.000 A 
ATOM     21  C   UNL     1       5.322   6.329  15.385  0.00  0.00    +0.000 A 
ATOM     22  F   UNL     1       4.451   7.247  14.945  0.00  0.00    +0.000 F 
ATOM     23  C   UNL     1       6.036   6.570  16.553  0.00  0.00    +0.000 A 
ENDBRANCH  14  17
ENDBRANCH   1  14
TORSDOF 4
ENDMDL
MODEL 9
REMARK VINA RESULT:      -7.9      1.713      2.106
REMARK  Name = 
REMARK  4 active torsions:
REMARK  status: ('A' for Active; 'I' for Inactive)
REMARK    1  A    between atoms: C_2  and  C_15
REMARK    2  A    between atoms: N_3  and  N_4
REMARK    3  A    between atoms: N_4  and  S_5
REMARK    4  A    between atoms: S_5  and  C_8
REMARK                            x       y       z     vdW  Elec       q    Type
REMARK                         _______ _______ _______ _____ _____    ______ ____
ROOT
ATOM      1  N   UNL     1       6.538   4.145  17.494  0.00  0.00    +0.000 NA
ATOM      2  H   UNL     1       7.084   3.323  17.223  0.00  0.00    +0.000 HD
ENDROOT
BRANCH   1   5
ATOM      3  O   UNL     1       4.109   2.772  17.103  0.00  0.00    +0.000 OA
ATOM      4  C   UNL     1       4.312   3.321  18.183  0.00  0.00    +0.000 C 
ATOM      5  N   UNL     1       5.483   3.993  18.479  0.00  0.00    +0.000 N 
ATOM      6  H   UNL     1       5.588   4.532  19.341  0.00  0.00    +0.000 HD
BRANCH   4   7
ATOM      7  C   UNL     1       3.278   3.314  19.261  0.00  0.00    +0.000 A 
ATOM      8  C   UNL     1       3.517   2.629  20.463  0.00  0.00    +0.000 A 
ATOM      9  C   UNL     1       2.553   2.636  21.481  0.00  0.00    +0.000 A 
ATOM     10  C   UNL     1       1.349   3.318  21.308  0.00  0.00    +0.000 A 
ATOM     11  C   UNL     1       1.102   3.995  20.116  0.00  0.00    +0.000 A 
ATOM     12  C   UNL     1       2.060   3.981  19.109  0.00  0.00    +0.000 A 
ATOM     13  F   UNL     1       1.769   4.643  17.979  0.00  0.00    +0.000 F 
ENDBRANCH   4   7
ENDBRANCH   1   5
BRANCH   1  14
ATOM     14  S   UNL     1       6.439   5.502  16.494  0.00  0.00    +0.000 S 
ATOM     15  O   UNL     1       5.088   6.017  16.579  0.00  0.00    +0.000 OA
ATOM     16  O   UNL     1       7.566   6.368  16.827  0.00  0.00    +0.000 OA
BRANCH  14  17
ATOM     17  C   UNL     1       6.685   4.877  14.856  0.00  0.00    +0.000 A 
ATOM     18  C   UNL     1       5.916   3.796  14.403  0.00  0.00    +0.000 A 
ATOM     19  C   UNL     1       5.978   3.416  13.059  0.00  0.00    +0.000 A 
ATOM     20  C   UNL     1       6.795   4.118  12.173  0.00  0.00    +0.000 A 
ATOM     21  C   UNL     1       7.549   5.192  12.638  0.00  0.00    +0.000 A 
ATOM     22  F   UNL     1       8.308   5.882  11.776  0.00  0.00    +0.000 F 
ATOM     23  C   UNL     1       7.505   5.580  13.972  0.00  0.00    +0.000 A 
ENDBRANCH  14  17
ENDBRANCH   1  14
TORSDOF 4
ENDMDL
