MODEL 1
REMARK VINA RESULT:      -7.5      0.000      0.000
REMARK  Name = 
REMARK  8 active torsions:
REMARK  status: ('A' for Active; 'I' for Inactive)
REMARK    1  A    between atoms: C_1  and  O_2
REMARK    2  A    between atoms: O_2  and  C_3
REMARK    3  A    between atoms: C_6  and  C_7
REMARK    4  A    between atoms: C_7  and  C_8
REMARK    5  A    between atoms: C_8  and  N_9
REMARK    6  A    between atoms: N_12  and  C_13
REMARK    7  A    between atoms: C_23  and  O_24
REMARK    8  A    between atoms: O_24  and  C_25
REMARK                            x       y       z     vdW  Elec       q    Type
REMARK                         _______ _______ _______ _____ _____    ______ ____
ROOT
ATOM      1  N   UNL     1       1.367   9.805  17.749  0.00  0.00    +0.000 N 
ATOM      2  C   UNL     1       0.261  10.021  18.547  0.00  0.00    +0.000 C 
ATOM      3  O   UNL     1       0.203   9.690  19.726  0.00  0.00    +0.000 OA
ATOM      4  N   UNL     1      -0.758  10.581  17.833  0.00  0.00    +0.000 N 
ATOM      5  H   UNL     1       1.559  10.555  17.118  0.00  0.00    +0.000 HD
ATOM      6  H   UNL     1      -0.772  10.301  16.864  0.00  0.00    +0.000 HD
ENDROOT
BRANCH   4   7
ATOM      7  C   UNL     1      -1.984  10.948  18.401  0.00  0.00    +0.000 A 
ATOM      8  C   UNL     1      -2.060  11.872  19.468  0.00  0.00    +0.000 A 
ATOM      9  C   UNL     1      -3.279  12.479  19.792  0.00  0.00    +0.000 A 
ATOM     10  C   UNL     1      -4.370  12.120  19.032  0.00  0.00    +0.000 A 
ATOM     11  C   UNL     1      -4.307  11.113  18.091  0.00  0.00    +0.000 A 
ATOM     12  C   UNL     1      -3.131  10.506  17.750  0.00  0.00    +0.000 A 
ATOM     13  O   UNL     1      -5.479  10.969  17.411  0.00  0.00    +0.000 OA
ATOM     14  C   UNL     1      -6.013  12.275  17.684  0.00  0.00    +0.000 C 
ATOM     15  O   UNL     1      -5.564  12.780  18.962  0.00  0.00    +0.000 OA
ENDBRANCH   4   7
BRANCH   1  16
ATOM     16  C   UNL     1       2.495   9.118  18.359  0.00  0.00    +0.000 C 
BRANCH  16  17
ATOM     17  C   UNL     1       2.859   7.813  17.672  0.00  0.00    +0.000 C 
BRANCH  17  21
ATOM     18  C   UNL     1       1.486   4.391  19.956  0.00  0.00    +0.000 A 
ATOM     19  C   UNL     1       1.782   5.613  20.581  0.00  0.00    +0.000 A 
ATOM     20  C   UNL     1       2.198   6.721  19.847  0.00  0.00    +0.000 A 
ATOM     21  C   UNL     1       2.421   6.613  18.476  0.00  0.00    +0.000 A 
ATOM     22  C   UNL     1       2.211   5.370  17.866  0.00  0.00    +0.000 A 
ATOM     23  C   UNL     1       1.748   4.252  18.585  0.00  0.00    +0.000 A 
BRANCH  18  25
ATOM     24  C   UNL     1       1.820   2.806  21.676  0.00  0.00    +0.000 C 
ATOM     25  O   UNL     1       0.952   3.355  20.678  0.00  0.00    +0.000 OA
ENDBRANCH  18  25
BRANCH  23  26
ATOM     26  O   UNL     1       1.596   3.165  17.769  0.00  0.00    +0.000 OA
ATOM     27  C   UNL     1       2.591   2.155  17.739  0.00  0.00    +0.000 C 
ENDBRANCH  23  26
ENDBRANCH  17  21
ENDBRANCH  16  17
ENDBRANCH   1  16
TORSDOF 6
ENDMDL
MODEL 2
REMARK VINA RESULT:      -7.3      6.119      9.506
REMARK  Name = 
REMARK  8 active torsions:
REMARK  status: ('A' for Active; 'I' for Inactive)
REMARK    1  A    between atoms: C_1  and  O_2
REMARK    2  A    between atoms: O_2  and  C_3
REMARK    3  A    between atoms: C_6  and  C_7
REMARK    4  A    between atoms: C_7  and  C_8
REMARK    5  A    between atoms: C_8  and  N_9
REMARK    6  A    between atoms: N_12  and  C_13
REMARK    7  A    between atoms: C_23  and  O_24
REMARK    8  A    between atoms: O_24  and  C_25
REMARK                            x       y       z     vdW  Elec       q    Type
REMARK                         _______ _______ _______ _____ _____    ______ ____
ROOT
ATOM      1  N   UNL     1       7.118   7.926  16.989  0.00  0.00    +0.000 N 
ATOM      2  C   UNL     1       8.068   8.390  17.878  0.00  0.00    +0.000 C 
ATOM      3  O   UNL     1       8.592   7.686  18.735  0.00  0.00    +0.000 OA
ATOM      4  N   UNL     1       8.283   9.727  17.715  0.00  0.00    +0.000 N 
ATOM      5  H   UNL     1       7.214   8.304  16.069  0.00  0.00    +0.000 HD
ATOM      6  H   UNL     1       7.466  10.231  17.404  0.00  0.00    +0.000 HD
ENDROOT
BRANCH   4   7
ATOM      7  C   UNL     1       9.226  10.451  18.455  0.00  0.00    +0.000 A 
ATOM      8  C   UNL     1      10.276  11.159  17.826  0.00  0.00    +0.000 A 
ATOM      9  C   UNL     1      10.990  12.136  18.531  0.00  0.00    +0.000 A 
ATOM     10  C   UNL     1      10.621  12.347  19.840  0.00  0.00    +0.000 A 
ATOM     11  C   UNL     1       9.694  11.550  20.478  0.00  0.00    +0.000 A 
ATOM     12  C   UNL     1       8.977  10.592  19.816  0.00  0.00    +0.000 A 
ATOM     13  O   UNL     1       9.430  11.977  21.745  0.00  0.00    +0.000 OA
ATOM     14  C   UNL     1       9.885  13.330  21.583  0.00  0.00    +0.000 C 
ATOM     15  O   UNL     1      10.956  13.422  20.614  0.00  0.00    +0.000 OA
ENDBRANCH   4   7
BRANCH   1  16
ATOM     16  C   UNL     1       6.717   6.535  17.120  0.00  0.00    +0.000 C 
BRANCH  16  17
ATOM     17  C   UNL     1       5.508   6.165  16.278  0.00  0.00    +0.000 C 
BRANCH  17  21
ATOM     18  C   UNL     1       2.637   3.947  18.655  0.00  0.00    +0.000 A 
ATOM     19  C   UNL     1       3.355   3.331  17.618  0.00  0.00    +0.000 A 
ATOM     20  C   UNL     1       4.297   4.034  16.870  0.00  0.00    +0.000 A 
ATOM     21  C   UNL     1       4.481   5.399  17.076  0.00  0.00    +0.000 A 
ATOM     22  C   UNL     1       3.701   6.034  18.050  0.00  0.00    +0.000 A 
ATOM     23  C   UNL     1       2.777   5.330  18.846  0.00  0.00    +0.000 A 
BRANCH  18  25
ATOM     24  C   UNL     1       0.859   2.397  18.771  0.00  0.00    +0.000 C 
ATOM     25  O   UNL     1       1.815   3.206  19.464  0.00  0.00    +0.000 OA
ENDBRANCH  18  25
BRANCH  23  26
ATOM     26  O   UNL     1       2.158   6.159  19.741  0.00  0.00    +0.000 OA
ATOM     27  C   UNL     1       2.183   7.562  19.543  0.00  0.00    +0.000 C 
ENDBRANCH  23  26
ENDBRANCH  17  21
ENDBRANCH  16  17
ENDBRANCH   1  16
TORSDOF 6
ENDMDL
MODEL 3
REMARK VINA RESULT:      -7.3      6.584      9.893
REMARK  Name = 
REMARK  8 active torsions:
REMARK  status: ('A' for Active; 'I' for Inactive)
REMARK    1  A    between atoms: C_1  and  O_2
REMARK    2  A    between atoms: O_2  and  C_3
REMARK    3  A    between atoms: C_6  and  C_7
REMARK    4  A    between atoms: C_7  and  C_8
REMARK    5  A    between atoms: C_8  and  N_9
REMARK    6  A    between atoms: N_12  and  C_13
REMARK    7  A    between atoms: C_23  and  O_24
REMARK    8  A    between atoms: O_24  and  C_25
REMARK                            x       y       z     vdW  Elec       q    Type
REMARK                         _______ _______ _______ _____ _____    ______ ____
ROOT
ATOM      1  N   UNL     1       7.944   7.258  18.167  0.00  0.00    +0.000 N 
ATOM      2  C   UNL     1       8.144   8.625  18.134  0.00  0.00    +0.000 C 
ATOM      3  O   UNL     1       7.629   9.363  17.302  0.00  0.00    +0.000 OA
ATOM      4  N   UNL     1       9.032   9.015  19.094  0.00  0.00    +0.000 N 
ATOM      5  H   UNL     1       7.868   6.888  19.092  0.00  0.00    +0.000 HD
ATOM      6  H   UNL     1       9.731   8.318  19.303  0.00  0.00    +0.000 HD
ENDROOT
BRANCH   4   7
ATOM      7  C   UNL     1       9.388  10.351  19.316  0.00  0.00    +0.000 A 
ATOM      8  C   UNL     1       9.304  10.937  20.599  0.00  0.00    +0.000 A 
ATOM      9  C   UNL     1       9.971  12.137  20.873  0.00  0.00    +0.000 A 
ATOM     10  C   UNL     1      10.683  12.699  19.837  0.00  0.00    +0.000 A 
ATOM     11  C   UNL     1      10.637  12.190  18.556  0.00  0.00    +0.000 A 
ATOM     12  C   UNL     1       9.999  11.018  18.259  0.00  0.00    +0.000 A 
ATOM     13  O   UNL     1      11.466  12.857  17.705  0.00  0.00    +0.000 OA
ATOM     14  C   UNL     1      12.333  13.425  18.700  0.00  0.00    +0.000 C 
ATOM     15  O   UNL     1      11.632  13.676  19.940  0.00  0.00    +0.000 OA
ENDBRANCH   4   7
BRANCH   1  16
ATOM     16  C   UNL     1       7.096   6.692  17.130  0.00  0.00    +0.000 C 
BRANCH  16  17
ATOM     17  C   UNL     1       6.835   5.205  17.300  0.00  0.00    +0.000 C 
BRANCH  17  21
ATOM     18  C   UNL     1       2.610   4.293  17.662  0.00  0.00    +0.000 A 
ATOM     19  C   UNL     1       3.501   3.392  17.056  0.00  0.00    +0.000 A 
ATOM     20  C   UNL     1       4.862   3.671  16.962  0.00  0.00    +0.000 A 
ATOM     21  C   UNL     1       5.359   4.901  17.387  0.00  0.00    +0.000 A 
ATOM     22  C   UNL     1       4.457   5.835  17.910  0.00  0.00    +0.000 A 
ATOM     23  C   UNL     1       3.085   5.552  18.054  0.00  0.00    +0.000 A 
BRANCH  18  25
ATOM     24  C   UNL     1       1.100   2.885  18.810  0.00  0.00    +0.000 C 
ATOM     25  O   UNL     1       1.300   3.942  17.864  0.00  0.00    +0.000 OA
ENDBRANCH  18  25
BRANCH  23  26
ATOM     26  O   UNL     1       2.416   6.608  18.612  0.00  0.00    +0.000 OA
ATOM     27  C   UNL     1       2.212   6.659  20.013  0.00  0.00    +0.000 C 
ENDBRANCH  23  26
ENDBRANCH  17  21
ENDBRANCH  16  17
ENDBRANCH   1  16
TORSDOF 6
ENDMDL
MODEL 4
REMARK VINA RESULT:      -7.3      6.320      9.647
REMARK  Name = 
REMARK  8 active torsions:
REMARK  status: ('A' for Active; 'I' for Inactive)
REMARK    1  A    between atoms: C_1  and  O_2
REMARK    2  A    between atoms: O_2  and  C_3
REMARK    3  A    between atoms: C_6  and  C_7
REMARK    4  A    between atoms: C_7  and  C_8
REMARK    5  A    between atoms: C_8  and  N_9
REMARK    6  A    between atoms: N_12  and  C_13
REMARK    7  A    between atoms: C_23  and  O_24
REMARK    8  A    between atoms: O_24  and  C_25
REMARK                            x       y       z     vdW  Elec       q    Type
REMARK                         _______ _______ _______ _____ _____    ______ ____
ROOT
ATOM      1  N   UNL     1       7.374   7.703  16.883  0.00  0.00    +0.000 N 
ATOM      2  C   UNL     1       8.069   8.394  17.857  0.00  0.00    +0.000 C 
ATOM      3  O   UNL     1       8.541   7.861  18.855  0.00  0.00    +0.000 OA
ATOM      4  N   UNL     1       8.094   9.731  17.588  0.00  0.00    +0.000 N 
ATOM      5  H   UNL     1       7.566   8.019  15.955  0.00  0.00    +0.000 HD
ATOM      6  H   UNL     1       7.274  10.059  17.100  0.00  0.00    +0.000 HD
ENDROOT
BRANCH   4   7
ATOM      7  C   UNL     1       8.767  10.664  18.387  0.00  0.00    +0.000 A 
ATOM      8  C   UNL     1       9.361  10.295  19.616  0.00  0.00    +0.000 A 
ATOM      9  C   UNL     1      10.303  11.133  20.224  0.00  0.00    +0.000 A 
ATOM     10  C   UNL     1      10.596  12.309  19.573  0.00  0.00    +0.000 A 
ATOM     11  C   UNL     1       9.905  12.718  18.452  0.00  0.00    +0.000 A 
ATOM     12  C   UNL     1       8.983  11.920  17.832  0.00  0.00    +0.000 A 
ATOM     13  O   UNL     1      10.402  13.875  17.931  0.00  0.00    +0.000 OA
ATOM     14  C   UNL     1      11.705  13.802  18.531  0.00  0.00    +0.000 C 
ATOM     15  O   UNL     1      11.670  13.121  19.806  0.00  0.00    +0.000 OA
ENDBRANCH   4   7
BRANCH   1  16
ATOM     16  C   UNL     1       7.183   6.278  17.096  0.00  0.00    +0.000 C 
BRANCH  16  17
ATOM     17  C   UNL     1       6.213   5.638  16.116  0.00  0.00    +0.000 C 
BRANCH  17  21
ATOM     18  C   UNL     1       2.524   4.556  18.124  0.00  0.00    +0.000 A 
ATOM     19  C   UNL     1       3.285   3.599  17.432  0.00  0.00    +0.000 A 
ATOM     20  C   UNL     1       4.484   3.938  16.810  0.00  0.00    +0.000 A 
ATOM     21  C   UNL     1       4.909   5.265  16.779  0.00  0.00    +0.000 A 
ATOM     22  C   UNL     1       4.105   6.233  17.392  0.00  0.00    +0.000 A 
ATOM     23  C   UNL     1       2.914   5.901  18.065  0.00  0.00    +0.000 A 
BRANCH  18  25
ATOM     24  C   UNL     1       1.078   2.789  18.730  0.00  0.00    +0.000 C 
ATOM     25  O   UNL     1       1.420   4.175  18.842  0.00  0.00    +0.000 OA
ENDBRANCH  18  25
BRANCH  23  26
ATOM     26  O   UNL     1       2.322   7.011  18.602  0.00  0.00    +0.000 OA
ATOM     27  C   UNL     1       2.457   8.269  17.963  0.00  0.00    +0.000 C 
ENDBRANCH  23  26
ENDBRANCH  17  21
ENDBRANCH  16  17
ENDBRANCH   1  16
TORSDOF 6
ENDMDL
MODEL 5
REMARK VINA RESULT:      -7.3      2.740      9.262
REMARK  Name = 
REMARK  8 active torsions:
REMARK  status: ('A' for Active; 'I' for Inactive)
REMARK    1  A    between atoms: C_1  and  O_2
REMARK    2  A    between atoms: O_2  and  C_3
REMARK    3  A    between atoms: C_6  and  C_7
REMARK    4  A    between atoms: C_7  and  C_8
REMARK    5  A    between atoms: C_8  and  N_9
REMARK    6  A    between atoms: N_12  and  C_13
REMARK    7  A    between atoms: C_23  and  O_24
REMARK    8  A    between atoms: O_24  and  C_25
REMARK                            x       y       z     vdW  Elec       q    Type
REMARK                         _______ _______ _______ _____ _____    ______ ____
ROOT
ATOM      1  N   UNL     1       1.550   9.252  18.300  0.00  0.00    +0.000 N 
ATOM      2  C   UNL     1       2.303   8.118  18.536  0.00  0.00    +0.000 C 
ATOM      3  O   UNL     1       2.265   7.490  19.588  0.00  0.00    +0.000 OA
ATOM      4  N   UNL     1       3.126   7.845  17.482  0.00  0.00    +0.000 N 
ATOM      5  H   UNL     1       1.197   9.310  17.367  0.00  0.00    +0.000 HD
ATOM      6  H   UNL     1       3.434   8.669  16.989  0.00  0.00    +0.000 HD
ENDROOT
BRANCH   4   7
ATOM      7  C   UNL     1       3.969   6.729  17.434  0.00  0.00    +0.000 A 
ATOM      8  C   UNL     1       3.468   5.415  17.580  0.00  0.00    +0.000 A 
ATOM      9  C   UNL     1       4.246   4.316  17.195  0.00  0.00    +0.000 A 
ATOM     10  C   UNL     1       5.497   4.590  16.691  0.00  0.00    +0.000 A 
ATOM     11  C   UNL     1       6.023   5.865  16.689  0.00  0.00    +0.000 A 
ATOM     12  C   UNL     1       5.288   6.958  17.054  0.00  0.00    +0.000 A 
ATOM     13  O   UNL     1       7.243   5.919  16.086  0.00  0.00    +0.000 OA
ATOM     14  C   UNL     1       7.125   4.709  15.320  0.00  0.00    +0.000 C 
ATOM     15  O   UNL     1       6.296   3.731  15.990  0.00  0.00    +0.000 OA
ENDBRANCH   4   7
BRANCH   1  16
ATOM     16  C   UNL     1       0.701   9.716  19.385  0.00  0.00    +0.000 C 
BRANCH  16  17
ATOM     17  C   UNL     1       0.152  11.117  19.173  0.00  0.00    +0.000 C 
BRANCH  17  21
ATOM     18  C   UNL     1      -3.915  11.133  17.666  0.00  0.00    +0.000 A 
ATOM     19  C   UNL     1      -3.571  11.818  18.844  0.00  0.00    +0.000 A 
ATOM     20  C   UNL     1      -2.261  11.836  19.316  0.00  0.00    +0.000 A 
ATOM     21  C   UNL     1      -1.273  11.092  18.675  0.00  0.00    +0.000 A 
ATOM     22  C   UNL     1      -1.633  10.338  17.552  0.00  0.00    +0.000 A 
ATOM     23  C   UNL     1      -2.943  10.344  17.035  0.00  0.00    +0.000 A 
BRANCH  18  25
ATOM     24  C   UNL     1      -5.853  12.466  17.450  0.00  0.00    +0.000 C 
ATOM     25  O   UNL     1      -5.180  11.239  17.148  0.00  0.00    +0.000 OA
ENDBRANCH  18  25
BRANCH  23  26
ATOM     26  O   UNL     1      -3.041   9.554  15.922  0.00  0.00    +0.000 OA
ATOM     27  C   UNL     1      -2.973  10.134  14.631  0.00  0.00    +0.000 C 
ENDBRANCH  23  26
ENDBRANCH  17  21
ENDBRANCH  16  17
ENDBRANCH   1  16
TORSDOF 6
ENDMDL
MODEL 6
REMARK VINA RESULT:      -7.3      3.411      9.617
REMARK  Name = 
REMARK  8 active torsions:
REMARK  status: ('A' for Active; 'I' for Inactive)
REMARK    1  A    between atoms: C_1  and  O_2
REMARK    2  A    between atoms: O_2  and  C_3
REMARK    3  A    between atoms: C_6  and  C_7
REMARK    4  A    between atoms: C_7  and  C_8
REMARK    5  A    between atoms: C_8  and  N_9
REMARK    6  A    between atoms: N_12  and  C_13
REMARK    7  A    between atoms: C_23  and  O_24
REMARK    8  A    between atoms: O_24  and  C_25
REMARK                            x       y       z     vdW  Elec       q    Type
REMARK                         _______ _______ _______ _____ _____    ______ ____
ROOT
ATOM      1  N   UNL     1       1.729   7.425  20.993  0.00  0.00    +0.000 N 
ATOM      2  C   UNL     1       2.354   6.872  19.892  0.00  0.00    +0.000 C 
ATOM      3  O   UNL     1       2.364   7.400  18.786  0.00  0.00    +0.000 OA
ATOM      4  N   UNL     1       2.886   5.652  20.190  0.00  0.00    +0.000 N 
ATOM      5  H   UNL     1       2.236   7.300  21.845  0.00  0.00    +0.000 HD
ATOM      6  H   UNL     1       2.367   5.147  20.892  0.00  0.00    +0.000 HD
ENDROOT
BRANCH   4   7
ATOM      7  C   UNL     1       3.614   4.885  19.272  0.00  0.00    +0.000 A 
ATOM      8  C   UNL     1       2.998   4.300  18.142  0.00  0.00    +0.000 A 
ATOM      9  C   UNL     1       3.776   3.837  17.074  0.00  0.00    +0.000 A 
ATOM     10  C   UNL     1       5.140   3.974  17.197  0.00  0.00    +0.000 A 
ATOM     11  C   UNL     1       5.729   4.414  18.364  0.00  0.00    +0.000 A 
ATOM     12  C   UNL     1       4.997   4.877  19.422  0.00  0.00    +0.000 A 
ATOM     13  O   UNL     1       7.080   4.538  18.245  0.00  0.00    +0.000 OA
ATOM     14  C   UNL     1       7.133   4.623  16.812  0.00  0.00    +0.000 C 
ATOM     15  O   UNL     1       6.060   3.878  16.192  0.00  0.00    +0.000 OA
ENDBRANCH   4   7
BRANCH   1  16
ATOM     16  C   UNL     1       1.030   8.684  20.790  0.00  0.00    +0.000 C 
BRANCH  16  17
ATOM     17  C   UNL     1       0.992   9.567  22.025  0.00  0.00    +0.000 C 
BRANCH  17  21
ATOM     18  C   UNL     1      -2.283  12.410  21.963  0.00  0.00    +0.000 A 
ATOM     19  C   UNL     1      -2.006  11.643  23.106  0.00  0.00    +0.000 A 
ATOM     20  C   UNL     1      -0.939  10.748  23.138  0.00  0.00    +0.000 A 
ATOM     21  C   UNL     1      -0.173  10.526  21.995  0.00  0.00    +0.000 A 
ATOM     22  C   UNL     1      -0.505  11.226  20.829  0.00  0.00    +0.000 A 
ATOM     23  C   UNL     1      -1.552  12.167  20.791  0.00  0.00    +0.000 A 
BRANCH  18  25
ATOM     24  C   UNL     1      -4.586  12.889  22.172  0.00  0.00    +0.000 C 
ATOM     25  O   UNL     1      -3.252  13.379  21.997  0.00  0.00    +0.000 OA
ENDBRANCH  18  25
BRANCH  23  26
ATOM     26  O   UNL     1      -1.664  12.736  19.552  0.00  0.00    +0.000 OA
ATOM     27  C   UNL     1      -0.564  13.427  18.986  0.00  0.00    +0.000 C 
ENDBRANCH  23  26
ENDBRANCH  17  21
ENDBRANCH  16  17
ENDBRANCH   1  16
TORSDOF 6
ENDMDL
MODEL 7
REMARK VINA RESULT:      -7.2      6.493      9.684
REMARK  Name = 
REMARK  8 active torsions:
REMARK  status: ('A' for Active; 'I' for Inactive)
REMARK    1  A    between atoms: C_1  and  O_2
REMARK    2  A    between atoms: O_2  and  C_3
REMARK    3  A    between atoms: C_6  and  C_7
REMARK    4  A    between atoms: C_7  and  C_8
REMARK    5  A    between atoms: C_8  and  N_9
REMARK    6  A    between atoms: N_12  and  C_13
REMARK    7  A    between atoms: C_23  and  O_24
REMARK    8  A    between atoms: O_24  and  C_25
REMARK                            x       y       z     vdW  Elec       q    Type
REMARK                         _______ _______ _______ _____ _____    ______ ____
ROOT
ATOM      1  N   UNL     1       7.285   8.038  17.062  0.00  0.00    +0.000 N 
ATOM      2  C   UNL     1       8.122   8.678  17.955  0.00  0.00    +0.000 C 
ATOM      3  O   UNL     1       8.748   8.094  18.832  0.00  0.00    +0.000 OA
ATOM      4  N   UNL     1       8.099  10.029  17.767  0.00  0.00    +0.000 N 
ATOM      5  H   UNL     1       7.328   8.410  16.136  0.00  0.00    +0.000 HD
ATOM      6  H   UNL     1       7.211  10.375  17.435  0.00  0.00    +0.000 HD
ENDROOT
BRANCH   4   7
ATOM      7  C   UNL     1       8.886  10.922  18.506  0.00  0.00    +0.000 A 
ATOM      8  C   UNL     1       9.358  10.599  19.799  0.00  0.00    +0.000 A 
ATOM      9  C   UNL     1      10.401  11.334  20.374  0.00  0.00    +0.000 A 
ATOM     10  C   UNL     1      10.915  12.369  19.625  0.00  0.00    +0.000 A 
ATOM     11  C   UNL     1      10.348  12.759  18.429  0.00  0.00    +0.000 A 
ATOM     12  C   UNL     1       9.332  12.059  17.840  0.00  0.00    +0.000 A 
ATOM     13  O   UNL     1      11.053  13.756  17.825  0.00  0.00    +0.000 OA
ATOM     14  C   UNL     1      12.300  13.539  18.504  0.00  0.00    +0.000 C 
ATOM     15  O   UNL     1      12.099  13.016  19.838  0.00  0.00    +0.000 OA
ENDBRANCH   4   7
BRANCH   1  16
ATOM     16  C   UNL     1       7.136   6.600  17.216  0.00  0.00    +0.000 C 
BRANCH  16  17
ATOM     17  C   UNL     1       6.032   6.005  16.357  0.00  0.00    +0.000 C 
BRANCH  17  21
ATOM     18  C   UNL     1       2.628   4.605  18.652  0.00  0.00    +0.000 A 
ATOM     19  C   UNL     1       2.712   5.936  18.210  0.00  0.00    +0.000 A 
ATOM     20  C   UNL     1       3.791   6.382  17.451  0.00  0.00    +0.000 A 
ATOM     21  C   UNL     1       4.865   5.533  17.190  0.00  0.00    +0.000 A 
ATOM     22  C   UNL     1       4.823   4.233  17.706  0.00  0.00    +0.000 A 
ATOM     23  C   UNL     1       3.720   3.752  18.437  0.00  0.00    +0.000 A 
BRANCH  18  25
ATOM     24  C   UNL     1       1.327   4.625  20.624  0.00  0.00    +0.000 C 
ATOM     25  O   UNL     1       1.497   4.155  19.282  0.00  0.00    +0.000 OA
ENDBRANCH  18  25
BRANCH  23  26
ATOM     26  O   UNL     1       3.901   2.448  18.810  0.00  0.00    +0.000 OA
ATOM     27  C   UNL     1       4.362   2.141  20.115  0.00  0.00    +0.000 C 
ENDBRANCH  23  26
ENDBRANCH  17  21
ENDBRANCH  16  17
ENDBRANCH   1  16
TORSDOF 6
ENDMDL
MODEL 8
REMARK VINA RESULT:      -7.2      3.879      5.836
REMARK  Name = 
REMARK  8 active torsions:
REMARK  status: ('A' for Active; 'I' for Inactive)
REMARK    1  A    between atoms: C_1  and  O_2
REMARK    2  A    between atoms: O_2  and  C_3
REMARK    3  A    between atoms: C_6  and  C_7
REMARK    4  A    between atoms: C_7  and  C_8
REMARK    5  A    between atoms: C_8  and  N_9
REMARK    6  A    between atoms: N_12  and  C_13
REMARK    7  A    between atoms: C_23  and  O_24
REMARK    8  A    between atoms: O_24  and  C_25
REMARK                            x       y       z     vdW  Elec       q    Type
REMARK                         _______ _______ _______ _____ _____    ______ ____
ROOT
ATOM      1  N   UNL     1       2.662   6.583  18.173  0.00  0.00    +0.000 N 
ATOM      2  C   UNL     1       2.172   7.737  18.755  0.00  0.00    +0.000 C 
ATOM      3  O   UNL     1       2.006   7.865  19.963  0.00  0.00    +0.000 OA
ATOM      4  N   UNL     1       1.843   8.663  17.810  0.00  0.00    +0.000 N 
ATOM      5  H   UNL     1       3.282   6.754  17.410  0.00  0.00    +0.000 HD
ATOM      6  H   UNL     1       1.528   8.258  16.941  0.00  0.00    +0.000 HD
ENDROOT
BRANCH   4   7
ATOM      7  C   UNL     1       1.362   9.941  18.119  0.00  0.00    +0.000 A 
ATOM      8  C   UNL     1       0.073  10.135  18.667  0.00  0.00    +0.000 A 
ATOM      9  C   UNL     1      -0.259  11.350  19.279  0.00  0.00    +0.000 A 
ATOM     10  C   UNL     1       0.719  12.319  19.301  0.00  0.00    +0.000 A 
ATOM     11  C   UNL     1       1.918  12.164  18.637  0.00  0.00    +0.000 A 
ATOM     12  C   UNL     1       2.273  10.989  18.035  0.00  0.00    +0.000 A 
ATOM     13  O   UNL     1       2.763  13.212  18.846  0.00  0.00    +0.000 OA
ATOM     14  C   UNL     1       2.157  13.700  20.055  0.00  0.00    +0.000 C 
ATOM     15  O   UNL     1       0.735  13.439  20.082  0.00  0.00    +0.000 OA
ENDBRANCH   4   7
BRANCH   1  16
ATOM     16  C   UNL     1       2.958   5.472  19.062  0.00  0.00    +0.000 C 
BRANCH  16  17
ATOM     17  C   UNL     1       4.430   5.350  19.419  0.00  0.00    +0.000 C 
BRANCH  17  21
ATOM     18  C   UNL     1       6.852   5.174  15.825  0.00  0.00    +0.000 A 
ATOM     19  C   UNL     1       5.955   4.143  16.150  0.00  0.00    +0.000 A 
ATOM     20  C   UNL     1       5.157   4.210  17.290  0.00  0.00    +0.000 A 
ATOM     21  C   UNL     1       5.300   5.265  18.188  0.00  0.00    +0.000 A 
ATOM     22  C   UNL     1       6.258   6.248  17.909  0.00  0.00    +0.000 A 
ATOM     23  C   UNL     1       7.041   6.220  16.740  0.00  0.00    +0.000 A 
BRANCH  18  25
ATOM     24  C   UNL     1       6.831   4.518  13.556  0.00  0.00    +0.000 C 
ATOM     25  O   UNL     1       7.529   5.152  14.633  0.00  0.00    +0.000 OA
ENDBRANCH  18  25
BRANCH  23  26
ATOM     26  O   UNL     1       7.882   7.297  16.680  0.00  0.00    +0.000 OA
ATOM     27  C   UNL     1       7.862   8.272  17.709  0.00  0.00    +0.000 C 
ENDBRANCH  23  26
ENDBRANCH  17  21
ENDBRANCH  16  17
ENDBRANCH   1  16
TORSDOF 6
ENDMDL
MODEL 9
REMARK VINA RESULT:      -7.2      6.417      9.614
REMARK  Name = 
REMARK  8 active torsions:
REMARK  status: ('A' for Active; 'I' for Inactive)
REMARK    1  A    between atoms: C_1  and  O_2
REMARK    2  A    between atoms: O_2  and  C_3
REMARK    3  A    between atoms: C_6  and  C_7
REMARK    4  A    between atoms: C_7  and  C_8
REMARK    5  A    between atoms: C_8  and  N_9
REMARK    6  A    between atoms: N_12  and  C_13
REMARK    7  A    between atoms: C_23  and  O_24
REMARK    8  A    between atoms: O_24  and  C_25
REMARK                            x       y       z     vdW  Elec       q    Type
REMARK                         _______ _______ _______ _____ _____    ______ ____
ROOT
ATOM      1  N   UNL     1       7.867   6.981  18.372  0.00  0.00    +0.000 N 
ATOM      2  C   UNL     1       8.145   8.316  18.153  0.00  0.00    +0.000 C 
ATOM      3  O   UNL     1       7.817   8.917  17.136  0.00  0.00    +0.000 OA
ATOM      4  N   UNL     1       8.881   8.839  19.176  0.00  0.00    +0.000 N 
ATOM      5  H   UNL     1       7.618   6.774  19.316  0.00  0.00    +0.000 HD
ATOM      6  H   UNL     1       9.496   8.169  19.613  0.00  0.00    +0.000 HD
ENDROOT
BRANCH   4   7
ATOM      7  C   UNL     1       9.268  10.183  19.236  0.00  0.00    +0.000 A 
ATOM      8  C   UNL     1       9.393  10.864  20.469  0.00  0.00    +0.000 A 
ATOM      9  C   UNL     1      10.095  12.073  20.541  0.00  0.00    +0.000 A 
ATOM     10  C   UNL     1      10.631  12.547  19.365  0.00  0.00    +0.000 A 
ATOM     11  C   UNL     1      10.378  11.946  18.150  0.00  0.00    +0.000 A 
ATOM     12  C   UNL     1       9.700  10.763  18.048  0.00  0.00    +0.000 A 
ATOM     13  O   UNL     1      11.059  12.538  17.129  0.00  0.00    +0.000 OA
ATOM     14  C   UNL     1      12.076  13.168  17.926  0.00  0.00    +0.000 C 
ATOM     15  O   UNL     1      11.584  13.518  19.240  0.00  0.00    +0.000 OA
ENDBRANCH   4   7
BRANCH   1  16
ATOM     16  C   UNL     1       7.174   6.270  17.309  0.00  0.00    +0.000 C 
BRANCH  16  17
ATOM     17  C   UNL     1       5.839   6.890  16.930  0.00  0.00    +0.000 C 
BRANCH  17  21
ATOM     18  C   UNL     1       2.484   4.840  18.759  0.00  0.00    +0.000 A 
ATOM     19  C   UNL     1       2.417   6.206  18.440  0.00  0.00    +0.000 A 
ATOM     20  C   UNL     1       3.483   6.861  17.828  0.00  0.00    +0.000 A 
ATOM     21  C   UNL     1       4.684   6.191  17.604  0.00  0.00    +0.000 A 
ATOM     22  C   UNL     1       4.781   4.853  18.003  0.00  0.00    +0.000 A 
ATOM     23  C   UNL     1       3.698   4.163  18.582  0.00  0.00    +0.000 A 
BRANCH  18  25
ATOM     24  C   UNL     1       1.289   4.116  20.665  0.00  0.00    +0.000 C 
ATOM     25  O   UNL     1       1.378   4.185  19.237  0.00  0.00    +0.000 OA
ENDBRANCH  18  25
BRANCH  23  26
ATOM     26  O   UNL     1       4.029   2.865  18.861  0.00  0.00    +0.000 OA
ATOM     27  C   UNL     1       3.495   1.812  18.077  0.00  0.00    +0.000 C 
ENDBRANCH  23  26
ENDBRANCH  17  21
ENDBRANCH  16  17
ENDBRANCH   1  16
TORSDOF 6
ENDMDL
