MODEL 1
REMARK VINA RESULT:      -8.2      0.000      0.000
REMARK  Name = 
REMARK  11 active torsions:
REMARK  status: ('A' for Active; 'I' for Inactive)
REMARK    1  A    between atoms: C_1  and  C_2
REMARK    2  A    between atoms: C_2  and  C_3
REMARK    3  A    between atoms: C_3  and  C_4
REMARK    4  A    between atoms: C_4  and  C_5
REMARK    5  A    between atoms: N_7  and  C_8
REMARK    6  A    between atoms: N_7  and  C_17
REMARK    7  A    between atoms: C_8  and  C_9
REMARK    8  A    between atoms: C_13  and  O_14
REMARK    9  A    between atoms: O_14  and  C_15
REMARK   10  A    between atoms: C_21  and  C_22
REMARK   11  A    between atoms: C_22  and  O_24
REMARK                            x       y       z     vdW  Elec       q    Type
REMARK                         _______ _______ _______ _____ _____    ______ ____
ROOT
ATOM      1  C   UNL     1       2.668   3.775  17.946  0.00  0.00    +0.000 C 
ATOM      2  O   UNL     1       2.967   2.985  17.048  0.00  0.00    +0.000 OA
ATOM      3  N   UNL     1       3.573   4.708  18.471  0.00  0.00    +0.000 N 
ENDROOT
BRANCH   3   4
ATOM      4  C   UNL     1       4.903   4.757  17.944  0.00  0.00    +0.000 A 
ATOM      5  C   UNL     1       6.001   4.884  18.803  0.00  0.00    +0.000 A 
ATOM      6  C   UNL     1       7.298   4.952  18.291  0.00  0.00    +0.000 A 
ATOM      7  C   UNL     1       7.509   4.877  16.915  0.00  0.00    +0.000 A 
ATOM      8  C   UNL     1       6.420   4.753  16.043  0.00  0.00    +0.000 A 
ATOM      9  C   UNL     1       5.120   4.692  16.562  0.00  0.00    +0.000 A 
BRANCH   8  10
ATOM     10  C   UNL     1       6.697   4.628  14.588  0.00  0.00    +0.000 C 
ATOM     11  O   UNL     1       6.076   3.869  13.866  0.00  0.00    +0.000 OA
BRANCH  10  12
ATOM     12  O   UNL     1       7.706   5.407  14.149  0.00  0.00    +0.000 OA
ATOM     13  H   UNL     1       8.556   5.297  14.614  0.00  0.00    +0.000 HD
ENDBRANCH  10  12
ENDBRANCH   8  10
ENDBRANCH   3   4
BRANCH   1  14
ATOM     14  C   UNL     1       1.232   3.840  18.453  0.00  0.00    +0.000 C 
BRANCH  14  15
ATOM     15  C   UNL     1       0.910   2.705  19.429  0.00  0.00    +0.000 C 
BRANCH  15  17
ATOM     16  C   UNL     1       2.324   2.665  21.523  0.00  0.00    +0.000 C 
ATOM     17  C   UNL     1       1.047   3.176  20.877  0.00  0.00    +0.000 C 
ENDBRANCH  15  17
ENDBRANCH  14  15
ENDBRANCH   1  14
BRANCH   3  18
ATOM     18  C   UNL     1       3.274   5.610  19.604  0.00  0.00    +0.000 C 
BRANCH  18  19
ATOM     19  C   UNL     1       2.649   6.949  19.229  0.00  0.00    +0.000 A 
ATOM     20  C   UNL     1       2.781   7.547  17.966  0.00  0.00    +0.000 A 
ATOM     21  C   UNL     1       2.141   8.755  17.680  0.00  0.00    +0.000 A 
ATOM     22  C   UNL     1       1.382   9.395  18.654  0.00  0.00    +0.000 A 
ATOM     23  C   UNL     1       1.260   8.843  19.931  0.00  0.00    +0.000 A 
ATOM     24  C   UNL     1       1.887   7.624  20.208  0.00  0.00    +0.000 A 
BRANCH  23  25
ATOM     25  O   UNL     1       0.506   9.586  20.799  0.00  0.00    +0.000 OA
ATOM     26  C   UNL     1      -0.257   8.877  21.766  0.00  0.00    +0.000 C 
ENDBRANCH  23  25
ENDBRANCH  18  19
ENDBRANCH   3  18
TORSDOF 9
ENDMDL
MODEL 2
REMARK VINA RESULT:      -7.9      1.411      2.170
REMARK  Name = 
REMARK  11 active torsions:
REMARK  status: ('A' for Active; 'I' for Inactive)
REMARK    1  A    between atoms: C_1  and  C_2
REMARK    2  A    between atoms: C_2  and  C_3
REMARK    3  A    between atoms: C_3  and  C_4
REMARK    4  A    between atoms: C_4  and  C_5
REMARK    5  A    between atoms: N_7  and  C_8
REMARK    6  A    between atoms: N_7  and  C_17
REMARK    7  A    between atoms: C_8  and  C_9
REMARK    8  A    between atoms: C_13  and  O_14
REMARK    9  A    between atoms: O_14  and  C_15
REMARK   10  A    between atoms: C_21  and  C_22
REMARK   11  A    between atoms: C_22  and  O_24
REMARK                            x       y       z     vdW  Elec       q    Type
REMARK                         _______ _______ _______ _____ _____    ______ ____
ROOT
ATOM      1  C   UNL     1       4.211   3.046  19.395  0.00  0.00    +0.000 C 
ATOM      2  O   UNL     1       5.333   2.657  19.731  0.00  0.00    +0.000 OA
ATOM      3  N   UNL     1       4.010   4.077  18.467  0.00  0.00    +0.000 N 
ENDROOT
BRANCH   3   4
ATOM      4  C   UNL     1       5.150   4.710  17.876  0.00  0.00    +0.000 A 
ATOM      5  C   UNL     1       5.916   5.621  18.612  0.00  0.00    +0.000 A 
ATOM      6  C   UNL     1       7.015   6.255  18.032  0.00  0.00    +0.000 A 
ATOM      7  C   UNL     1       7.368   5.972  16.714  0.00  0.00    +0.000 A 
ATOM      8  C   UNL     1       6.609   5.066  15.963  0.00  0.00    +0.000 A 
ATOM      9  C   UNL     1       5.502   4.437  16.548  0.00  0.00    +0.000 A 
BRANCH   8  10
ATOM     10  C   UNL     1       7.051   4.759  14.577  0.00  0.00    +0.000 C 
ATOM     11  O   UNL     1       7.815   5.479  13.958  0.00  0.00    +0.000 OA
BRANCH  10  12
ATOM     12  O   UNL     1       6.515   3.634  14.063  0.00  0.00    +0.000 OA
ATOM     13  H   UNL     1       6.867   3.356  13.197  0.00  0.00    +0.000 HD
ENDBRANCH  10  12
ENDBRANCH   8  10
ENDBRANCH   3   4
BRANCH   1  14
ATOM     14  C   UNL     1       2.972   2.321  19.908  0.00  0.00    +0.000 C 
BRANCH  14  15
ATOM     15  C   UNL     1       2.693   2.625  21.382  0.00  0.00    +0.000 C 
BRANCH  15  17
ATOM     16  C   UNL     1       0.438   2.990  20.302  0.00  0.00    +0.000 C 
ATOM     17  C   UNL     1       1.257   3.115  21.576  0.00  0.00    +0.000 C 
ENDBRANCH  15  17
ENDBRANCH  14  15
ENDBRANCH   1  14
BRANCH   3  18
ATOM     18  C   UNL     1       2.685   4.624  18.106  0.00  0.00    +0.000 C 
BRANCH  18  19
ATOM     19  C   UNL     1       2.347   5.980  18.716  0.00  0.00    +0.000 A 
ATOM     20  C   UNL     1       2.007   6.168  20.064  0.00  0.00    +0.000 A 
ATOM     21  C   UNL     1       1.754   7.449  20.563  0.00  0.00    +0.000 A 
ATOM     22  C   UNL     1       1.814   8.553  19.720  0.00  0.00    +0.000 A 
ATOM     23  C   UNL     1       2.116   8.396  18.366  0.00  0.00    +0.000 A 
ATOM     24  C   UNL     1       2.386   7.114  17.875  0.00  0.00    +0.000 A 
BRANCH  23  25
ATOM     25  O   UNL     1       2.119   9.560  17.646  0.00  0.00    +0.000 OA
ATOM     26  C   UNL     1       1.243  10.591  18.078  0.00  0.00    +0.000 C 
ENDBRANCH  23  25
ENDBRANCH  18  19
ENDBRANCH   3  18
TORSDOF 9
ENDMDL
MODEL 3
REMARK VINA RESULT:      -7.8      1.745      2.342
REMARK  Name = 
REMARK  11 active torsions:
REMARK  status: ('A' for Active; 'I' for Inactive)
REMARK    1  A    between atoms: C_1  and  C_2
REMARK    2  A    between atoms: C_2  and  C_3
REMARK    3  A    between atoms: C_3  and  C_4
REMARK    4  A    between atoms: C_4  and  C_5
REMARK    5  A    between atoms: N_7  and  C_8
REMARK    6  A    between atoms: N_7  and  C_17
REMARK    7  A    between atoms: C_8  and  C_9
REMARK    8  A    between atoms: C_13  and  O_14
REMARK    9  A    between atoms: O_14  and  C_15
REMARK   10  A    between atoms: C_21  and  C_22
REMARK   11  A    between atoms: C_22  and  O_24
REMARK                            x       y       z     vdW  Elec       q    Type
REMARK                         _______ _______ _______ _____ _____    ______ ____
ROOT
ATOM      1  C   UNL     1       2.519   3.934  18.028  0.00  0.00    +0.000 C 
ATOM      2  O   UNL     1       2.923   3.217  17.110  0.00  0.00    +0.000 OA
ATOM      3  N   UNL     1       3.245   5.032  18.511  0.00  0.00    +0.000 N 
ENDROOT
BRANCH   3   4
ATOM      4  C   UNL     1       4.509   5.343  17.916  0.00  0.00    +0.000 A 
ATOM      5  C   UNL     1       4.665   5.310  16.526  0.00  0.00    +0.000 A 
ATOM      6  C   UNL     1       5.902   5.593  15.943  0.00  0.00    +0.000 A 
ATOM      7  C   UNL     1       6.990   5.927  16.746  0.00  0.00    +0.000 A 
ATOM      8  C   UNL     1       6.852   5.960  18.139  0.00  0.00    +0.000 A 
ATOM      9  C   UNL     1       5.610   5.669  18.719  0.00  0.00    +0.000 A 
BRANCH   8  10
ATOM     10  C   UNL     1       8.027   6.369  18.952  0.00  0.00    +0.000 C 
ATOM     11  O   UNL     1       8.588   7.440  18.802  0.00  0.00    +0.000 OA
BRANCH  10  12
ATOM     12  O   UNL     1       8.428   5.443  19.847  0.00  0.00    +0.000 OA
ATOM     13  H   UNL     1       8.413   4.519  19.533  0.00  0.00    +0.000 HD
ENDBRANCH  10  12
ENDBRANCH   8  10
ENDBRANCH   3   4
BRANCH   1  14
ATOM     14  C   UNL     1       1.128   3.712  18.610  0.00  0.00    +0.000 C 
BRANCH  14  15
ATOM     15  C   UNL     1       1.071   2.483  19.521  0.00  0.00    +0.000 C 
BRANCH  15  17
ATOM     16  C   UNL     1       2.525   2.748  21.569  0.00  0.00    +0.000 C 
ATOM     17  C   UNL     1       1.127   2.892  20.993  0.00  0.00    +0.000 C 
ENDBRANCH  15  17
ENDBRANCH  14  15
ENDBRANCH   1  14
BRANCH   3  18
ATOM     18  C   UNL     1       2.832   5.859  19.664  0.00  0.00    +0.000 C 
BRANCH  18  19
ATOM     19  C   UNL     1       2.264   7.231  19.317  0.00  0.00    +0.000 A 
ATOM     20  C   UNL     1       2.320   7.798  18.035  0.00  0.00    +0.000 A 
ATOM     21  C   UNL     1       1.736   9.042  17.781  0.00  0.00    +0.000 A 
ATOM     22  C   UNL     1       1.111   9.745  18.805  0.00  0.00    +0.000 A 
ATOM     23  C   UNL     1       1.069   9.224  20.099  0.00  0.00    +0.000 A 
ATOM     24  C   UNL     1       1.639   7.970  20.345  0.00  0.00    +0.000 A 
BRANCH  23  25
ATOM     25  O   UNL     1       0.446  10.028  21.015  0.00  0.00    +0.000 OA
ATOM     26  C   UNL     1      -0.595  10.868  20.537  0.00  0.00    +0.000 C 
ENDBRANCH  23  25
ENDBRANCH  18  19
ENDBRANCH   3  18
TORSDOF 9
ENDMDL
MODEL 4
REMARK VINA RESULT:      -7.8      2.463      5.016
REMARK  Name = 
REMARK  11 active torsions:
REMARK  status: ('A' for Active; 'I' for Inactive)
REMARK    1  A    between atoms: C_1  and  C_2
REMARK    2  A    between atoms: C_2  and  C_3
REMARK    3  A    between atoms: C_3  and  C_4
REMARK    4  A    between atoms: C_4  and  C_5
REMARK    5  A    between atoms: N_7  and  C_8
REMARK    6  A    between atoms: N_7  and  C_17
REMARK    7  A    between atoms: C_8  and  C_9
REMARK    8  A    between atoms: C_13  and  O_14
REMARK    9  A    between atoms: O_14  and  C_15
REMARK   10  A    between atoms: C_21  and  C_22
REMARK   11  A    between atoms: C_22  and  O_24
REMARK                            x       y       z     vdW  Elec       q    Type
REMARK                         _______ _______ _______ _____ _____    ______ ____
ROOT
ATOM      1  C   UNL     1       5.057   6.445  16.224  0.00  0.00    +0.000 C 
ATOM      2  O   UNL     1       4.864   7.216  15.281  0.00  0.00    +0.000 OA
ATOM      3  N   UNL     1       5.731   5.223  16.083  0.00  0.00    +0.000 N 
ENDROOT
BRANCH   3   4
ATOM      4  C   UNL     1       6.223   4.849  14.792  0.00  0.00    +0.000 A 
ATOM      5  C   UNL     1       7.455   5.332  14.336  0.00  0.00    +0.000 A 
ATOM      6  C   UNL     1       7.928   4.986  13.069  0.00  0.00    +0.000 A 
ATOM      7  C   UNL     1       7.180   4.138  12.254  0.00  0.00    +0.000 A 
ATOM      8  C   UNL     1       5.945   3.650  12.694  0.00  0.00    +0.000 A 
ATOM      9  C   UNL     1       5.471   4.006  13.963  0.00  0.00    +0.000 A 
BRANCH   8  10
ATOM     10  C   UNL     1       5.205   2.711  11.810  0.00  0.00    +0.000 C 
ATOM     11  O   UNL     1       4.162   3.015  11.258  0.00  0.00    +0.000 OA
BRANCH  10  12
ATOM     12  O   UNL     1       5.776   1.495  11.696  0.00  0.00    +0.000 OA
ATOM     13  H   UNL     1       5.935   1.188  10.784  0.00  0.00    +0.000 HD
ENDBRANCH  10  12
ENDBRANCH   8  10
ENDBRANCH   3   4
BRANCH   1  14
ATOM     14  C   UNL     1       4.656   6.857  17.636  0.00  0.00    +0.000 C 
BRANCH  14  15
ATOM     15  C   UNL     1       3.137   6.850  17.831  0.00  0.00    +0.000 C 
BRANCH  15  17
ATOM     16  C   UNL     1       1.760   8.576  19.059  0.00  0.00    +0.000 C 
ATOM     17  C   UNL     1       2.579   8.274  17.815  0.00  0.00    +0.000 C 
ENDBRANCH  15  17
ENDBRANCH  14  15
ENDBRANCH   1  14
BRANCH   3  18
ATOM     18  C   UNL     1       5.903   4.238  17.171  0.00  0.00    +0.000 C 
BRANCH  18  19
ATOM     19  C   UNL     1       4.616   3.631  17.716  0.00  0.00    +0.000 A 
ATOM     20  C   UNL     1       3.523   3.267  16.915  0.00  0.00    +0.000 A 
ATOM     21  C   UNL     1       2.392   2.672  17.481  0.00  0.00    +0.000 A 
ATOM     22  C   UNL     1       2.326   2.455  18.853  0.00  0.00    +0.000 A 
ATOM     23  C   UNL     1       3.383   2.838  19.682  0.00  0.00    +0.000 A 
ATOM     24  C   UNL     1       4.520   3.416  19.109  0.00  0.00    +0.000 A 
BRANCH  23  25
ATOM     25  O   UNL     1       3.179   2.589  21.012  0.00  0.00    +0.000 OA
ATOM     26  C   UNL     1       2.006   3.133  21.601  0.00  0.00    +0.000 C 
ENDBRANCH  23  25
ENDBRANCH  18  19
ENDBRANCH   3  18
TORSDOF 9
ENDMDL
MODEL 5
REMARK VINA RESULT:      -7.7      1.572      6.123
REMARK  Name = 
REMARK  11 active torsions:
REMARK  status: ('A' for Active; 'I' for Inactive)
REMARK    1  A    between atoms: C_1  and  C_2
REMARK    2  A    between atoms: C_2  and  C_3
REMARK    3  A    between atoms: C_3  and  C_4
REMARK    4  A    between atoms: C_4  and  C_5
REMARK    5  A    between atoms: N_7  and  C_8
REMARK    6  A    between atoms: N_7  and  C_17
REMARK    7  A    between atoms: C_8  and  C_9
REMARK    8  A    between atoms: C_13  and  O_14
REMARK    9  A    between atoms: O_14  and  C_15
REMARK   10  A    between atoms: C_21  and  C_22
REMARK   11  A    between atoms: C_22  and  O_24
REMARK                            x       y       z     vdW  Elec       q    Type
REMARK                         _______ _______ _______ _____ _____    ______ ____
ROOT
ATOM      1  C   UNL     1       1.979   4.149  18.021  0.00  0.00    +0.000 C 
ATOM      2  O   UNL     1       0.844   4.461  17.651  0.00  0.00    +0.000 OA
ATOM      3  N   UNL     1       2.870   5.064  18.597  0.00  0.00    +0.000 N 
ENDROOT
BRANCH   3   4
ATOM      4  C   UNL     1       2.452   6.422  18.773  0.00  0.00    +0.000 A 
ATOM      5  C   UNL     1       2.542   7.334  17.714  0.00  0.00    +0.000 A 
ATOM      6  C   UNL     1       2.155   8.663  17.888  0.00  0.00    +0.000 A 
ATOM      7  C   UNL     1       1.659   9.090  19.119  0.00  0.00    +0.000 A 
ATOM      8  C   UNL     1       1.567   8.191  20.188  0.00  0.00    +0.000 A 
ATOM      9  C   UNL     1       1.964   6.859  20.011  0.00  0.00    +0.000 A 
BRANCH   8  10
ATOM     10  C   UNL     1       0.988   8.679  21.467  0.00  0.00    +0.000 C 
ATOM     11  O   UNL     1       1.635   9.316  22.279  0.00  0.00    +0.000 OA
BRANCH  10  12
ATOM     12  O   UNL     1      -0.301   8.332  21.657  0.00  0.00    +0.000 OA
ATOM     13  H   UNL     1      -0.624   8.394  22.575  0.00  0.00    +0.000 HD
ENDBRANCH  10  12
ENDBRANCH   8  10
ENDBRANCH   3   4
BRANCH   1  14
ATOM     14  C   UNL     1       2.421   2.691  17.963  0.00  0.00    +0.000 C 
BRANCH  14  15
ATOM     15  C   UNL     1       1.879   1.875  19.140  0.00  0.00    +0.000 C 
BRANCH  15  17
ATOM     16  C   UNL     1       2.057   2.773  21.494  0.00  0.00    +0.000 C 
ATOM     17  C   UNL     1       1.262   2.788  20.199  0.00  0.00    +0.000 C 
ENDBRANCH  15  17
ENDBRANCH  14  15
ENDBRANCH   1  14
BRANCH   3  18
ATOM     18  C   UNL     1       4.264   4.745  18.972  0.00  0.00    +0.000 C 
BRANCH  18  19
ATOM     19  C   UNL     1       5.291   4.879  17.853  0.00  0.00    +0.000 A 
ATOM     20  C   UNL     1       5.471   3.926  16.839  0.00  0.00    +0.000 A 
ATOM     21  C   UNL     1       6.401   4.140  15.818  0.00  0.00    +0.000 A 
ATOM     22  C   UNL     1       7.180   5.292  15.809  0.00  0.00    +0.000 A 
ATOM     23  C   UNL     1       7.050   6.242  16.823  0.00  0.00    +0.000 A 
ATOM     24  C   UNL     1       6.104   6.034  17.833  0.00  0.00    +0.000 A 
BRANCH  23  25
ATOM     25  O   UNL     1       7.892   7.315  16.707  0.00  0.00    +0.000 OA
ATOM     26  C   UNL     1       7.853   8.286  17.743  0.00  0.00    +0.000 C 
ENDBRANCH  23  25
ENDBRANCH  18  19
ENDBRANCH   3  18
TORSDOF 9
ENDMDL
MODEL 6
REMARK VINA RESULT:      -7.7      1.998      2.804
REMARK  Name = 
REMARK  11 active torsions:
REMARK  status: ('A' for Active; 'I' for Inactive)
REMARK    1  A    between atoms: C_1  and  C_2
REMARK    2  A    between atoms: C_2  and  C_3
REMARK    3  A    between atoms: C_3  and  C_4
REMARK    4  A    between atoms: C_4  and  C_5
REMARK    5  A    between atoms: N_7  and  C_8
REMARK    6  A    between atoms: N_7  and  C_17
REMARK    7  A    between atoms: C_8  and  C_9
REMARK    8  A    between atoms: C_13  and  O_14
REMARK    9  A    between atoms: O_14  and  C_15
REMARK   10  A    between atoms: C_21  and  C_22
REMARK   11  A    between atoms: C_22  and  O_24
REMARK                            x       y       z     vdW  Elec       q    Type
REMARK                         _______ _______ _______ _____ _____    ______ ____
ROOT
ATOM      1  C   UNL     1       3.124   2.670  18.358  0.00  0.00    +0.000 C 
ATOM      2  O   UNL     1       3.983   1.882  18.761  0.00  0.00    +0.000 OA
ATOM      3  N   UNL     1       3.440   3.874  17.712  0.00  0.00    +0.000 N 
ENDROOT
BRANCH   3   4
ATOM      4  C   UNL     1       4.816   4.208  17.501  0.00  0.00    +0.000 A 
ATOM      5  C   UNL     1       5.424   3.959  16.265  0.00  0.00    +0.000 A 
ATOM      6  C   UNL     1       6.771   4.265  16.063  0.00  0.00    +0.000 A 
ATOM      7  C   UNL     1       7.518   4.836  17.092  0.00  0.00    +0.000 A 
ATOM      8  C   UNL     1       6.925   5.087  18.335  0.00  0.00    +0.000 A 
ATOM      9  C   UNL     1       5.574   4.772  18.534  0.00  0.00    +0.000 A 
BRANCH   8  10
ATOM     10  C   UNL     1       7.747   5.742  19.386  0.00  0.00    +0.000 C 
ATOM     11  O   UNL     1       7.822   5.310  20.523  0.00  0.00    +0.000 OA
BRANCH  10  12
ATOM     12  O   UNL     1       8.376   6.862  18.977  0.00  0.00    +0.000 OA
ATOM     13  H   UNL     1       9.257   7.016  19.364  0.00  0.00    +0.000 HD
ENDBRANCH  10  12
ENDBRANCH   8  10
ENDBRANCH   3   4
BRANCH   1  14
ATOM     14  C   UNL     1       1.649   2.300  18.455  0.00  0.00    +0.000 C 
BRANCH  14  15
ATOM     15  C   UNL     1       1.262   1.825  19.858  0.00  0.00    +0.000 C 
BRANCH  15  17
ATOM     16  C   UNL     1       2.157   2.974  21.922  0.00  0.00    +0.000 C 
ATOM     17  C   UNL     1       1.118   3.009  20.814  0.00  0.00    +0.000 C 
ENDBRANCH  15  17
ENDBRANCH  14  15
ENDBRANCH   1  14
BRANCH   3  18
ATOM     18  C   UNL     1       2.440   4.879  17.294  0.00  0.00    +0.000 C 
BRANCH  18  19
ATOM     19  C   UNL     1       2.232   6.038  18.262  0.00  0.00    +0.000 A 
ATOM     20  C   UNL     1       2.090   5.882  19.650  0.00  0.00    +0.000 A 
ATOM     21  C   UNL     1       1.948   6.996  20.481  0.00  0.00    +0.000 A 
ATOM     22  C   UNL     1       1.923   8.276  19.939  0.00  0.00    +0.000 A 
ATOM     23  C   UNL     1       2.027   8.463  18.560  0.00  0.00    +0.000 A 
ATOM     24  C   UNL     1       2.187   7.347  17.733  0.00  0.00    +0.000 A 
BRANCH  23  25
ATOM     25  O   UNL     1       1.964   9.770  18.159  0.00  0.00    +0.000 OA
ATOM     26  C   UNL     1       0.946  10.577  18.733  0.00  0.00    +0.000 C 
ENDBRANCH  23  25
ENDBRANCH  18  19
ENDBRANCH   3  18
TORSDOF 9
ENDMDL
MODEL 7
REMARK VINA RESULT:      -7.6      2.661      5.284
REMARK  Name = 
REMARK  11 active torsions:
REMARK  status: ('A' for Active; 'I' for Inactive)
REMARK    1  A    between atoms: C_1  and  C_2
REMARK    2  A    between atoms: C_2  and  C_3
REMARK    3  A    between atoms: C_3  and  C_4
REMARK    4  A    between atoms: C_4  and  C_5
REMARK    5  A    between atoms: N_7  and  C_8
REMARK    6  A    between atoms: N_7  and  C_17
REMARK    7  A    between atoms: C_8  and  C_9
REMARK    8  A    between atoms: C_13  and  O_14
REMARK    9  A    between atoms: O_14  and  C_15
REMARK   10  A    between atoms: C_21  and  C_22
REMARK   11  A    between atoms: C_22  and  O_24
REMARK                            x       y       z     vdW  Elec       q    Type
REMARK                         _______ _______ _______ _____ _____    ______ ____
ROOT
ATOM      1  C   UNL     1       6.456   4.590  14.630  0.00  0.00    +0.000 C 
ATOM      2  O   UNL     1       7.619   4.907  14.371  0.00  0.00    +0.000 OA
ATOM      3  N   UNL     1       5.884   4.764  15.899  0.00  0.00    +0.000 N 
ENDROOT
BRANCH   3   4
ATOM      4  C   UNL     1       6.677   5.338  16.943  0.00  0.00    +0.000 A 
ATOM      5  C   UNL     1       7.190   4.535  17.967  0.00  0.00    +0.000 A 
ATOM      6  C   UNL     1       7.946   5.095  18.999  0.00  0.00    +0.000 A 
ATOM      7  C   UNL     1       8.208   6.464  19.005  0.00  0.00    +0.000 A 
ATOM      8  C   UNL     1       7.698   7.282  17.990  0.00  0.00    +0.000 A 
ATOM      9  C   UNL     1       6.935   6.715  16.961  0.00  0.00    +0.000 A 
BRANCH   8  10
ATOM     10  C   UNL     1       8.044   8.728  18.013  0.00  0.00    +0.000 C 
ATOM     11  O   UNL     1       7.565   9.528  17.230  0.00  0.00    +0.000 OA
BRANCH  10  12
ATOM     12  O   UNL     1       8.949   9.064  18.954  0.00  0.00    +0.000 OA
ATOM     13  H   UNL     1       8.588   9.498  19.750  0.00  0.00    +0.000 HD
ENDBRANCH  10  12
ENDBRANCH   8  10
ENDBRANCH   3   4
BRANCH   1  14
ATOM     14  C   UNL     1       5.541   4.086  13.520  0.00  0.00    +0.000 C 
BRANCH  14  15
ATOM     15  C   UNL     1       6.328   3.525  12.332  0.00  0.00    +0.000 C 
BRANCH  15  17
ATOM     16  C   UNL     1       4.097   3.173  11.198  0.00  0.00    +0.000 C 
ATOM     17  C   UNL     1       5.461   2.576  11.503  0.00  0.00    +0.000 C 
ENDBRANCH  15  17
ENDBRANCH  14  15
ENDBRANCH   1  14
BRANCH   3  18
ATOM     18  C   UNL     1       4.524   4.316  16.266  0.00  0.00    +0.000 C 
BRANCH  18  19
ATOM     19  C   UNL     1       3.884   5.056  17.435  0.00  0.00    +0.000 A 
ATOM     20  C   UNL     1       3.502   6.406  17.391  0.00  0.00    +0.000 A 
ATOM     21  C   UNL     1       2.878   7.005  18.488  0.00  0.00    +0.000 A 
ATOM     22  C   UNL     1       2.648   6.276  19.649  0.00  0.00    +0.000 A 
ATOM     23  C   UNL     1       3.048   4.941  19.737  0.00  0.00    +0.000 A 
ATOM     24  C   UNL     1       3.656   4.339  18.631  0.00  0.00    +0.000 A 
BRANCH  23  25
ATOM     25  O   UNL     1       2.784   4.348  20.942  0.00  0.00    +0.000 OA
ATOM     26  C   UNL     1       1.483   3.812  21.130  0.00  0.00    +0.000 C 
ENDBRANCH  23  25
ENDBRANCH  18  19
ENDBRANCH   3  18
TORSDOF 9
ENDMDL
MODEL 8
REMARK VINA RESULT:      -7.6      1.044      6.305
REMARK  Name = 
REMARK  11 active torsions:
REMARK  status: ('A' for Active; 'I' for Inactive)
REMARK    1  A    between atoms: C_1  and  C_2
REMARK    2  A    between atoms: C_2  and  C_3
REMARK    3  A    between atoms: C_3  and  C_4
REMARK    4  A    between atoms: C_4  and  C_5
REMARK    5  A    between atoms: N_7  and  C_8
REMARK    6  A    between atoms: N_7  and  C_17
REMARK    7  A    between atoms: C_8  and  C_9
REMARK    8  A    between atoms: C_13  and  O_14
REMARK    9  A    between atoms: O_14  and  C_15
REMARK   10  A    between atoms: C_21  and  C_22
REMARK   11  A    between atoms: C_22  and  O_24
REMARK                            x       y       z     vdW  Elec       q    Type
REMARK                         _______ _______ _______ _____ _____    ______ ____
ROOT
ATOM      1  C   UNL     1       2.005   4.250  18.127  0.00  0.00    +0.000 C 
ATOM      2  O   UNL     1       1.026   4.605  17.466  0.00  0.00    +0.000 OA
ATOM      3  N   UNL     1       2.777   5.143  18.883  0.00  0.00    +0.000 N 
ENDROOT
BRANCH   3   4
ATOM      4  C   UNL     1       2.418   6.529  18.899  0.00  0.00    +0.000 A 
ATOM      5  C   UNL     1       2.579   7.315  17.752  0.00  0.00    +0.000 A 
ATOM      6  C   UNL     1       2.250   8.672  17.770  0.00  0.00    +0.000 A 
ATOM      7  C   UNL     1       1.741   9.250  18.931  0.00  0.00    +0.000 A 
ATOM      8  C   UNL     1       1.578   8.477  20.088  0.00  0.00    +0.000 A 
ATOM      9  C   UNL     1       1.917   7.118  20.066  0.00  0.00    +0.000 A 
BRANCH   8  10
ATOM     10  C   UNL     1       0.987   9.125  21.288  0.00  0.00    +0.000 C 
ATOM     11  O   UNL     1      -0.126   9.622  21.283  0.00  0.00    +0.000 OA
BRANCH  10  12
ATOM     12  O   UNL     1       1.797   9.136  22.365  0.00  0.00    +0.000 OA
ATOM     13  H   UNL     1       1.452   8.683  23.157  0.00  0.00    +0.000 HD
ENDBRANCH  10  12
ENDBRANCH   8  10
ENDBRANCH   3   4
BRANCH   1  14
ATOM     14  C   UNL     1       2.351   2.769  18.235  0.00  0.00    +0.000 C 
BRANCH  14  15
ATOM     15  C   UNL     1       1.365   2.008  19.125  0.00  0.00    +0.000 C 
BRANCH  15  17
ATOM     16  C   UNL     1       1.785   2.641  21.535  0.00  0.00    +0.000 C 
ATOM     17  C   UNL     1       0.919   2.869  20.307  0.00  0.00    +0.000 C 
ENDBRANCH  15  17
ENDBRANCH  14  15
ENDBRANCH   1  14
BRANCH   3  18
ATOM     18  C   UNL     1       4.004   4.767  19.616  0.00  0.00    +0.000 C 
BRANCH  18  19
ATOM     19  C   UNL     1       5.302   4.881  18.824  0.00  0.00    +0.000 A 
ATOM     20  C   UNL     1       6.470   5.481  19.320  0.00  0.00    +0.000 A 
ATOM     21  C   UNL     1       7.637   5.507  18.552  0.00  0.00    +0.000 A 
ATOM     22  C   UNL     1       7.649   4.959  17.274  0.00  0.00    +0.000 A 
ATOM     23  C   UNL     1       6.494   4.387  16.739  0.00  0.00    +0.000 A 
ATOM     24  C   UNL     1       5.332   4.345  17.517  0.00  0.00    +0.000 A 
BRANCH  23  25
ATOM     25  O   UNL     1       6.636   3.907  15.465  0.00  0.00    +0.000 OA
ATOM     26  C   UNL     1       6.253   4.767  14.402  0.00  0.00    +0.000 C 
ENDBRANCH  23  25
ENDBRANCH  18  19
ENDBRANCH   3  18
TORSDOF 9
ENDMDL
MODEL 9
REMARK VINA RESULT:      -7.5      1.593      2.103
REMARK  Name = 
REMARK  11 active torsions:
REMARK  status: ('A' for Active; 'I' for Inactive)
REMARK    1  A    between atoms: C_1  and  C_2
REMARK    2  A    between atoms: C_2  and  C_3
REMARK    3  A    between atoms: C_3  and  C_4
REMARK    4  A    between atoms: C_4  and  C_5
REMARK    5  A    between atoms: N_7  and  C_8
REMARK    6  A    between atoms: N_7  and  C_17
REMARK    7  A    between atoms: C_8  and  C_9
REMARK    8  A    between atoms: C_13  and  O_14
REMARK    9  A    between atoms: O_14  and  C_15
REMARK   10  A    between atoms: C_21  and  C_22
REMARK   11  A    between atoms: C_22  and  O_24
REMARK                            x       y       z     vdW  Elec       q    Type
REMARK                         _______ _______ _______ _____ _____    ______ ____
ROOT
ATOM      1  C   UNL     1       2.581   3.995  17.770  0.00  0.00    +0.000 C 
ATOM      2  O   UNL     1       2.854   3.291  16.794  0.00  0.00    +0.000 OA
ATOM      3  N   UNL     1       3.466   4.949  18.292  0.00  0.00    +0.000 N 
ENDROOT
BRANCH   3   4
ATOM      4  C   UNL     1       4.743   5.123  17.668  0.00  0.00    +0.000 A 
ATOM      5  C   UNL     1       5.160   4.257  16.651  0.00  0.00    +0.000 A 
ATOM      6  C   UNL     1       6.413   4.412  16.056  0.00  0.00    +0.000 A 
ATOM      7  C   UNL     1       7.254   5.446  16.462  0.00  0.00    +0.000 A 
ATOM      8  C   UNL     1       6.854   6.318  17.481  0.00  0.00    +0.000 A 
ATOM      9  C   UNL     1       5.598   6.154  18.080  0.00  0.00    +0.000 A 
BRANCH   8  10
ATOM     10  C   UNL     1       7.764   7.435  17.847  0.00  0.00    +0.000 C 
ATOM     11  O   UNL     1       7.844   8.457  17.190  0.00  0.00    +0.000 OA
BRANCH  10  12
ATOM     12  O   UNL     1       8.504   7.205  18.951  0.00  0.00    +0.000 OA
ATOM     13  H   UNL     1       8.005   7.135  19.786  0.00  0.00    +0.000 HD
ENDBRANCH  10  12
ENDBRANCH   8  10
ENDBRANCH   3   4
BRANCH   1  14
ATOM     14  C   UNL     1       1.190   3.927  18.390  0.00  0.00    +0.000 C 
BRANCH  14  15
ATOM     15  C   UNL     1       0.850   2.523  18.897  0.00  0.00    +0.000 C 
BRANCH  15  17
ATOM     16  C   UNL     1       1.327   3.257  21.267  0.00  0.00    +0.000 C 
ATOM     17  C   UNL     1       1.600   2.216  20.194  0.00  0.00    +0.000 C 
ENDBRANCH  15  17
ENDBRANCH  14  15
ENDBRANCH   1  14
BRANCH   3  18
ATOM     18  C   UNL     1       3.206   5.747  19.508  0.00  0.00    +0.000 C 
BRANCH  18  19
ATOM     19  C   UNL     1       2.497   7.076  19.281  0.00  0.00    +0.000 A 
ATOM     20  C   UNL     1       2.486   7.757  18.054  0.00  0.00    +0.000 A 
ATOM     21  C   UNL     1       1.774   8.951  17.908  0.00  0.00    +0.000 A 
ATOM     22  C   UNL     1       1.085   9.492  18.988  0.00  0.00    +0.000 A 
ATOM     23  C   UNL     1       1.104   8.857  20.231  0.00  0.00    +0.000 A 
ATOM     24  C   UNL     1       1.803   7.653  20.368  0.00  0.00    +0.000 A 
BRANCH  23  25
ATOM     25  O   UNL     1       0.405   9.508  21.211  0.00  0.00    +0.000 OA
ATOM     26  C   UNL     1       0.824   9.301  22.553  0.00  0.00    +0.000 C 
ENDBRANCH  23  25
ENDBRANCH  18  19
ENDBRANCH   3  18
TORSDOF 9
ENDMDL
