MODEL 1
REMARK VINA RESULT:      -8.9      0.000      0.000
REMARK  Name = 
REMARK  10 active torsions:
REMARK  status: ('A' for Active; 'I' for Inactive)
REMARK    1  A    between atoms: C_1  and  C_2
REMARK    2  A    between atoms: C_2  and  C_3
REMARK    3  A    between atoms: C_2  and  C_4
REMARK    4  A    between atoms: C_8  and  C_9
REMARK    5  A    between atoms: C_9  and  C_10
REMARK    6  A    between atoms: C_10  and  C_11
REMARK    7  A    between atoms: C_11  and  C_12
REMARK    8  A    between atoms: N_13  and  N_14
REMARK    9  A    between atoms: N_17  and  C_18
REMARK   10  A    between atoms: C_26  and  C_27
REMARK                            x       y       z     vdW  Elec       q    Type
REMARK                         _______ _______ _______ _____ _____    ______ ____
ROOT
ATOM      1  C   UNL     1       5.124   6.081  15.975  0.00  0.00    +0.000 C 
ENDROOT
BRANCH   1   6
ATOM      2  C   UNL     1       1.620   7.539  20.119  0.00  0.00    +0.000 A 
ATOM      3  C   UNL     1       2.292   8.059  18.931  0.00  0.00    +0.000 A 
ATOM      4  C   UNL     1       3.123   7.462  18.066  0.00  0.00    +0.000 A 
ATOM      5  C   UNL     1       3.584   6.100  18.088  0.00  0.00    +0.000 A 
ATOM      6  C   UNL     1       4.435   5.533  17.190  0.00  0.00    +0.000 A 
ATOM      7  C   UNL     1       4.659   4.139  17.554  0.00  0.00    +0.000 A 
ATOM      8  C   UNL     1       3.948   3.824  18.651  0.00  0.00    +0.000 A 
ATOM      9  C   UNL     1       3.232   5.030  19.036  0.00  0.00    +0.000 A 
ATOM     10  C   UNL     1       2.396   5.127  20.077  0.00  0.00    +0.000 A 
ATOM     11  C   UNL     1       1.673   6.271  20.571  0.00  0.00    +0.000 A 
BRANCH   2  13
ATOM     12  C   UNL     1       1.375   8.976  22.213  0.00  0.00    +0.000 C 
ATOM     13  C   UNL     1       0.736   8.536  20.891  0.00  0.00    +0.000 C 
ATOM     14  C   UNL     1       0.331   9.743  20.040  0.00  0.00    +0.000 C 
ENDBRANCH   2  13
BRANCH   8  15
ATOM     15  C   UNL     1       3.988   2.468  19.316  0.00  0.00    +0.000 C 
ATOM     16  O   UNL     1       4.827   2.343  20.249  0.00  0.00    +0.000 OA
ATOM     17  O   UNL     1       3.109   1.649  18.900  0.00  0.00    +0.000 OA
ENDBRANCH   8  15
ENDBRANCH   1   6
BRANCH   1  18
ATOM     18  C   UNL     1       6.221   7.092  16.343  0.00  0.00    +0.000 C 
BRANCH  18  19
ATOM     19  C   UNL     1       7.452   6.449  16.976  0.00  0.00    +0.000 C 
BRANCH  19  20
ATOM     20  C   UNL     1       7.885   7.170  18.222  0.00  0.00    +0.000 C 
ATOM     21  N   UNL     1       8.330   8.380  18.127  0.00  0.00    +0.000 NA
BRANCH  21  22
ATOM     22  N   UNL     1       8.733   8.937  19.309  0.00  0.00    +0.000 N 
ATOM     23  C   UNL     1       9.317  10.193  19.357  0.00  0.00    +0.000 C 
ATOM     24  O   UNL     1       9.702  10.645  20.430  0.00  0.00    +0.000 OA
ATOM     25  N   UNL     1       9.364  10.792  18.123  0.00  0.00    +0.000 N 
ATOM     26  H   UNL     1       8.678   8.432  20.186  0.00  0.00    +0.000 HD
ATOM     27  H   UNL     1       8.854  10.259  17.429  0.00  0.00    +0.000 HD
BRANCH  25  28
ATOM     28  C   UNL     1       9.856  12.066  17.807  0.00  0.00    +0.000 A 
ATOM     29  C   UNL     1      11.149  12.279  17.323  0.00  0.00    +0.000 A 
ATOM     30  C   UNL     1      11.617  13.575  17.099  0.00  0.00    +0.000 A 
ATOM     31  C   UNL     1      10.790  14.664  17.357  0.00  0.00    +0.000 A 
ATOM     32 CL   UNL     1      11.389  16.262  17.147  0.00  0.00    +0.000 Cl
ATOM     33  C   UNL     1       9.483  14.465  17.796  0.00  0.00    +0.000 A 
ATOM     34  C   UNL     1       9.013  13.164  18.007  0.00  0.00    +0.000 A 
ENDBRANCH  25  28
ENDBRANCH  21  22
ENDBRANCH  19  20
ENDBRANCH  18  19
ENDBRANCH   1  18
TORSDOF 8
ENDMDL
MODEL 2
REMARK VINA RESULT:      -8.6      0.725      1.279
REMARK  Name = 
REMARK  10 active torsions:
REMARK  status: ('A' for Active; 'I' for Inactive)
REMARK    1  A    between atoms: C_1  and  C_2
REMARK    2  A    between atoms: C_2  and  C_3
REMARK    3  A    between atoms: C_2  and  C_4
REMARK    4  A    between atoms: C_8  and  C_9
REMARK    5  A    between atoms: C_9  and  C_10
REMARK    6  A    between atoms: C_10  and  C_11
REMARK    7  A    between atoms: C_11  and  C_12
REMARK    8  A    between atoms: N_13  and  N_14
REMARK    9  A    between atoms: N_17  and  C_18
REMARK   10  A    between atoms: C_26  and  C_27
REMARK                            x       y       z     vdW  Elec       q    Type
REMARK                         _______ _______ _______ _____ _____    ______ ____
ROOT
ATOM      1  C   UNL     1       5.230   5.387  16.210  0.00  0.00    +0.000 C 
ENDROOT
BRANCH   1   6
ATOM      2  C   UNL     1       1.737   7.993  19.758  0.00  0.00    +0.000 A 
ATOM      3  C   UNL     1       2.553   8.208  18.566  0.00  0.00    +0.000 A 
ATOM      4  C   UNL     1       3.335   7.364  17.879  0.00  0.00    +0.000 A 
ATOM      5  C   UNL     1       3.582   5.974  18.154  0.00  0.00    +0.000 A 
ATOM      6  C   UNL     1       4.391   5.152  17.433  0.00  0.00    +0.000 A 
ATOM      7  C   UNL     1       4.378   3.821  18.028  0.00  0.00    +0.000 A 
ATOM      8  C   UNL     1       3.560   3.797  19.095  0.00  0.00    +0.000 A 
ATOM      9  C   UNL     1       3.013   5.137  19.224  0.00  0.00    +0.000 A 
ATOM     10  C   UNL     1       2.138   5.523  20.161  0.00  0.00    +0.000 A 
ATOM     11  C   UNL     1       1.568   6.823  20.405  0.00  0.00    +0.000 A 
BRANCH   2  13
ATOM     12  C   UNL     1       0.273   9.996  19.162  0.00  0.00    +0.000 C 
ATOM     13  C   UNL     1       0.968   9.219  20.286  0.00  0.00    +0.000 C 
ATOM     14  C   UNL     1      -0.014   8.858  21.404  0.00  0.00    +0.000 C 
ENDBRANCH   2  13
BRANCH   8  15
ATOM     15  C   UNL     1       3.353   2.578  19.965  0.00  0.00    +0.000 C 
ATOM     16  O   UNL     1       4.253   2.361  20.821  0.00  0.00    +0.000 OA
ATOM     17  O   UNL     1       2.251   1.974  19.774  0.00  0.00    +0.000 OA
ENDBRANCH   8  15
ENDBRANCH   1   6
BRANCH   1  18
ATOM     18  C   UNL     1       6.655   5.838  16.569  0.00  0.00    +0.000 C 
BRANCH  18  19
ATOM     19  C   UNL     1       6.804   7.352  16.674  0.00  0.00    +0.000 C 
BRANCH  19  20
ATOM     20  C   UNL     1       7.698   7.751  17.814  0.00  0.00    +0.000 C 
ATOM     21  N   UNL     1       7.972   9.002  17.993  0.00  0.00    +0.000 NA
BRANCH  21  22
ATOM     22  N   UNL     1       8.822   9.261  19.033  0.00  0.00    +0.000 N 
ATOM     23  C   UNL     1       9.501  10.464  19.132  0.00  0.00    +0.000 C 
ATOM     24  O   UNL     1      10.285  10.646  20.057  0.00  0.00    +0.000 OA
ATOM     25  N   UNL     1       9.163  11.337  18.128  0.00  0.00    +0.000 N 
ATOM     26  H   UNL     1       9.034   8.563  19.737  0.00  0.00    +0.000 HD
ATOM     27  H   UNL     1       8.390  10.987  17.574  0.00  0.00    +0.000 HD
BRANCH  25  28
ATOM     28  C   UNL     1       9.629  12.645  17.936  0.00  0.00    +0.000 A 
ATOM     29  C   UNL     1       8.895  13.772  18.311  0.00  0.00    +0.000 A 
ATOM     30  C   UNL     1       9.369  15.053  18.026  0.00  0.00    +0.000 A 
ATOM     31  C   UNL     1      10.584  15.210  17.366  0.00  0.00    +0.000 A 
ATOM     32 CL   UNL     1      11.136  16.786  16.953  0.00  0.00    +0.000 Cl
ATOM     33  C   UNL     1      11.349  14.097  17.028  0.00  0.00    +0.000 A 
ATOM     34  C   UNL     1      10.876  12.814  17.327  0.00  0.00    +0.000 A 
ENDBRANCH  25  28
ENDBRANCH  21  22
ENDBRANCH  19  20
ENDBRANCH  18  19
ENDBRANCH   1  18
TORSDOF 8
ENDMDL
MODEL 3
REMARK VINA RESULT:      -8.3      5.451      8.682
REMARK  Name = 
REMARK  10 active torsions:
REMARK  status: ('A' for Active; 'I' for Inactive)
REMARK    1  A    between atoms: C_1  and  C_2
REMARK    2  A    between atoms: C_2  and  C_3
REMARK    3  A    between atoms: C_2  and  C_4
REMARK    4  A    between atoms: C_8  and  C_9
REMARK    5  A    between atoms: C_9  and  C_10
REMARK    6  A    between atoms: C_10  and  C_11
REMARK    7  A    between atoms: C_11  and  C_12
REMARK    8  A    between atoms: N_13  and  N_14
REMARK    9  A    between atoms: N_17  and  C_18
REMARK   10  A    between atoms: C_26  and  C_27
REMARK                            x       y       z     vdW  Elec       q    Type
REMARK                         _______ _______ _______ _____ _____    ______ ____
ROOT
ATOM      1  C   UNL     1       3.145   3.830  18.867  0.00  0.00    +0.000 C 
ENDROOT
BRANCH   1   6
ATOM      2  C   UNL     1       6.323   4.045  14.238  0.00  0.00    +0.000 A 
ATOM      3  C   UNL     1       5.019   3.609  14.731  0.00  0.00    +0.000 A 
ATOM      4  C   UNL     1       4.478   3.684  15.955  0.00  0.00    +0.000 A 
ATOM      5  C   UNL     1       5.069   4.236  17.144  0.00  0.00    +0.000 A 
ATOM      6  C   UNL     1       4.486   4.288  18.372  0.00  0.00    +0.000 A 
ATOM      7  C   UNL     1       5.402   4.920  19.314  0.00  0.00    +0.000 A 
ATOM      8  C   UNL     1       6.537   5.279  18.688  0.00  0.00    +0.000 A 
ATOM      9  C   UNL     1       6.384   4.879  17.299  0.00  0.00    +0.000 A 
ATOM     10  C   UNL     1       7.296   5.077  16.338  0.00  0.00    +0.000 A 
ATOM     11  C   UNL     1       7.267   4.688  14.951  0.00  0.00    +0.000 A 
BRANCH   2  13
ATOM     12  C   UNL     1       5.344   3.401  11.971  0.00  0.00    +0.000 C 
ATOM     13  C   UNL     1       6.610   3.778  12.749  0.00  0.00    +0.000 C 
ATOM     14  C   UNL     1       7.353   4.937  12.077  0.00  0.00    +0.000 C 
ENDBRANCH   2  13
BRANCH   8  15
ATOM     15  C   UNL     1       7.713   5.922  19.388  0.00  0.00    +0.000 C 
ATOM     16  O   UNL     1       8.100   5.347  20.441  0.00  0.00    +0.000 OA
ATOM     17  O   UNL     1       8.212   6.917  18.775  0.00  0.00    +0.000 OA
ENDBRANCH   8  15
ENDBRANCH   1   6
BRANCH   1  18
ATOM     18  C   UNL     1       2.079   4.931  18.745  0.00  0.00    +0.000 C 
BRANCH  18  19
ATOM     19  C   UNL     1       2.031   5.865  19.951  0.00  0.00    +0.000 C 
BRANCH  19  20
ATOM     20  C   UNL     1       2.350   7.284  19.575  0.00  0.00    +0.000 C 
ATOM     21  N   UNL     1       2.472   7.594  18.326  0.00  0.00    +0.000 NA
BRANCH  21  22
ATOM     22  N   UNL     1       2.799   8.900  18.087  0.00  0.00    +0.000 N 
ATOM     23  C   UNL     1       1.830   9.885  17.988  0.00  0.00    +0.000 C 
ATOM     24  O   UNL     1       2.157  11.039  17.735  0.00  0.00    +0.000 OA
ATOM     25  N   UNL     1       0.568   9.398  18.222  0.00  0.00    +0.000 N 
ATOM     26  H   UNL     1       3.755   9.189  17.913  0.00  0.00    +0.000 HD
ATOM     27  H   UNL     1       0.592   8.437  18.544  0.00  0.00    +0.000 HD
BRANCH  25  28
ATOM     28  C   UNL     1      -0.638  10.112  18.234  0.00  0.00    +0.000 A 
ATOM     29  C   UNL     1      -0.938  11.072  19.204  0.00  0.00    +0.000 A 
ATOM     30  C   UNL     1      -2.185  11.699  19.217  0.00  0.00    +0.000 A 
ATOM     31  C   UNL     1      -3.136  11.368  18.258  0.00  0.00    +0.000 A 
ATOM     32 CL   UNL     1      -4.697  12.088  18.316  0.00  0.00    +0.000 Cl
ATOM     33  C   UNL     1      -2.835  10.447  17.257  0.00  0.00    +0.000 A 
ATOM     34  C   UNL     1      -1.579   9.830  17.239  0.00  0.00    +0.000 A 
ENDBRANCH  25  28
ENDBRANCH  21  22
ENDBRANCH  19  20
ENDBRANCH  18  19
ENDBRANCH   1  18
TORSDOF 8
ENDMDL
MODEL 4
REMARK VINA RESULT:      -8.3      4.821      6.967
REMARK  Name = 
REMARK  10 active torsions:
REMARK  status: ('A' for Active; 'I' for Inactive)
REMARK    1  A    between atoms: C_1  and  C_2
REMARK    2  A    between atoms: C_2  and  C_3
REMARK    3  A    between atoms: C_2  and  C_4
REMARK    4  A    between atoms: C_8  and  C_9
REMARK    5  A    between atoms: C_9  and  C_10
REMARK    6  A    between atoms: C_10  and  C_11
REMARK    7  A    between atoms: C_11  and  C_12
REMARK    8  A    between atoms: N_13  and  N_14
REMARK    9  A    between atoms: N_17  and  C_18
REMARK   10  A    between atoms: C_26  and  C_27
REMARK                            x       y       z     vdW  Elec       q    Type
REMARK                         _______ _______ _______ _____ _____    ______ ____
ROOT
ATOM      1  C   UNL     1       1.887   8.043  19.888  0.00  0.00    +0.000 C 
ENDROOT
BRANCH   1   6
ATOM      2  C   UNL     1       5.016   4.595  16.742  0.00  0.00    +0.000 A 
ATOM      3  C   UNL     1       4.627   5.994  16.893  0.00  0.00    +0.000 A 
ATOM      4  C   UNL     1       3.820   6.585  17.785  0.00  0.00    +0.000 A 
ATOM      5  C   UNL     1       3.100   5.965  18.865  0.00  0.00    +0.000 A 
ATOM      6  C   UNL     1       2.283   6.602  19.747  0.00  0.00    +0.000 A 
ATOM      7  C   UNL     1       1.740   5.630  20.688  0.00  0.00    +0.000 A 
ATOM      8  C   UNL     1       2.220   4.403  20.418  0.00  0.00    +0.000 A 
ATOM      9  C   UNL     1       3.101   4.550  19.271  0.00  0.00    +0.000 A 
ATOM     10  C   UNL     1       3.791   3.554  18.701  0.00  0.00    +0.000 A 
ATOM     11  C   UNL     1       4.653   3.578  17.546  0.00  0.00    +0.000 A 
BRANCH   2  13
ATOM     12  C   UNL     1       5.260   4.340  14.215  0.00  0.00    +0.000 C 
ATOM     13  C   UNL     1       5.967   4.277  15.573  0.00  0.00    +0.000 C 
ATOM     14  C   UNL     1       7.226   5.149  15.586  0.00  0.00    +0.000 C 
ENDBRANCH   2  13
BRANCH   8  15
ATOM     15  C   UNL     1       1.822   3.161  21.182  0.00  0.00    +0.000 C 
ATOM     16  O   UNL     1       1.036   2.380  20.580  0.00  0.00    +0.000 OA
ATOM     17  O   UNL     1       2.400   3.024  22.306  0.00  0.00    +0.000 OA
ENDBRANCH   8  15
ENDBRANCH   1   6
BRANCH   1  18
ATOM     18  C   UNL     1       1.495   8.392  21.333  0.00  0.00    +0.000 C 
BRANCH  18  19
ATOM     19  C   UNL     1       0.069   8.918  21.464  0.00  0.00    +0.000 C 
BRANCH  19  20
ATOM     20  C   UNL     1      -0.333   9.753  20.281  0.00  0.00    +0.000 C 
ATOM     21  N   UNL     1      -0.677  10.985  20.466  0.00  0.00    +0.000 NA
BRANCH  21  22
ATOM     22  N   UNL     1      -1.061  11.651  19.335  0.00  0.00    +0.000 N 
ATOM     23  C   UNL     1      -0.303  12.683  18.807  0.00  0.00    +0.000 C 
ATOM     24  O   UNL     1      -0.698  13.282  17.814  0.00  0.00    +0.000 OA
ATOM     25  N   UNL     1       0.862  12.883  19.505  0.00  0.00    +0.000 N 
ATOM     26  H   UNL     1      -1.944  11.457  18.874  0.00  0.00    +0.000 HD
ATOM     27  H   UNL     1       1.009  12.160  20.200  0.00  0.00    +0.000 HD
BRANCH  25  28
ATOM     28  C   UNL     1       1.873  13.814  19.236  0.00  0.00    +0.000 A 
ATOM     29  C   UNL     1       2.970  13.525  18.422  0.00  0.00    +0.000 A 
ATOM     30  C   UNL     1       3.991  14.462  18.249  0.00  0.00    +0.000 A 
ATOM     31  C   UNL     1       3.915  15.694  18.890  0.00  0.00    +0.000 A 
ATOM     32 CL   UNL     1       5.205  16.821  18.734  0.00  0.00    +0.000 Cl
ATOM     33  C   UNL     1       2.804  16.014  19.668  0.00  0.00    +0.000 A 
ATOM     34  C   UNL     1       1.777  15.078  19.828  0.00  0.00    +0.000 A 
ENDBRANCH  25  28
ENDBRANCH  21  22
ENDBRANCH  19  20
ENDBRANCH  18  19
ENDBRANCH   1  18
TORSDOF 8
ENDMDL
MODEL 5
REMARK VINA RESULT:      -8.2      6.224      9.055
REMARK  Name = 
REMARK  10 active torsions:
REMARK  status: ('A' for Active; 'I' for Inactive)
REMARK    1  A    between atoms: C_1  and  C_2
REMARK    2  A    between atoms: C_2  and  C_3
REMARK    3  A    between atoms: C_2  and  C_4
REMARK    4  A    between atoms: C_8  and  C_9
REMARK    5  A    between atoms: C_9  and  C_10
REMARK    6  A    between atoms: C_10  and  C_11
REMARK    7  A    between atoms: C_11  and  C_12
REMARK    8  A    between atoms: N_13  and  N_14
REMARK    9  A    between atoms: N_17  and  C_18
REMARK   10  A    between atoms: C_26  and  C_27
REMARK                            x       y       z     vdW  Elec       q    Type
REMARK                         _______ _______ _______ _____ _____    ______ ____
ROOT
ATOM      1  C   UNL     1       1.624   8.079  20.227  0.00  0.00    +0.000 C 
ENDROOT
BRANCH   1   6
ATOM      2  C   UNL     1       5.060   4.917  17.101  0.00  0.00    +0.000 A 
ATOM      3  C   UNL     1       4.597   6.289  17.290  0.00  0.00    +0.000 A 
ATOM      4  C   UNL     1       3.721   6.803  18.164  0.00  0.00    +0.000 A 
ATOM      5  C   UNL     1       2.982   6.105  19.181  0.00  0.00    +0.000 A 
ATOM      6  C   UNL     1       2.095   6.665  20.047  0.00  0.00    +0.000 A 
ATOM      7  C   UNL     1       1.557   5.630  20.921  0.00  0.00    +0.000 A 
ATOM      8  C   UNL     1       2.108   4.440  20.627  0.00  0.00    +0.000 A 
ATOM      9  C   UNL     1       3.033   4.675  19.531  0.00  0.00    +0.000 A 
ATOM     10  C   UNL     1       3.797   3.738  18.955  0.00  0.00    +0.000 A 
ATOM     11  C   UNL     1       4.709   3.850  17.846  0.00  0.00    +0.000 A 
BRANCH   2  13
ATOM     12  C   UNL     1       5.413   4.646  14.589  0.00  0.00    +0.000 C 
ATOM     13  C   UNL     1       6.079   4.693  15.968  0.00  0.00    +0.000 C 
ATOM     14  C   UNL     1       7.224   5.709  15.999  0.00  0.00    +0.000 C 
ENDBRANCH   2  13
BRANCH   8  15
ATOM     15  C   UNL     1       1.736   3.149  21.320  0.00  0.00    +0.000 C 
ATOM     16  O   UNL     1       0.940   2.401  20.688  0.00  0.00    +0.000 OA
ATOM     17  O   UNL     1       2.340   2.946  22.419  0.00  0.00    +0.000 OA
ENDBRANCH   8  15
ENDBRANCH   1   6
BRANCH   1  18
ATOM     18  C   UNL     1       1.750   8.546  21.686  0.00  0.00    +0.000 C 
BRANCH  18  19
ATOM     19  C   UNL     1       0.560   9.374  22.162  0.00  0.00    +0.000 C 
BRANCH  19  20
ATOM     20  C   UNL     1       0.426  10.660  21.396  0.00  0.00    +0.000 C 
ATOM     21  N   UNL     1      -0.655  11.357  21.517  0.00  0.00    +0.000 NA
BRANCH  21  22
ATOM     22  N   UNL     1      -0.697  12.490  20.753  0.00  0.00    +0.000 N 
ATOM     23  C   UNL     1      -1.202  12.477  19.463  0.00  0.00    +0.000 C 
ATOM     24  O   UNL     1      -1.189  13.503  18.793  0.00  0.00    +0.000 OA
ATOM     25  N   UNL     1      -1.692  11.244  19.108  0.00  0.00    +0.000 N 
ATOM     26  H   UNL     1      -0.307  13.369  21.075  0.00  0.00    +0.000 HD
ATOM     27  H   UNL     1      -1.705  10.607  19.897  0.00  0.00    +0.000 HD
BRANCH  25  28
ATOM     28  C   UNL     1      -2.299  10.878  17.899  0.00  0.00    +0.000 A 
ATOM     29  C   UNL     1      -1.748   9.932  17.033  0.00  0.00    +0.000 A 
ATOM     30  C   UNL     1      -2.352   9.661  15.803  0.00  0.00    +0.000 A 
ATOM     31  C   UNL     1      -3.512  10.336  15.439  0.00  0.00    +0.000 A 
ATOM     32 CL   UNL     1      -4.217  10.054  13.895  0.00  0.00    +0.000 Cl
ATOM     33  C   UNL     1      -4.098  11.249  16.312  0.00  0.00    +0.000 A 
ATOM     34  C   UNL     1      -3.497  11.509  17.549  0.00  0.00    +0.000 A 
ENDBRANCH  25  28
ENDBRANCH  21  22
ENDBRANCH  19  20
ENDBRANCH  18  19
ENDBRANCH   1  18
TORSDOF 8
ENDMDL
MODEL 6
REMARK VINA RESULT:      -8.2      6.353      9.500
REMARK  Name = 
REMARK  10 active torsions:
REMARK  status: ('A' for Active; 'I' for Inactive)
REMARK    1  A    between atoms: C_1  and  C_2
REMARK    2  A    between atoms: C_2  and  C_3
REMARK    3  A    between atoms: C_2  and  C_4
REMARK    4  A    between atoms: C_8  and  C_9
REMARK    5  A    between atoms: C_9  and  C_10
REMARK    6  A    between atoms: C_10  and  C_11
REMARK    7  A    between atoms: C_11  and  C_12
REMARK    8  A    between atoms: N_13  and  N_14
REMARK    9  A    between atoms: N_17  and  C_18
REMARK   10  A    between atoms: C_26  and  C_27
REMARK                            x       y       z     vdW  Elec       q    Type
REMARK                         _______ _______ _______ _____ _____    ______ ____
ROOT
ATOM      1  C   UNL     1       1.866   7.992  20.072  0.00  0.00    +0.000 C 
ENDROOT
BRANCH   1   6
ATOM      2  C   UNL     1       5.010   5.217  16.332  0.00  0.00    +0.000 A 
ATOM      3  C   UNL     1       4.562   6.556  16.705  0.00  0.00    +0.000 A 
ATOM      4  C   UNL     1       3.769   6.965  17.705  0.00  0.00    +0.000 A 
ATOM      5  C   UNL     1       3.128   6.155  18.706  0.00  0.00    +0.000 A 
ATOM      6  C   UNL     1       2.323   6.611  19.703  0.00  0.00    +0.000 A 
ATOM      7  C   UNL     1       1.870   5.484  20.509  0.00  0.00    +0.000 A 
ATOM      8  C   UNL     1       2.395   4.338  20.042  0.00  0.00    +0.000 A 
ATOM      9  C   UNL     1       3.215   4.698  18.897  0.00  0.00    +0.000 A 
ATOM     10  C   UNL     1       3.926   3.835  18.159  0.00  0.00    +0.000 A 
ATOM     11  C   UNL     1       4.732   4.074  16.990  0.00  0.00    +0.000 A 
BRANCH   2  13
ATOM     12  C   UNL     1       7.398   4.958  15.472  0.00  0.00    +0.000 C 
ATOM     13  C   UNL     1       5.922   5.125  15.094  0.00  0.00    +0.000 C 
ATOM     14  C   UNL     1       5.471   4.039  14.113  0.00  0.00    +0.000 C 
ENDBRANCH   2  13
BRANCH   8  15
ATOM     15  C   UNL     1       2.091   2.977  20.626  0.00  0.00    +0.000 C 
ATOM     16  O   UNL     1       1.054   2.413  20.183  0.00  0.00    +0.000 OA
ATOM     17  O   UNL     1       2.971   2.540  21.433  0.00  0.00    +0.000 OA
ENDBRANCH   8  15
ENDBRANCH   1   6
BRANCH   1  18
ATOM     18  C   UNL     1       1.103   8.008  21.407  0.00  0.00    +0.000 C 
BRANCH  18  19
ATOM     19  C   UNL     1      -0.100   8.947  21.407  0.00  0.00    +0.000 C 
BRANCH  19  20
ATOM     20  C   UNL     1       0.012  10.003  20.343  0.00  0.00    +0.000 C 
ATOM     21  N   UNL     1       0.311  11.213  20.685  0.00  0.00    +0.000 NA
BRANCH  21  22
ATOM     22  N   UNL     1       0.352  12.108  19.653  0.00  0.00    +0.000 N 
ATOM     23  C   UNL     1      -0.785  12.441  18.935  0.00  0.00    +0.000 C 
ATOM     24  O   UNL     1      -0.704  13.219  17.990  0.00  0.00    +0.000 OA
ATOM     25  N   UNL     1      -1.910  11.828  19.428  0.00  0.00    +0.000 N 
ATOM     26  H   UNL     1       1.223  12.518  19.333  0.00  0.00    +0.000 HD
ATOM     27  H   UNL     1      -1.720  11.345  20.299  0.00  0.00    +0.000 HD
BRANCH  25  28
ATOM     28  C   UNL     1      -3.228  11.959  18.970  0.00  0.00    +0.000 A 
ATOM     29  C   UNL     1      -3.649  11.473  17.731  0.00  0.00    +0.000 A 
ATOM     30  C   UNL     1      -4.954  11.698  17.288  0.00  0.00    +0.000 A 
ATOM     31  C   UNL     1      -5.843  12.410  18.087  0.00  0.00    +0.000 A 
ATOM     32 CL   UNL     1      -7.428  12.749  17.512  0.00  0.00    +0.000 Cl
ATOM     33  C   UNL     1      -5.450  12.861  19.345  0.00  0.00    +0.000 A 
ATOM     34  C   UNL     1      -4.146  12.622  19.792  0.00  0.00    +0.000 A 
ENDBRANCH  25  28
ENDBRANCH  21  22
ENDBRANCH  19  20
ENDBRANCH  18  19
ENDBRANCH   1  18
TORSDOF 8
ENDMDL
MODEL 7
REMARK VINA RESULT:      -8.2      6.360      9.068
REMARK  Name = 
REMARK  10 active torsions:
REMARK  status: ('A' for Active; 'I' for Inactive)
REMARK    1  A    between atoms: C_1  and  C_2
REMARK    2  A    between atoms: C_2  and  C_3
REMARK    3  A    between atoms: C_2  and  C_4
REMARK    4  A    between atoms: C_8  and  C_9
REMARK    5  A    between atoms: C_9  and  C_10
REMARK    6  A    between atoms: C_10  and  C_11
REMARK    7  A    between atoms: C_11  and  C_12
REMARK    8  A    between atoms: N_13  and  N_14
REMARK    9  A    between atoms: N_17  and  C_18
REMARK   10  A    between atoms: C_26  and  C_27
REMARK                            x       y       z     vdW  Elec       q    Type
REMARK                         _______ _______ _______ _____ _____    ______ ____
ROOT
ATOM      1  C   UNL     1       2.130   7.718  19.744  0.00  0.00    +0.000 C 
ENDROOT
BRANCH   1   6
ATOM      2  C   UNL     1       5.058   4.360  16.320  0.00  0.00    +0.000 A 
ATOM      3  C   UNL     1       4.877   5.759  16.697  0.00  0.00    +0.000 A 
ATOM      4  C   UNL     1       4.065   6.322  17.601  0.00  0.00    +0.000 A 
ATOM      5  C   UNL     1       3.123   5.664  18.467  0.00  0.00    +0.000 A 
ATOM      6  C   UNL     1       2.310   6.276  19.370  0.00  0.00    +0.000 A 
ATOM      7  C   UNL     1       1.504   5.269  20.051  0.00  0.00    +0.000 A 
ATOM      8  C   UNL     1       1.816   4.041  19.600  0.00  0.00    +0.000 A 
ATOM      9  C   UNL     1       2.849   4.223  18.594  0.00  0.00    +0.000 A 
ATOM     10  C   UNL     1       3.442   3.233  17.915  0.00  0.00    +0.000 A 
ATOM     11  C   UNL     1       4.438   3.300  16.876  0.00  0.00    +0.000 A 
BRANCH   2  13
ATOM     12  C   UNL     1       5.449   4.044  13.818  0.00  0.00    +0.000 C 
ATOM     13  C   UNL     1       6.089   4.082  15.210  0.00  0.00    +0.000 C 
ATOM     14  C   UNL     1       7.273   5.053  15.253  0.00  0.00    +0.000 C 
ENDBRANCH   2  13
BRANCH   8  15
ATOM     15  C   UNL     1       1.133   2.778  20.070  0.00  0.00    +0.000 C 
ATOM     16  O   UNL     1       0.365   2.230  19.232  0.00  0.00    +0.000 OA
ATOM     17  O   UNL     1       1.486   2.384  21.226  0.00  0.00    +0.000 OA
ENDBRANCH   8  15
ENDBRANCH   1   6
BRANCH   1  18
ATOM     18  C   UNL     1       1.208   7.886  20.962  0.00  0.00    +0.000 C 
BRANCH  18  19
ATOM     19  C   UNL     1       1.440   9.187  21.724  0.00  0.00    +0.000 C 
BRANCH  19  20
ATOM     20  C   UNL     1       0.206  10.045  21.760  0.00  0.00    +0.000 C 
ATOM     21  N   UNL     1       0.332  11.331  21.752  0.00  0.00    +0.000 NA
BRANCH  21  22
ATOM     22  N   UNL     1      -0.844  12.024  21.824  0.00  0.00    +0.000 N 
ATOM     23  C   UNL     1      -1.726  12.072  20.756  0.00  0.00    +0.000 C 
ATOM     24  O   UNL     1      -2.753  12.735  20.843  0.00  0.00    +0.000 OA
ATOM     25  N   UNL     1      -1.302  11.307  19.698  0.00  0.00    +0.000 N 
ATOM     26  H   UNL     1      -1.091  12.578  22.637  0.00  0.00    +0.000 HD
ATOM     27  H   UNL     1      -0.488  10.753  19.939  0.00  0.00    +0.000 HD
BRANCH  25  28
ATOM     28  C   UNL     1      -1.954  11.100  18.474  0.00  0.00    +0.000 A 
ATOM     29  C   UNL     1      -3.123  11.775  18.117  0.00  0.00    +0.000 A 
ATOM     30  C   UNL     1      -3.777  11.475  16.921  0.00  0.00    +0.000 A 
ATOM     31  C   UNL     1      -3.260  10.498  16.076  0.00  0.00    +0.000 A 
ATOM     32 CL   UNL     1      -4.103  10.078  14.636  0.00  0.00    +0.000 Cl
ATOM     33  C   UNL     1      -2.070   9.849  16.397  0.00  0.00    +0.000 A 
ATOM     34  C   UNL     1      -1.410  10.162  17.591  0.00  0.00    +0.000 A 
ENDBRANCH  25  28
ENDBRANCH  21  22
ENDBRANCH  19  20
ENDBRANCH  18  19
ENDBRANCH   1  18
TORSDOF 8
ENDMDL
MODEL 8
REMARK VINA RESULT:      -8.2      6.358      9.380
REMARK  Name = 
REMARK  10 active torsions:
REMARK  status: ('A' for Active; 'I' for Inactive)
REMARK    1  A    between atoms: C_1  and  C_2
REMARK    2  A    between atoms: C_2  and  C_3
REMARK    3  A    between atoms: C_2  and  C_4
REMARK    4  A    between atoms: C_8  and  C_9
REMARK    5  A    between atoms: C_9  and  C_10
REMARK    6  A    between atoms: C_10  and  C_11
REMARK    7  A    between atoms: C_11  and  C_12
REMARK    8  A    between atoms: N_13  and  N_14
REMARK    9  A    between atoms: N_17  and  C_18
REMARK   10  A    between atoms: C_26  and  C_27
REMARK                            x       y       z     vdW  Elec       q    Type
REMARK                         _______ _______ _______ _____ _____    ______ ____
ROOT
ATOM      1  C   UNL     1       2.107   7.712  20.428  0.00  0.00    +0.000 C 
ENDROOT
BRANCH   1   6
ATOM      2  C   UNL     1       4.871   5.160  16.253  0.00  0.00    +0.000 A 
ATOM      3  C   UNL     1       4.695   6.453  16.908  0.00  0.00    +0.000 A 
ATOM      4  C   UNL     1       3.930   6.809  17.949  0.00  0.00    +0.000 A 
ATOM      5  C   UNL     1       3.049   5.972  18.719  0.00  0.00    +0.000 A 
ATOM      6  C   UNL     1       2.283   6.375  19.768  0.00  0.00    +0.000 A 
ATOM      7  C   UNL     1       1.532   5.236  20.281  0.00  0.00    +0.000 A 
ATOM      8  C   UNL     1       1.832   4.128  19.582  0.00  0.00    +0.000 A 
ATOM      9  C   UNL     1       2.802   4.528  18.575  0.00  0.00    +0.000 A 
ATOM     10  C   UNL     1       3.366   3.704  17.682  0.00  0.00    +0.000 A 
ATOM     11  C   UNL     1       4.298   3.998  16.624  0.00  0.00    +0.000 A 
BRANCH   2  13
ATOM     12  C   UNL     1       7.301   4.997  15.495  0.00  0.00    +0.000 C 
ATOM     13  C   UNL     1       5.839   5.129  15.056  0.00  0.00    +0.000 C 
ATOM     14  C   UNL     1       5.467   4.058  14.028  0.00  0.00    +0.000 C 
ENDBRANCH   2  13
BRANCH   8  15
ATOM     15  C   UNL     1       1.194   2.781  19.831  0.00  0.00    +0.000 C 
ATOM     16  O   UNL     1       1.506   2.222  20.918  0.00  0.00    +0.000 OA
ATOM     17  O   UNL     1       0.357   2.421  18.944  0.00  0.00    +0.000 OA
ENDBRANCH   8  15
ENDBRANCH   1   6
BRANCH   1  18
ATOM     18  C   UNL     1       1.025   8.557  19.738  0.00  0.00    +0.000 C 
BRANCH  18  19
ATOM     19  C   UNL     1       1.542   9.341  18.536  0.00  0.00    +0.000 C 
BRANCH  19  20
ATOM     20  C   UNL     1       1.330  10.821  18.697  0.00  0.00    +0.000 C 
ATOM     21  N   UNL     1       0.691  11.257  19.732  0.00  0.00    +0.000 NA
BRANCH  21  22
ATOM     22  N   UNL     1       0.518  12.613  19.771  0.00  0.00    +0.000 N 
ATOM     23  C   UNL     1      -0.561  13.188  20.422  0.00  0.00    +0.000 C 
ATOM     24  O   UNL     1      -0.705  14.406  20.403  0.00  0.00    +0.000 OA
ATOM     25  N   UNL     1      -1.348  12.255  21.049  0.00  0.00    +0.000 N 
ATOM     26  H   UNL     1       1.136  13.246  19.275  0.00  0.00    +0.000 HD
ATOM     27  H   UNL     1      -0.928  11.333  21.022  0.00  0.00    +0.000 HD
BRANCH  25  28
ATOM     28  C   UNL     1      -2.496  12.481  21.821  0.00  0.00    +0.000 A 
ATOM     29  C   UNL     1      -2.511  12.345  23.211  0.00  0.00    +0.000 A 
ATOM     30  C   UNL     1      -3.700  12.504  23.925  0.00  0.00    +0.000 A 
ATOM     31  C   UNL     1      -4.878  12.804  23.250  0.00  0.00    +0.000 A 
ATOM     32 CL   UNL     1      -6.356  12.931  24.121  0.00  0.00    +0.000 Cl
ATOM     33  C   UNL     1      -4.869  12.989  21.869  0.00  0.00    +0.000 A 
ATOM     34  C   UNL     1      -3.674  12.840  21.157  0.00  0.00    +0.000 A 
ENDBRANCH  25  28
ENDBRANCH  21  22
ENDBRANCH  19  20
ENDBRANCH  18  19
ENDBRANCH   1  18
TORSDOF 8
ENDMDL
MODEL 9
REMARK VINA RESULT:      -8.1      4.636      6.813
REMARK  Name = 
REMARK  10 active torsions:
REMARK  status: ('A' for Active; 'I' for Inactive)
REMARK    1  A    between atoms: C_1  and  C_2
REMARK    2  A    between atoms: C_2  and  C_3
REMARK    3  A    between atoms: C_2  and  C_4
REMARK    4  A    between atoms: C_8  and  C_9
REMARK    5  A    between atoms: C_9  and  C_10
REMARK    6  A    between atoms: C_10  and  C_11
REMARK    7  A    between atoms: C_11  and  C_12
REMARK    8  A    between atoms: N_13  and  N_14
REMARK    9  A    between atoms: N_17  and  C_18
REMARK   10  A    between atoms: C_26  and  C_27
REMARK                            x       y       z     vdW  Elec       q    Type
REMARK                         _______ _______ _______ _____ _____    ______ ____
ROOT
ATOM      1  C   UNL     1       1.432   8.319  20.141  0.00  0.00    +0.000 C 
ENDROOT
BRANCH   1   6
ATOM      2  C   UNL     1       4.905   5.453  16.779  0.00  0.00    +0.000 A 
ATOM      3  C   UNL     1       4.370   6.789  17.027  0.00  0.00    +0.000 A 
ATOM      4  C   UNL     1       3.505   7.227  17.953  0.00  0.00    +0.000 A 
ATOM      5  C   UNL     1       2.856   6.459  18.981  0.00  0.00    +0.000 A 
ATOM      6  C   UNL     1       1.978   6.941  19.901  0.00  0.00    +0.000 A 
ATOM      7  C   UNL     1       1.543   5.854  20.768  0.00  0.00    +0.000 A 
ATOM      8  C   UNL     1       2.150   4.707  20.416  0.00  0.00    +0.000 A 
ATOM      9  C   UNL     1       3.009   5.026  19.287  0.00  0.00    +0.000 A 
ATOM     10  C   UNL     1       3.800   4.152  18.652  0.00  0.00    +0.000 A 
ATOM     11  C   UNL     1       4.652   4.349  17.508  0.00  0.00    +0.000 A 
BRANCH   2  13
ATOM     12  C   UNL     1       7.271   4.848  16.042  0.00  0.00    +0.000 C 
ATOM     13  C   UNL     1       5.883   5.321  15.597  0.00  0.00    +0.000 C 
ATOM     14  C   UNL     1       5.329   4.441  14.472  0.00  0.00    +0.000 C 
ENDBRANCH   2  13
BRANCH   8  15
ATOM     15  C   UNL     1       1.887   3.378  21.087  0.00  0.00    +0.000 C 
ATOM     16  O   UNL     1       1.127   2.591  20.460  0.00  0.00    +0.000 OA
ATOM     17  O   UNL     1       2.535   3.194  22.164  0.00  0.00    +0.000 OA
ENDBRANCH   8  15
ENDBRANCH   1   6
BRANCH   1  18
ATOM     18  C   UNL     1       1.224   8.602  21.638  0.00  0.00    +0.000 C 
BRANCH  18  19
ATOM     19  C   UNL     1      -0.231   8.881  22.006  0.00  0.00    +0.000 C 
BRANCH  19  20
ATOM     20  C   UNL     1      -0.483  10.346  22.227  0.00  0.00    +0.000 C 
ATOM     21  N   UNL     1      -0.421  11.156  21.221  0.00  0.00    +0.000 NA
BRANCH  21  22
ATOM     22  N   UNL     1      -0.629  12.471  21.529  0.00  0.00    +0.000 N 
ATOM     23  C   UNL     1       0.319  13.442  21.245  0.00  0.00    +0.000 C 
ATOM     24  O   UNL     1       0.115  14.606  21.571  0.00  0.00    +0.000 OA
ATOM     25  N   UNL     1       1.407  12.929  20.584  0.00  0.00    +0.000 N 
ATOM     26  H   UNL     1      -1.455  12.780  22.030  0.00  0.00    +0.000 HD
ATOM     27  H   UNL     1       1.260  11.962  20.317  0.00  0.00    +0.000 HD
BRANCH  25  28
ATOM     28  C   UNL     1       2.532  13.623  20.118  0.00  0.00    +0.000 A 
ATOM     29  C   UNL     1       3.527  14.107  20.970  0.00  0.00    +0.000 A 
ATOM     30  C   UNL     1       4.588  14.860  20.464  0.00  0.00    +0.000 A 
ATOM     31  C   UNL     1       4.657  15.129  19.101  0.00  0.00    +0.000 A 
ATOM     32 CL   UNL     1       5.925  16.116  18.486  0.00  0.00    +0.000 Cl
ATOM     33  C   UNL     1       3.697  14.613  18.233  0.00  0.00    +0.000 A 
ATOM     34  C   UNL     1       2.642  13.848  18.742  0.00  0.00    +0.000 A 
ENDBRANCH  25  28
ENDBRANCH  21  22
ENDBRANCH  19  20
ENDBRANCH  18  19
ENDBRANCH   1  18
TORSDOF 8
ENDMDL
