MODEL 1
REMARK VINA RESULT:      -8.2      0.000      0.000
REMARK  Name = 
REMARK  0 active torsions:
REMARK  status: ('A' for Active; 'I' for Inactive)
REMARK                            x       y       z     vdW  Elec       q    Type
REMARK                         _______ _______ _______ _____ _____    ______ ____
ROOT
ATOM      1  O   UNL     1       0.684  11.739  18.301  0.00  0.00    +0.000 OA
ATOM      2  C   UNL     1       0.183  12.225  19.308  0.00  0.00    +0.000 C 
ATOM      3  N   UNL     1       0.877  13.036  20.172  0.00  0.00    +0.000 N 
ATOM      4  C   UNL     1       0.214  13.322  21.344  0.00  0.00    +0.000 C 
ATOM      5  O   UNL     1       0.784  13.756  22.325  0.00  0.00    +0.000 OA
ATOM      6  C   UNL     1      -1.138  12.978  21.037  0.00  0.00    +0.000 A 
ATOM      7  C   UNL     1      -1.138  12.237  19.843  0.00  0.00    +0.000 A 
ATOM      8  C   UNL     1      -2.373  11.875  19.266  0.00  0.00    +0.000 A 
ATOM      9  C   UNL     1      -2.521  11.084  18.149  0.00  0.00    +0.000 A 
ATOM     10  C   UNL     1      -1.803  10.071  17.487  0.00  0.00    +0.000 A 
ATOM     11  C   UNL     1      -2.289   9.584  16.276  0.00  0.00    +0.000 A 
ATOM     12  C   UNL     1      -3.414  10.163  15.702  0.00  0.00    +0.000 A 
ATOM     13  F   UNL     1      -3.791   9.759  14.480  0.00  0.00    +0.000 F 
ATOM     14  C   UNL     1      -4.179  11.131  16.364  0.00  0.00    +0.000 A 
ATOM     15  C   UNL     1      -3.766  11.509  17.649  0.00  0.00    +0.000 A 
ATOM     16  N   UNL     1      -4.380  12.304  18.633  0.00  0.00    +0.000 N 
ATOM     17  C   UNL     1      -3.510  12.496  19.678  0.00  0.00    +0.000 A 
ATOM     18  C   UNL     1      -3.537  13.155  20.895  0.00  0.00    +0.000 A 
ATOM     19  C   UNL     1      -2.379  13.349  21.607  0.00  0.00    +0.000 A 
ATOM     20  C   UNL     1      -2.533  14.053  22.797  0.00  0.00    +0.000 A 
ATOM     21  C   UNL     1      -1.766  14.526  23.879  0.00  0.00    +0.000 A 
ATOM     22  C   UNL     1      -2.410  15.184  24.939  0.00  0.00    +0.000 A 
ATOM     23  C   UNL     1      -3.792  15.348  24.948  0.00  0.00    +0.000 A 
ATOM     24  C   UNL     1      -4.582  14.863  23.894  0.00  0.00    +0.000 A 
ATOM     25  C   UNL     1      -3.909  14.245  22.835  0.00  0.00    +0.000 A 
ATOM     26  N   UNL     1      -4.501  13.714  21.686  0.00  0.00    +0.000 N 
ATOM     27  C   UNL     1      -5.949  13.745  21.559  0.00  0.00    +0.000 C 
ATOM     28  C   UNL     1      -6.651  13.861  22.934  0.00  0.00    +0.000 C 
ATOM     29  C   UNL     1      -6.086  14.976  23.825  0.00  0.00    +0.000 C 
ATOM     30  H   UNL     1       1.219  13.869  19.710  0.00  0.00    +0.000 HD
ATOM     31  H   UNL     1      -5.296  12.723  18.534  0.00  0.00    +0.000 HD
ENDROOT
TORSDOF 0
ENDMDL
MODEL 2
REMARK VINA RESULT:      -7.9      2.839      4.490
REMARK  Name = 
REMARK  0 active torsions:
REMARK  status: ('A' for Active; 'I' for Inactive)
REMARK                            x       y       z     vdW  Elec       q    Type
REMARK                         _______ _______ _______ _____ _____    ______ ____
ROOT
ATOM      1  O   UNL     1      -2.274   9.429  16.686  0.00  0.00    +0.000 OA
ATOM      2  C   UNL     1      -2.745  10.310  17.395  0.00  0.00    +0.000 C 
ATOM      3  N   UNL     1      -4.045  10.740  17.292  0.00  0.00    +0.000 N 
ATOM      4  C   UNL     1      -4.334  11.867  18.028  0.00  0.00    +0.000 C 
ATOM      5  O   UNL     1      -5.320  12.545  17.820  0.00  0.00    +0.000 OA
ATOM      6  C   UNL     1      -3.246  11.932  18.951  0.00  0.00    +0.000 A 
ATOM      7  C   UNL     1      -2.248  11.046  18.510  0.00  0.00    +0.000 A 
ATOM      8  C   UNL     1      -1.110  10.844  19.320  0.00  0.00    +0.000 A 
ATOM      9  C   UNL     1      -0.024  10.073  18.975  0.00  0.00    +0.000 A 
ATOM     10  C   UNL     1       0.614   9.637  17.799  0.00  0.00    +0.000 A 
ATOM     11  C   UNL     1       1.679   8.745  17.904  0.00  0.00    +0.000 A 
ATOM     12  C   UNL     1       2.032   8.235  19.147  0.00  0.00    +0.000 A 
ATOM     13  F   UNL     1       2.979   7.287  19.206  0.00  0.00    +0.000 F 
ATOM     14  C   UNL     1       1.454   8.693  20.337  0.00  0.00    +0.000 A 
ATOM     15  C   UNL     1       0.485   9.702  20.234  0.00  0.00    +0.000 A 
ATOM     16  N   UNL     1      -0.155  10.487  21.209  0.00  0.00    +0.000 N 
ATOM     17  C   UNL     1      -1.136  11.245  20.619  0.00  0.00    +0.000 A 
ATOM     18  C   UNL     1      -2.065  12.182  21.036  0.00  0.00    +0.000 A 
ATOM     19  C   UNL     1      -3.080  12.576  20.200  0.00  0.00    +0.000 A 
ATOM     20  C   UNL     1      -3.967  13.497  20.748  0.00  0.00    +0.000 A 
ATOM     21  C   UNL     1      -5.123  14.222  20.399  0.00  0.00    +0.000 A 
ATOM     22  C   UNL     1      -5.669  15.126  21.325  0.00  0.00    +0.000 A 
ATOM     23  C   UNL     1      -5.069  15.335  22.563  0.00  0.00    +0.000 A 
ATOM     24  C   UNL     1      -3.901  14.646  22.925  0.00  0.00    +0.000 A 
ATOM     25  C   UNL     1      -3.402  13.725  21.997  0.00  0.00    +0.000 A 
ATOM     26  N   UNL     1      -2.269  12.924  22.166  0.00  0.00    +0.000 N 
ATOM     27  C   UNL     1      -1.484  13.059  23.381  0.00  0.00    +0.000 C 
ATOM     28  C   UNL     1      -1.694  14.435  24.060  0.00  0.00    +0.000 C 
ATOM     29  C   UNL     1      -3.169  14.820  24.233  0.00  0.00    +0.000 C 
ATOM     30  H   UNL     1      -4.702   9.989  17.463  0.00  0.00    +0.000 HD
ATOM     31  H   UNL     1       0.041  10.432  22.201  0.00  0.00    +0.000 HD
ENDROOT
TORSDOF 0
ENDMDL
MODEL 3
REMARK VINA RESULT:      -7.9      7.336      9.538
REMARK  Name = 
REMARK  0 active torsions:
REMARK  status: ('A' for Active; 'I' for Inactive)
REMARK                            x       y       z     vdW  Elec       q    Type
REMARK                         _______ _______ _______ _____ _____    ______ ____
ROOT
ATOM      1  O   UNL     1       4.763   2.618  18.716  0.00  0.00    +0.000 OA
ATOM      2  C   UNL     1       4.015   3.483  19.157  0.00  0.00    +0.000 C 
ATOM      3  N   UNL     1       3.512   3.458  20.434  0.00  0.00    +0.000 N 
ATOM      4  C   UNL     1       2.537   4.398  20.683  0.00  0.00    +0.000 C 
ATOM      5  O   UNL     1       1.786   4.320  21.634  0.00  0.00    +0.000 OA
ATOM      6  C   UNL     1       2.704   5.322  19.607  0.00  0.00    +0.000 A 
ATOM      7  C   UNL     1       3.533   4.723  18.644  0.00  0.00    +0.000 A 
ATOM      8  C   UNL     1       3.942   5.484  17.528  0.00  0.00    +0.000 A 
ATOM      9  C   UNL     1       4.682   5.002  16.473  0.00  0.00    +0.000 A 
ATOM     10  C   UNL     1       4.911   3.768  15.838  0.00  0.00    +0.000 A 
ATOM     11  C   UNL     1       5.856   3.702  14.816  0.00  0.00    +0.000 A 
ATOM     12  C   UNL     1       6.614   4.824  14.505  0.00  0.00    +0.000 A 
ATOM     13  F   UNL     1       7.598   4.703  13.602  0.00  0.00    +0.000 F 
ATOM     14  C   UNL     1       6.368   6.077  15.079  0.00  0.00    +0.000 A 
ATOM     15  C   UNL     1       5.315   6.167  16.000  0.00  0.00    +0.000 A 
ATOM     16  N   UNL     1       4.705   7.273  16.618  0.00  0.00    +0.000 N 
ATOM     17  C   UNL     1       3.801   6.836  17.555  0.00  0.00    +0.000 A 
ATOM     18  C   UNL     1       2.920   7.422  18.447  0.00  0.00    +0.000 A 
ATOM     19  C   UNL     1       2.324   6.673  19.431  0.00  0.00    +0.000 A 
ATOM     20  C   UNL     1       1.486   7.385  20.283  0.00  0.00    +0.000 A 
ATOM     21  C   UNL     1       0.653   7.178  21.400  0.00  0.00    +0.000 A 
ATOM     22  C   UNL     1      -0.079   8.259  21.919  0.00  0.00    +0.000 A 
ATOM     23  C   UNL     1      -0.014   9.517  21.328  0.00  0.00    +0.000 A 
ATOM     24  C   UNL     1       0.787   9.744  20.198  0.00  0.00    +0.000 A 
ATOM     25  C   UNL     1       1.532   8.658  19.727  0.00  0.00    +0.000 A 
ATOM     26  N   UNL     1       2.403   8.674  18.634  0.00  0.00    +0.000 N 
ATOM     27  C   UNL     1       2.544   9.897  17.862  0.00  0.00    +0.000 C 
ATOM     28  C   UNL     1       1.317  10.829  18.020  0.00  0.00    +0.000 C 
ATOM     29  C   UNL     1       0.905  11.066  19.479  0.00  0.00    +0.000 C 
ATOM     30  H   UNL     1       4.250   3.475  21.127  0.00  0.00    +0.000 HD
ATOM     31  H   UNL     1       4.961   8.236  16.440  0.00  0.00    +0.000 HD
ENDROOT
TORSDOF 0
ENDMDL
MODEL 4
REMARK VINA RESULT:      -7.7      3.590      7.621
REMARK  Name = 
REMARK  0 active torsions:
REMARK  status: ('A' for Active; 'I' for Inactive)
REMARK                            x       y       z     vdW  Elec       q    Type
REMARK                         _______ _______ _______ _____ _____    ______ ____
ROOT
ATOM      1  O   UNL     1      -7.698  15.289  20.321  0.00  0.00    +0.000 OA
ATOM      2  C   UNL     1      -7.016  14.453  19.742  0.00  0.00    +0.000 C 
ATOM      3  N   UNL     1      -7.216  14.101  18.429  0.00  0.00    +0.000 N 
ATOM      4  C   UNL     1      -6.488  13.009  18.013  0.00  0.00    +0.000 C 
ATOM      5  O   UNL     1      -6.765  12.389  17.006  0.00  0.00    +0.000 OA
ATOM      6  C   UNL     1      -5.480  12.897  19.018  0.00  0.00    +0.000 A 
ATOM      7  C   UNL     1      -5.853  13.711  20.101  0.00  0.00    +0.000 A 
ATOM      8  C   UNL     1      -4.957  13.860  21.182  0.00  0.00    +0.000 A 
ATOM      9  C   UNL     1      -5.225  14.556  22.338  0.00  0.00    +0.000 A 
ATOM     10  C   UNL     1      -6.352  14.928  23.093  0.00  0.00    +0.000 A 
ATOM     11  C   UNL     1      -6.176  15.755  24.200  0.00  0.00    +0.000 A 
ATOM     12  C   UNL     1      -4.917  16.269  24.484  0.00  0.00    +0.000 A 
ATOM     13  F   UNL     1      -4.796  17.158  25.481  0.00  0.00    +0.000 F 
ATOM     14  C   UNL     1      -3.771  15.871  23.786  0.00  0.00    +0.000 A 
ATOM     15  C   UNL     1      -3.936  14.922  22.767  0.00  0.00    +0.000 A 
ATOM     16  N   UNL     1      -3.002  14.198  22.003  0.00  0.00    +0.000 N 
ATOM     17  C   UNL     1      -3.658  13.489  21.027  0.00  0.00    +0.000 A 
ATOM     18  C   UNL     1      -3.303  12.619  20.012  0.00  0.00    +0.000 A 
ATOM     19  C   UNL     1      -4.212  12.270  19.043  0.00  0.00    +0.000 A 
ATOM     20  C   UNL     1      -3.722  11.417  18.060  0.00  0.00    +0.000 A 
ATOM     21  C   UNL     1      -4.151  10.756  16.892  0.00  0.00    +0.000 A 
ATOM     22  C   UNL     1      -3.259   9.907  16.218  0.00  0.00    +0.000 A 
ATOM     23  C   UNL     1      -1.973   9.688  16.704  0.00  0.00    +0.000 A 
ATOM     24  C   UNL     1      -1.530  10.312  17.880  0.00  0.00    +0.000 A 
ATOM     25  C   UNL     1      -2.428  11.181  18.508  0.00  0.00    +0.000 A 
ATOM     26  N   UNL     1      -2.181  11.915  19.672  0.00  0.00    +0.000 N 
ATOM     27  C   UNL     1      -0.905  11.757  20.348  0.00  0.00    +0.000 C 
ATOM     28  C   UNL     1      -0.224  10.411  19.999  0.00  0.00    +0.000 C 
ATOM     29  C   UNL     1      -0.163  10.121  18.493  0.00  0.00    +0.000 C 
ATOM     30  H   UNL     1      -7.111  14.894  17.810  0.00  0.00    +0.000 HD
ATOM     31  H   UNL     1      -1.999  14.262  22.123  0.00  0.00    +0.000 HD
ENDROOT
TORSDOF 0
ENDMDL
MODEL 5
REMARK VINA RESULT:      -7.7      2.468      4.108
REMARK  Name = 
REMARK  0 active torsions:
REMARK  status: ('A' for Active; 'I' for Inactive)
REMARK                            x       y       z     vdW  Elec       q    Type
REMARK                         _______ _______ _______ _____ _____    ______ ____
ROOT
ATOM      1  O   UNL     1      -6.819  10.696  19.143  0.00  0.00    +0.000 OA
ATOM      2  C   UNL     1      -6.373  11.471  19.980  0.00  0.00    +0.000 C 
ATOM      3  N   UNL     1      -6.973  11.686  21.197  0.00  0.00    +0.000 N 
ATOM      4  C   UNL     1      -6.444  12.733  21.918  0.00  0.00    +0.000 C 
ATOM      5  O   UNL     1      -7.034  13.245  22.847  0.00  0.00    +0.000 OA
ATOM      6  C   UNL     1      -5.184  12.952  21.282  0.00  0.00    +0.000 A 
ATOM      7  C   UNL     1      -5.183  12.251  20.065  0.00  0.00    +0.000 A 
ATOM      8  C   UNL     1      -3.999  12.219  19.298  0.00  0.00    +0.000 A 
ATOM      9  C   UNL     1      -3.880  11.644  18.054  0.00  0.00    +0.000 A 
ATOM     10  C   UNL     1      -4.712  11.346  16.959  0.00  0.00    +0.000 A 
ATOM     11  C   UNL     1      -4.181  10.637  15.884  0.00  0.00    +0.000 A 
ATOM     12  C   UNL     1      -2.877  10.162  15.948  0.00  0.00    +0.000 A 
ATOM     13  F   UNL     1      -2.429   9.380  14.954  0.00  0.00    +0.000 F 
ATOM     14  C   UNL     1      -2.010  10.491  16.997  0.00  0.00    +0.000 A 
ATOM     15  C   UNL     1      -2.509  11.330  18.004  0.00  0.00    +0.000 A 
ATOM     16  N   UNL     1      -1.876  11.976  19.081  0.00  0.00    +0.000 N 
ATOM     17  C   UNL     1      -2.821  12.578  19.875  0.00  0.00    +0.000 A 
ATOM     18  C   UNL     1      -2.820  13.341  21.030  0.00  0.00    +0.000 A 
ATOM     19  C   UNL     1      -3.991  13.584  21.705  0.00  0.00    +0.000 A 
ATOM     20  C   UNL     1      -3.852  14.335  22.868  0.00  0.00    +0.000 A 
ATOM     21  C   UNL     1      -4.637  14.869  23.908  0.00  0.00    +0.000 A 
ATOM     22  C   UNL     1      -4.020  15.649  24.899  0.00  0.00    +0.000 A 
ATOM     23  C   UNL     1      -2.656  15.923  24.851  0.00  0.00    +0.000 A 
ATOM     24  C   UNL     1      -1.856  15.425  23.811  0.00  0.00    +0.000 A 
ATOM     25  C   UNL     1      -2.492  14.621  22.859  0.00  0.00    +0.000 A 
ATOM     26  N   UNL     1      -1.879  14.012  21.760  0.00  0.00    +0.000 N 
ATOM     27  C   UNL     1      -0.464  14.244  21.523  0.00  0.00    +0.000 C 
ATOM     28  C   UNL     1       0.031  15.550  22.190  0.00  0.00    +0.000 C 
ATOM     29  C   UNL     1      -0.377  15.685  23.664  0.00  0.00    +0.000 C 
ATOM     30  H   UNL     1      -7.032  10.834  21.740  0.00  0.00    +0.000 HD
ATOM     31  H   UNL     1      -0.882  11.930  19.266  0.00  0.00    +0.000 HD
ENDROOT
TORSDOF 0
ENDMDL
MODEL 6
REMARK VINA RESULT:      -7.7      3.424      7.596
REMARK  Name = 
REMARK  0 active torsions:
REMARK  status: ('A' for Active; 'I' for Inactive)
REMARK                            x       y       z     vdW  Elec       q    Type
REMARK                         _______ _______ _______ _____ _____    ______ ____
ROOT
ATOM      1  O   UNL     1      -5.653  15.340  22.457  0.00  0.00    +0.000 OA
ATOM      2  C   UNL     1      -5.269  14.526  21.626  0.00  0.00    +0.000 C 
ATOM      3  N   UNL     1      -5.884  14.349  20.411  0.00  0.00    +0.000 N 
ATOM      4  C   UNL     1      -5.438  13.259  19.697  0.00  0.00    +0.000 C 
ATOM      5  O   UNL     1      -6.066  12.788  18.771  0.00  0.00    +0.000 OA
ATOM      6  C   UNL     1      -4.198  12.948  20.334  0.00  0.00    +0.000 A 
ATOM      7  C   UNL     1      -4.143  13.655  21.547  0.00  0.00    +0.000 A 
ATOM      8  C   UNL     1      -2.959  13.602  22.314  0.00  0.00    +0.000 A 
ATOM      9  C   UNL     1      -2.795  14.175  23.554  0.00  0.00    +0.000 A 
ATOM     10  C   UNL     1      -3.602  14.544  24.646  0.00  0.00    +0.000 A 
ATOM     11  C   UNL     1      -3.017  15.218  25.716  0.00  0.00    +0.000 A 
ATOM     12  C   UNL     1      -1.680  15.591  25.649  0.00  0.00    +0.000 A 
ATOM     13  F   UNL     1      -1.173  16.343  26.637  0.00  0.00    +0.000 F 
ATOM     14  C   UNL     1      -0.842  15.188  24.602  0.00  0.00    +0.000 A 
ATOM     15  C   UNL     1      -1.404  14.382  23.602  0.00  0.00    +0.000 A 
ATOM     16  N   UNL     1      -0.824  13.681  22.529  0.00  0.00    +0.000 N 
ATOM     17  C   UNL     1      -1.813  13.149  21.739  0.00  0.00    +0.000 A 
ATOM     18  C   UNL     1      -1.871  12.379  20.591  0.00  0.00    +0.000 A 
ATOM     19  C   UNL     1      -3.057  12.223  19.917  0.00  0.00    +0.000 A 
ATOM     20  C   UNL     1      -2.977  11.455  18.760  0.00  0.00    +0.000 A 
ATOM     21  C   UNL     1      -3.802  10.975  17.723  0.00  0.00    +0.000 A 
ATOM     22  C   UNL     1      -3.248  10.142  16.738  0.00  0.00    +0.000 A 
ATOM     23  C   UNL     1      -1.909   9.764  16.788  0.00  0.00    +0.000 A 
ATOM     24  C   UNL     1      -1.073  10.206  17.825  0.00  0.00    +0.000 A 
ATOM     25  C   UNL     1      -1.644  11.064  18.771  0.00  0.00    +0.000 A 
ATOM     26  N   UNL     1      -0.985  11.632  19.865  0.00  0.00    +0.000 N 
ATOM     27  C   UNL     1       0.407  11.293  20.105  0.00  0.00    +0.000 C 
ATOM     28  C   UNL     1       0.800   9.947  19.447  0.00  0.00    +0.000 C 
ATOM     29  C   UNL     1       0.382   9.834  17.974  0.00  0.00    +0.000 C 
ATOM     30  H   UNL     1      -5.877  15.199  19.861  0.00  0.00    +0.000 HD
ATOM     31  H   UNL     1       0.171  13.649  22.344  0.00  0.00    +0.000 HD
ENDROOT
TORSDOF 0
ENDMDL
MODEL 7
REMARK VINA RESULT:      -7.6      2.833      4.451
REMARK  Name = 
REMARK  0 active torsions:
REMARK  status: ('A' for Active; 'I' for Inactive)
REMARK                            x       y       z     vdW  Elec       q    Type
REMARK                         _______ _______ _______ _____ _____    ______ ____
ROOT
ATOM      1  O   UNL     1       0.451  15.161  23.143  0.00  0.00    +0.000 OA
ATOM      2  C   UNL     1      -0.710  14.793  23.276  0.00  0.00    +0.000 C 
ATOM      3  N   UNL     1      -1.551  15.296  24.239  0.00  0.00    +0.000 N 
ATOM      4  C   UNL     1      -2.745  14.624  24.364  0.00  0.00    +0.000 C 
ATOM      5  O   UNL     1      -3.455  14.735  25.342  0.00  0.00    +0.000 OA
ATOM      6  C   UNL     1      -2.822  13.883  23.145  0.00  0.00    +0.000 A 
ATOM      7  C   UNL     1      -1.557  13.919  22.534  0.00  0.00    +0.000 A 
ATOM      8  C   UNL     1      -1.403  13.350  21.252  0.00  0.00    +0.000 A 
ATOM      9  C   UNL     1      -0.211  13.241  20.574  0.00  0.00    +0.000 A 
ATOM     10  C   UNL     1       1.160  13.156  20.884  0.00  0.00    +0.000 A 
ATOM     11  C   UNL     1       2.085  13.158  19.842  0.00  0.00    +0.000 A 
ATOM     12  C   UNL     1       1.651  13.333  18.534  0.00  0.00    +0.000 A 
ATOM     13  F   UNL     1       2.569  13.452  17.564  0.00  0.00    +0.000 F 
ATOM     14  C   UNL     1       0.293  13.362  18.193  0.00  0.00    +0.000 A 
ATOM     15  C   UNL     1      -0.634  13.210  19.233  0.00  0.00    +0.000 A 
ATOM     16  N   UNL     1      -2.029  13.027  19.223  0.00  0.00    +0.000 N 
ATOM     17  C   UNL     1      -2.508  13.070  20.509  0.00  0.00    +0.000 A 
ATOM     18  C   UNL     1      -3.742  12.951  21.123  0.00  0.00    +0.000 A 
ATOM     19  C   UNL     1      -3.900  13.294  22.443  0.00  0.00    +0.000 A 
ATOM     20  C   UNL     1      -5.195  13.161  22.933  0.00  0.00    +0.000 A 
ATOM     21  C   UNL     1      -5.923  13.344  24.125  0.00  0.00    +0.000 A 
ATOM     22  C   UNL     1      -7.286  13.009  24.153  0.00  0.00    +0.000 A 
ATOM     23  C   UNL     1      -7.916  12.474  23.033  0.00  0.00    +0.000 A 
ATOM     24  C   UNL     1      -7.208  12.256  21.841  0.00  0.00    +0.000 A 
ATOM     25  C   UNL     1      -5.861  12.634  21.833  0.00  0.00    +0.000 A 
ATOM     26  N   UNL     1      -4.985  12.522  20.749  0.00  0.00    +0.000 N 
ATOM     27  C   UNL     1      -5.464  11.925  19.513  0.00  0.00    +0.000 C 
ATOM     28  C   UNL     1      -6.692  11.011  19.747  0.00  0.00    +0.000 C 
ATOM     29  C   UNL     1      -7.799  11.664  20.585  0.00  0.00    +0.000 C 
ATOM     30  H   UNL     1      -1.679  16.295  24.137  0.00  0.00    +0.000 HD
ATOM     31  H   UNL     1      -2.586  12.952  18.381  0.00  0.00    +0.000 HD
ENDROOT
TORSDOF 0
ENDMDL
MODEL 8
REMARK VINA RESULT:      -7.4     11.718     14.099
REMARK  Name = 
REMARK  0 active torsions:
REMARK  status: ('A' for Active; 'I' for Inactive)
REMARK                            x       y       z     vdW  Elec       q    Type
REMARK                         _______ _______ _______ _____ _____    ______ ____
ROOT
ATOM      1  O   UNL     1       9.808  16.520  25.093  0.00  0.00    +0.000 OA
ATOM      2  C   UNL     1      10.077  16.204  23.940  0.00  0.00    +0.000 C 
ATOM      3  N   UNL     1      11.067  16.813  23.208  0.00  0.00    +0.000 N 
ATOM      4  C   UNL     1      11.089  16.465  21.876  0.00  0.00    +0.000 C 
ATOM      5  O   UNL     1      11.681  17.121  21.043  0.00  0.00    +0.000 OA
ATOM      6  C   UNL     1      10.302  15.274  21.845  0.00  0.00    +0.000 A 
ATOM      7  C   UNL     1       9.623  15.170  23.071  0.00  0.00    +0.000 A 
ATOM      8  C   UNL     1       8.861  14.010  23.331  0.00  0.00    +0.000 A 
ATOM      9  C   UNL     1       8.083  13.812  24.448  0.00  0.00    +0.000 A 
ATOM     10  C   UNL     1       7.391  14.597  25.389  0.00  0.00    +0.000 A 
ATOM     11  C   UNL     1       6.781  13.966  26.472  0.00  0.00    +0.000 A 
ATOM     12  C   UNL     1       6.941  12.598  26.653  0.00  0.00    +0.000 A 
ATOM     13  F   UNL     1       6.448  12.036  27.766  0.00  0.00    +0.000 F 
ATOM     14  C   UNL     1       7.575  11.786  25.705  0.00  0.00    +0.000 A 
ATOM     15  C   UNL     1       8.056  12.408  24.544  0.00  0.00    +0.000 A 
ATOM     16  N   UNL     1       8.575  11.882  23.347  0.00  0.00    +0.000 N 
ATOM     17  C   UNL     1       9.044  12.905  22.560  0.00  0.00    +0.000 A 
ATOM     18  C   UNL     1       9.637  13.020  21.315  0.00  0.00    +0.000 A 
ATOM     19  C   UNL     1      10.211  14.204  20.924  0.00  0.00    +0.000 A 
ATOM     20  C   UNL     1      10.803  14.181  19.665  0.00  0.00    +0.000 A 
ATOM     21  C   UNL     1      11.498  15.031  18.783  0.00  0.00    +0.000 A 
ATOM     22  C   UNL     1      11.878  14.545  17.521  0.00  0.00    +0.000 A 
ATOM     23  C   UNL     1      11.552  13.252  17.123  0.00  0.00    +0.000 A 
ATOM     24  C   UNL     1      10.836  12.394  17.972  0.00  0.00    +0.000 A 
ATOM     25  C   UNL     1      10.504  12.893  19.236  0.00  0.00    +0.000 A 
ATOM     26  N   UNL     1       9.815  12.201  20.236  0.00  0.00    +0.000 N 
ATOM     27  C   UNL     1       9.345  10.853  19.964  0.00  0.00    +0.000 C 
ATOM     28  C   UNL     1       9.191  10.585  18.446  0.00  0.00    +0.000 C 
ATOM     29  C   UNL     1      10.421  10.986  17.621  0.00  0.00    +0.000 C 
ATOM     30  H   UNL     1      11.973  16.712  23.648  0.00  0.00    +0.000 HD
ATOM     31  H   UNL     1       8.652  10.893  23.148  0.00  0.00    +0.000 HD
ENDROOT
TORSDOF 0
ENDMDL
MODEL 9
REMARK VINA RESULT:      -7.3      2.705      4.306
REMARK  Name = 
REMARK  0 active torsions:
REMARK  status: ('A' for Active; 'I' for Inactive)
REMARK                            x       y       z     vdW  Elec       q    Type
REMARK                         _______ _______ _______ _____ _____    ______ ____
ROOT
ATOM      1  O   UNL     1      -6.844  10.635  20.051  0.00  0.00    +0.000 OA
ATOM      2  C   UNL     1      -6.535  11.589  20.755  0.00  0.00    +0.000 C 
ATOM      3  N   UNL     1      -7.164  11.881  21.941  0.00  0.00    +0.000 N 
ATOM      4  C   UNL     1      -6.818  13.096  22.487  0.00  0.00    +0.000 C 
ATOM      5  O   UNL     1      -7.485  13.637  23.345  0.00  0.00    +0.000 OA
ATOM      6  C   UNL     1      -5.611  13.423  21.797  0.00  0.00    +0.000 A 
ATOM      7  C   UNL     1      -5.491  12.558  20.696  0.00  0.00    +0.000 A 
ATOM      8  C   UNL     1      -4.317  12.607  19.915  0.00  0.00    +0.000 A 
ATOM      9  C   UNL     1      -4.102  11.881  18.767  0.00  0.00    +0.000 A 
ATOM     10  C   UNL     1      -4.872  11.291  17.748  0.00  0.00    +0.000 A 
ATOM     11  C   UNL     1      -4.228  10.527  16.776  0.00  0.00    +0.000 A 
ATOM     12  C   UNL     1      -2.864  10.287  16.879  0.00  0.00    +0.000 A 
ATOM     13  F   UNL     1      -2.291   9.451  16.001  0.00  0.00    +0.000 F 
ATOM     14  C   UNL     1      -2.065  10.907  17.848  0.00  0.00    +0.000 A 
ATOM     15  C   UNL     1      -2.698  11.793  18.731  0.00  0.00    +0.000 A 
ATOM     16  N   UNL     1      -2.183  12.688  19.687  0.00  0.00    +0.000 N 
ATOM     17  C   UNL     1      -3.216  13.238  20.406  0.00  0.00    +0.000 A 
ATOM     18  C   UNL     1      -3.343  14.154  21.435  0.00  0.00    +0.000 A 
ATOM     19  C   UNL     1      -4.539  14.298  22.094  0.00  0.00    +0.000 A 
ATOM     20  C   UNL     1      -4.529  15.226  23.130  0.00  0.00    +0.000 A 
ATOM     21  C   UNL     1      -5.394  15.773  24.099  0.00  0.00    +0.000 A 
ATOM     22  C   UNL     1      -4.917  16.783  24.950  0.00  0.00    +0.000 A 
ATOM     23  C   UNL     1      -3.618  17.268  24.830  0.00  0.00    +0.000 A 
ATOM     24  C   UNL     1      -2.744  16.759  23.856  0.00  0.00    +0.000 A 
ATOM     25  C   UNL     1      -3.236  15.728  23.048  0.00  0.00    +0.000 A 
ATOM     26  N   UNL     1      -2.529  15.072  22.036  0.00  0.00    +0.000 N 
ATOM     27  C   UNL     1      -1.172  15.495  21.735  0.00  0.00    +0.000 C 
ATOM     28  C   UNL     1      -0.902  16.951  22.191  0.00  0.00    +0.000 C 
ATOM     29  C   UNL     1      -1.328  17.234  23.638  0.00  0.00    +0.000 C 
ATOM     30  H   UNL     1      -7.081  11.121  22.604  0.00  0.00    +0.000 HD
ATOM     31  H   UNL     1      -1.196  12.834  19.854  0.00  0.00    +0.000 HD
ENDROOT
TORSDOF 0
ENDMDL
