MODEL 1
REMARK VINA RESULT:      -9.3      0.000      0.000
REMARK  Name = 
REMARK  7 active torsions:
REMARK  status: ('A' for Active; 'I' for Inactive)
REMARK    1  A    between atoms: C_2  and  C_22
REMARK    2  A    between atoms: N_3  and  C_4
REMARK    3  A    between atoms: C_4  and  C_5
REMARK    4  A    between atoms: C_4  and  C_11
REMARK    5  A    between atoms: C_14  and  C_15
REMARK    6  A    between atoms: C_15  and  C_16
REMARK    7  A    between atoms: C_25  and  C_26
REMARK                            x       y       z     vdW  Elec       q    Type
REMARK                         _______ _______ _______ _____ _____    ______ ____
ROOT
ATOM      1  C   UNL     1       3.254   6.044  19.506  0.00  0.00    +0.000 C 
ENDROOT
BRANCH   1   2
ATOM      2  C   UNL     1       2.452   4.793  19.839  0.00  0.00    +0.000 A 
ATOM      3  C   UNL     1       2.409   4.277  21.145  0.00  0.00    +0.000 A 
ATOM      4  C   UNL     1       1.696   3.112  21.431  0.00  0.00    +0.000 A 
ATOM      5  C   UNL     1       1.006   2.449  20.419  0.00  0.00    +0.000 A 
ATOM      6  C   UNL     1       1.026   2.952  19.119  0.00  0.00    +0.000 A 
ATOM      7  C   UNL     1       1.746   4.113  18.829  0.00  0.00    +0.000 A 
ENDBRANCH   1   2
BRANCH   1   8
ATOM      8  C   UNL     1       4.262   5.830  18.377  0.00  0.00    +0.000 A 
ATOM      9  C   UNL     1       4.218   6.660  17.245  0.00  0.00    +0.000 A 
ATOM     10  C   UNL     1       5.082   6.448  16.166  0.00  0.00    +0.000 A 
ATOM     11  C   UNL     1       6.015   5.405  16.197  0.00  0.00    +0.000 A 
ATOM     12  C   UNL     1       6.101   4.605  17.338  0.00  0.00    +0.000 A 
ATOM     13  C   UNL     1       5.240   4.822  18.419  0.00  0.00    +0.000 A 
BRANCH  11  14
ATOM     14  C   UNL     1       6.907   5.145  15.008  0.00  0.00    +0.000 C 
BRANCH  14  15
ATOM     15  C   UNL     1       6.313   4.266  13.917  0.00  0.00    +0.000 C 
ATOM     16  F   UNL     1       5.027   4.549  13.625  0.00  0.00    +0.000 F 
ATOM     17  F   UNL     1       7.023   4.391  12.768  0.00  0.00    +0.000 F 
ATOM     18  F   UNL     1       6.369   2.961  14.276  0.00  0.00    +0.000 F 
ENDBRANCH  14  15
ENDBRANCH  11  14
ENDBRANCH   1   8
BRANCH   1  21
ATOM     19  O   UNL     1       1.939   7.765  21.383  0.00  0.00    +0.000 OA
ATOM     20  C   UNL     1       1.796   7.953  20.179  0.00  0.00    +0.000 C 
ATOM     21  N   UNL     1       2.351   7.149  19.220  0.00  0.00    +0.000 N 
ATOM     22  H   UNL     1       2.204   7.387  18.243  0.00  0.00    +0.000 HD
BRANCH  20  23
ATOM     23  C   UNL     1       0.988   9.099  19.657  0.00  0.00    +0.000 A 
ATOM     24  C   UNL     1      -0.005   9.597  20.424  0.00  0.00    +0.000 A 
ATOM     25  C   UNL     1      -0.825  10.707  19.985  0.00  0.00    +0.000 A 
ATOM     26  C   UNL     1      -0.602  11.292  18.794  0.00  0.00    +0.000 A 
ATOM     27  N   UNL     1       0.423  10.799  18.000  0.00  0.00    +0.000 N 
ATOM     28  C   UNL     1       1.228   9.737  18.329  0.00  0.00    +0.000 A 
ATOM     29  O   UNL     1       2.101   9.347  17.555  0.00  0.00    +0.000 OA
ATOM     30  H   UNL     1       0.602  11.235  17.098  0.00  0.00    +0.000 HD
BRANCH  26  31
ATOM     31  C   UNL     1      -1.416  12.454  18.273  0.00  0.00    +0.000 C 
ATOM     32  F   UNL     1      -0.613  13.433  17.772  0.00  0.00    +0.000 F 
ATOM     33  F   UNL     1      -2.252  12.081  17.275  0.00  0.00    +0.000 F 
ATOM     34  F   UNL     1      -2.173  13.025  19.243  0.00  0.00    +0.000 F 
ENDBRANCH  26  31
ENDBRANCH  20  23
ENDBRANCH   1  21
TORSDOF 7
ENDMDL
MODEL 2
REMARK VINA RESULT:      -9.3      0.185      1.289
REMARK  Name = 
REMARK  7 active torsions:
REMARK  status: ('A' for Active; 'I' for Inactive)
REMARK    1  A    between atoms: C_2  and  C_22
REMARK    2  A    between atoms: N_3  and  C_4
REMARK    3  A    between atoms: C_4  and  C_5
REMARK    4  A    between atoms: C_4  and  C_11
REMARK    5  A    between atoms: C_14  and  C_15
REMARK    6  A    between atoms: C_15  and  C_16
REMARK    7  A    between atoms: C_25  and  C_26
REMARK                            x       y       z     vdW  Elec       q    Type
REMARK                         _______ _______ _______ _____ _____    ______ ____
ROOT
ATOM      1  C   UNL     1       3.331   5.993  19.357  0.00  0.00    +0.000 C 
ENDROOT
BRANCH   1   2
ATOM      2  C   UNL     1       2.518   4.750  19.690  0.00  0.00    +0.000 A 
ATOM      3  C   UNL     1       1.738   4.103  18.717  0.00  0.00    +0.000 A 
ATOM      4  C   UNL     1       0.971   2.983  19.043  0.00  0.00    +0.000 A 
ATOM      5  C   UNL     1       0.980   2.486  20.344  0.00  0.00    +0.000 A 
ATOM      6  C   UNL     1       1.756   3.106  21.321  0.00  0.00    +0.000 A 
ATOM      7  C   UNL     1       2.517   4.232  20.998  0.00  0.00    +0.000 A 
ENDBRANCH   1   2
BRANCH   1   8
ATOM      8  C   UNL     1       4.308   5.782  18.200  0.00  0.00    +0.000 A 
ATOM      9  C   UNL     1       4.308   6.682  17.122  0.00  0.00    +0.000 A 
ATOM     10  C   UNL     1       5.142   6.480  16.019  0.00  0.00    +0.000 A 
ATOM     11  C   UNL     1       6.001   5.375  15.970  0.00  0.00    +0.000 A 
ATOM     12  C   UNL     1       6.044   4.501  17.058  0.00  0.00    +0.000 A 
ATOM     13  C   UNL     1       5.214   4.709  18.165  0.00  0.00    +0.000 A 
BRANCH  11  14
ATOM     14  C   UNL     1       6.858   5.130  14.753  0.00  0.00    +0.000 C 
BRANCH  14  15
ATOM     15  C   UNL     1       6.294   4.150  13.734  0.00  0.00    +0.000 C 
ATOM     16  F   UNL     1       6.890   4.212  12.526  0.00  0.00    +0.000 F 
ATOM     17  F   UNL     1       6.420   2.876  14.181  0.00  0.00    +0.000 F 
ATOM     18  F   UNL     1       4.971   4.373  13.545  0.00  0.00    +0.000 F 
ENDBRANCH  14  15
ENDBRANCH  11  14
ENDBRANCH   1   8
BRANCH   1  21
ATOM     19  O   UNL     1       1.956   7.600  21.292  0.00  0.00    +0.000 OA
ATOM     20  C   UNL     1       1.853   7.861  20.097  0.00  0.00    +0.000 C 
ATOM     21  N   UNL     1       2.439   7.116  19.109  0.00  0.00    +0.000 N 
ATOM     22  H   UNL     1       2.324   7.414  18.145  0.00  0.00    +0.000 HD
BRANCH  20  23
ATOM     23  C   UNL     1       1.063   9.039  19.621  0.00  0.00    +0.000 A 
ATOM     24  C   UNL     1       0.141   9.581  20.445  0.00  0.00    +0.000 A 
ATOM     25  C   UNL     1      -0.657  10.724  20.052  0.00  0.00    +0.000 A 
ATOM     26  C   UNL     1      -0.484  11.296  18.846  0.00  0.00    +0.000 A 
ATOM     27  N   UNL     1       0.468  10.758  17.993  0.00  0.00    +0.000 N 
ATOM     28  C   UNL     1       1.246   9.663  18.277  0.00  0.00    +0.000 A 
ATOM     29  O   UNL     1       2.053   9.234  17.452  0.00  0.00    +0.000 OA
ATOM     30  H   UNL     1       0.608  11.183  17.079  0.00  0.00    +0.000 HD
BRANCH  26  31
ATOM     31  C   UNL     1      -1.279  12.490  18.371  0.00  0.00    +0.000 C 
ATOM     32  F   UNL     1      -2.228  12.122  17.466  0.00  0.00    +0.000 F 
ATOM     33  F   UNL     1      -1.924  13.109  19.389  0.00  0.00    +0.000 F 
ATOM     34  F   UNL     1      -0.497  13.417  17.765  0.00  0.00    +0.000 F 
ENDBRANCH  26  31
ENDBRANCH  20  23
ENDBRANCH   1  21
TORSDOF 7
ENDMDL
MODEL 3
REMARK VINA RESULT:      -9.3      0.371      1.530
REMARK  Name = 
REMARK  7 active torsions:
REMARK  status: ('A' for Active; 'I' for Inactive)
REMARK    1  A    between atoms: C_2  and  C_22
REMARK    2  A    between atoms: N_3  and  C_4
REMARK    3  A    between atoms: C_4  and  C_5
REMARK    4  A    between atoms: C_4  and  C_11
REMARK    5  A    between atoms: C_14  and  C_15
REMARK    6  A    between atoms: C_15  and  C_16
REMARK    7  A    between atoms: C_25  and  C_26
REMARK                            x       y       z     vdW  Elec       q    Type
REMARK                         _______ _______ _______ _____ _____    ______ ____
ROOT
ATOM      1  C   UNL     1       3.269   6.031  19.223  0.00  0.00    +0.000 C 
ENDROOT
BRANCH   1   2
ATOM      2  C   UNL     1       2.504   4.808  19.709  0.00  0.00    +0.000 A 
ATOM      3  C   UNL     1       1.598   4.131  18.875  0.00  0.00    +0.000 A 
ATOM      4  C   UNL     1       0.879   3.031  19.343  0.00  0.00    +0.000 A 
ATOM      5  C   UNL     1       1.060   2.582  20.648  0.00  0.00    +0.000 A 
ATOM      6  C   UNL     1       1.962   3.232  21.488  0.00  0.00    +0.000 A 
ATOM      7  C   UNL     1       2.677   4.339  21.024  0.00  0.00    +0.000 A 
ENDBRANCH   1   2
BRANCH   1   8
ATOM      8  C   UNL     1       4.111   5.759  17.977  0.00  0.00    +0.000 A 
ATOM      9  C   UNL     1       4.695   4.493  17.801  0.00  0.00    +0.000 A 
ATOM     10  C   UNL     1       5.525   4.233  16.706  0.00  0.00    +0.000 A 
ATOM     11  C   UNL     1       5.786   5.229  15.758  0.00  0.00    +0.000 A 
ATOM     12  C   UNL     1       5.171   6.475  15.898  0.00  0.00    +0.000 A 
ATOM     13  C   UNL     1       4.335   6.733  16.990  0.00  0.00    +0.000 A 
BRANCH  11  14
ATOM     14  C   UNL     1       6.727   4.961  14.610  0.00  0.00    +0.000 C 
BRANCH  14  15
ATOM     15  C   UNL     1       6.195   4.038  13.523  0.00  0.00    +0.000 C 
ATOM     16  F   UNL     1       6.802   4.193  12.328  0.00  0.00    +0.000 F 
ATOM     17  F   UNL     1       6.347   2.741  13.887  0.00  0.00    +0.000 F 
ATOM     18  F   UNL     1       4.870   4.242  13.333  0.00  0.00    +0.000 F 
ENDBRANCH  14  15
ENDBRANCH  11  14
ENDBRANCH   1   8
BRANCH   1  21
ATOM     19  O   UNL     1       2.109   7.734  21.216  0.00  0.00    +0.000 OA
ATOM     20  C   UNL     1       1.873   7.935  20.028  0.00  0.00    +0.000 C 
ATOM     21  N   UNL     1       2.349   7.141  19.020  0.00  0.00    +0.000 N 
ATOM     22  H   UNL     1       2.127   7.391  18.061  0.00  0.00    +0.000 HD
BRANCH  20  23
ATOM     23  C   UNL     1       1.030   9.088  19.584  0.00  0.00    +0.000 A 
ATOM     24  C   UNL     1       0.063   9.543  20.409  0.00  0.00    +0.000 A 
ATOM     25  C   UNL     1      -0.789  10.657  20.046  0.00  0.00    +0.000 A 
ATOM     26  C   UNL     1      -0.622  11.290  18.870  0.00  0.00    +0.000 A 
ATOM     27  N   UNL     1       0.375  10.842  18.018  0.00  0.00    +0.000 N 
ATOM     28  C   UNL     1       1.207   9.779  18.273  0.00  0.00    +0.000 A 
ATOM     29  O   UNL     1       2.053   9.431  17.450  0.00  0.00    +0.000 OA
ATOM     30  H   UNL     1       0.512  11.314  17.126  0.00  0.00    +0.000 HD
BRANCH  26  31
ATOM     31  C   UNL     1      -1.471  12.459  18.427  0.00  0.00    +0.000 C 
ATOM     32  F   UNL     1      -2.004  13.114  19.495  0.00  0.00    +0.000 F 
ATOM     33  F   UNL     1      -0.755  13.369  17.724  0.00  0.00    +0.000 F 
ATOM     34  F   UNL     1      -2.510  12.071  17.647  0.00  0.00    +0.000 F 
ENDBRANCH  26  31
ENDBRANCH  20  23
ENDBRANCH   1  21
TORSDOF 7
ENDMDL
MODEL 4
REMARK VINA RESULT:      -9.2      0.450      1.343
REMARK  Name = 
REMARK  7 active torsions:
REMARK  status: ('A' for Active; 'I' for Inactive)
REMARK    1  A    between atoms: C_2  and  C_22
REMARK    2  A    between atoms: N_3  and  C_4
REMARK    3  A    between atoms: C_4  and  C_5
REMARK    4  A    between atoms: C_4  and  C_11
REMARK    5  A    between atoms: C_14  and  C_15
REMARK    6  A    between atoms: C_15  and  C_16
REMARK    7  A    between atoms: C_25  and  C_26
REMARK                            x       y       z     vdW  Elec       q    Type
REMARK                         _______ _______ _______ _____ _____    ______ ____
ROOT
ATOM      1  C   UNL     1       3.260   6.026  19.171  0.00  0.00    +0.000 C 
ENDROOT
BRANCH   1   2
ATOM      2  C   UNL     1       2.463   4.812  19.628  0.00  0.00    +0.000 A 
ATOM      3  C   UNL     1       2.594   4.297  20.929  0.00  0.00    +0.000 A 
ATOM      4  C   UNL     1       1.882   3.164  21.325  0.00  0.00    +0.000 A 
ATOM      5  C   UNL     1       1.020   2.533  20.432  0.00  0.00    +0.000 A 
ATOM      6  C   UNL     1       0.866   3.035  19.142  0.00  0.00    +0.000 A 
ATOM      7  C   UNL     1       1.585   4.164  18.740  0.00  0.00    +0.000 A 
ENDBRANCH   1   2
BRANCH   1   8
ATOM      8  C   UNL     1       4.101   5.759  17.923  0.00  0.00    +0.000 A 
ATOM      9  C   UNL     1       4.663   4.487  17.727  0.00  0.00    +0.000 A 
ATOM     10  C   UNL     1       5.492   4.230  16.631  0.00  0.00    +0.000 A 
ATOM     11  C   UNL     1       5.772   5.237  15.700  0.00  0.00    +0.000 A 
ATOM     12  C   UNL     1       5.178   6.491  15.859  0.00  0.00    +0.000 A 
ATOM     13  C   UNL     1       4.344   6.746  16.953  0.00  0.00    +0.000 A 
BRANCH  11  14
ATOM     14  C   UNL     1       6.711   4.972  14.550  0.00  0.00    +0.000 C 
BRANCH  14  15
ATOM     15  C   UNL     1       6.187   4.033  13.473  0.00  0.00    +0.000 C 
ATOM     16  F   UNL     1       6.765   4.206  12.267  0.00  0.00    +0.000 F 
ATOM     17  F   UNL     1       6.386   2.741  13.833  0.00  0.00    +0.000 F 
ATOM     18  F   UNL     1       4.853   4.196  13.309  0.00  0.00    +0.000 F 
ENDBRANCH  14  15
ENDBRANCH  11  14
ENDBRANCH   1   8
BRANCH   1  21
ATOM     19  O   UNL     1       2.066   7.662  21.200  0.00  0.00    +0.000 OA
ATOM     20  C   UNL     1       1.874   7.920  20.016  0.00  0.00    +0.000 C 
ATOM     21  N   UNL     1       2.369   7.162  18.989  0.00  0.00    +0.000 N 
ATOM     22  H   UNL     1       2.184   7.458  18.035  0.00  0.00    +0.000 HD
BRANCH  20  23
ATOM     23  C   UNL     1       1.068   9.109  19.597  0.00  0.00    +0.000 A 
ATOM     24  C   UNL     1       0.083   9.546  20.409  0.00  0.00    +0.000 A 
ATOM     25  C   UNL     1      -0.734  10.693  20.069  0.00  0.00    +0.000 A 
ATOM     26  C   UNL     1      -0.517  11.373  18.929  0.00  0.00    +0.000 A 
ATOM     27  N   UNL     1       0.500  10.943  18.090  0.00  0.00    +0.000 N 
ATOM     28  C   UNL     1       1.302   9.854  18.324  0.00  0.00    +0.000 A 
ATOM     29  O   UNL     1       2.168   9.525  17.514  0.00  0.00    +0.000 OA
ATOM     30  H   UNL     1       0.675  11.451  17.225  0.00  0.00    +0.000 HD
BRANCH  26  31
ATOM     31  C   UNL     1      -1.329  12.578  18.511  0.00  0.00    +0.000 C 
ATOM     32  F   UNL     1      -2.569  12.213  18.086  0.00  0.00    +0.000 F 
ATOM     33  F   UNL     1      -1.503  13.451  19.533  0.00  0.00    +0.000 F 
ATOM     34  F   UNL     1      -0.748  13.259  17.493  0.00  0.00    +0.000 F 
ENDBRANCH  26  31
ENDBRANCH  20  23
ENDBRANCH   1  21
TORSDOF 7
ENDMDL
MODEL 5
REMARK VINA RESULT:      -8.5      0.931      1.555
REMARK  Name = 
REMARK  7 active torsions:
REMARK  status: ('A' for Active; 'I' for Inactive)
REMARK    1  A    between atoms: C_2  and  C_22
REMARK    2  A    between atoms: N_3  and  C_4
REMARK    3  A    between atoms: C_4  and  C_5
REMARK    4  A    between atoms: C_4  and  C_11
REMARK    5  A    between atoms: C_14  and  C_15
REMARK    6  A    between atoms: C_15  and  C_16
REMARK    7  A    between atoms: C_25  and  C_26
REMARK                            x       y       z     vdW  Elec       q    Type
REMARK                         _______ _______ _______ _____ _____    ______ ____
ROOT
ATOM      1  C   UNL     1       3.175   6.023  19.636  0.00  0.00    +0.000 C 
ENDROOT
BRANCH   1   2
ATOM      2  C   UNL     1       2.373   4.761  19.920  0.00  0.00    +0.000 A 
ATOM      3  C   UNL     1       2.320   4.201  21.207  0.00  0.00    +0.000 A 
ATOM      4  C   UNL     1       1.607   3.026  21.448  0.00  0.00    +0.000 A 
ATOM      5  C   UNL     1       0.927   2.396  20.409  0.00  0.00    +0.000 A 
ATOM      6  C   UNL     1       0.957   2.941  19.127  0.00  0.00    +0.000 A 
ATOM      7  C   UNL     1       1.677   4.113  18.882  0.00  0.00    +0.000 A 
ENDBRANCH   1   2
BRANCH   1   8
ATOM      8  C   UNL     1       4.175   5.856  18.491  0.00  0.00    +0.000 A 
ATOM      9  C   UNL     1       4.094   6.705  17.375  0.00  0.00    +0.000 A 
ATOM     10  C   UNL     1       4.950   6.536  16.282  0.00  0.00    +0.000 A 
ATOM     11  C   UNL     1       5.912   5.518  16.283  0.00  0.00    +0.000 A 
ATOM     12  C   UNL     1       6.033   4.701  17.409  0.00  0.00    +0.000 A 
ATOM     13  C   UNL     1       5.180   4.875  18.504  0.00  0.00    +0.000 A 
BRANCH  11  14
ATOM     14  C   UNL     1       6.795   5.304  15.079  0.00  0.00    +0.000 C 
BRANCH  14  15
ATOM     15  C   UNL     1       6.290   4.292  14.061  0.00  0.00    +0.000 C 
ATOM     16  F   UNL     1       6.387   3.010  14.469  0.00  0.00    +0.000 F 
ATOM     17  F   UNL     1       4.986   4.523  13.769  0.00  0.00    +0.000 F 
ATOM     18  F   UNL     1       6.980   4.401  12.901  0.00  0.00    +0.000 F 
ENDBRANCH  14  15
ENDBRANCH  11  14
ENDBRANCH   1   8
BRANCH   1  21
ATOM     19  O   UNL     1       1.965   7.732  21.593  0.00  0.00    +0.000 OA
ATOM     20  C   UNL     1       1.770   7.937  20.398  0.00  0.00    +0.000 C 
ATOM     21  N   UNL     1       2.273   7.141  19.405  0.00  0.00    +0.000 N 
ATOM     22  H   UNL     1       2.085   7.394  18.439  0.00  0.00    +0.000 HD
BRANCH  20  23
ATOM     23  C   UNL     1       0.953   9.099  19.928  0.00  0.00    +0.000 A 
ATOM     24  C   UNL     1       1.225   9.641  18.722  0.00  0.00    +0.000 A 
ATOM     25  C   UNL     1       0.472  10.764  18.203  0.00  0.00    +0.000 A 
ATOM     26  C   UNL     1      -0.545  11.291  18.910  0.00  0.00    +0.000 A 
ATOM     27  N   UNL     1      -0.844  10.737  20.145  0.00  0.00    +0.000 N 
ATOM     28  C   UNL     1      -0.166   9.691  20.721  0.00  0.00    +0.000 A 
ATOM     29  O   UNL     1      -0.482   9.274  21.835  0.00  0.00    +0.000 OA
ATOM     30  H   UNL     1      -1.612  11.126  20.688  0.00  0.00    +0.000 HD
BRANCH  26  31
ATOM     31  C   UNL     1      -1.373  12.460  18.429  0.00  0.00    +0.000 C 
ATOM     32  F   UNL     1      -2.100  13.000  19.446  0.00  0.00    +0.000 F 
ATOM     33  F   UNL     1      -0.603  13.454  17.924  0.00  0.00    +0.000 F 
ATOM     34  F   UNL     1      -2.255  12.101  17.464  0.00  0.00    +0.000 F 
ENDBRANCH  26  31
ENDBRANCH  20  23
ENDBRANCH   1  21
TORSDOF 7
ENDMDL
MODEL 6
REMARK VINA RESULT:      -8.5      0.925      1.640
REMARK  Name = 
REMARK  7 active torsions:
REMARK  status: ('A' for Active; 'I' for Inactive)
REMARK    1  A    between atoms: C_2  and  C_22
REMARK    2  A    between atoms: N_3  and  C_4
REMARK    3  A    between atoms: C_4  and  C_5
REMARK    4  A    between atoms: C_4  and  C_11
REMARK    5  A    between atoms: C_14  and  C_15
REMARK    6  A    between atoms: C_15  and  C_16
REMARK    7  A    between atoms: C_25  and  C_26
REMARK                            x       y       z     vdW  Elec       q    Type
REMARK                         _______ _______ _______ _____ _____    ______ ____
ROOT
ATOM      1  C   UNL     1       3.276   6.017  19.486  0.00  0.00    +0.000 C 
ENDROOT
BRANCH   1   2
ATOM      2  C   UNL     1       2.484   4.762  19.827  0.00  0.00    +0.000 A 
ATOM      3  C   UNL     1       1.687   4.116  18.867  0.00  0.00    +0.000 A 
ATOM      4  C   UNL     1       0.940   2.985  19.200  0.00  0.00    +0.000 A 
ATOM      5  C   UNL     1       0.985   2.476  20.495  0.00  0.00    +0.000 A 
ATOM      6  C   UNL     1       1.779   3.095  21.459  0.00  0.00    +0.000 A 
ATOM      7  C   UNL     1       2.521   4.232  21.129  0.00  0.00    +0.000 A 
ENDBRANCH   1   2
BRANCH   1   8
ATOM      8  C   UNL     1       4.223   5.828  18.300  0.00  0.00    +0.000 A 
ATOM      9  C   UNL     1       4.239   6.782  17.270  0.00  0.00    +0.000 A 
ATOM     10  C   UNL     1       5.043   6.605  16.140  0.00  0.00    +0.000 A 
ATOM     11  C   UNL     1       5.857   5.473  16.018  0.00  0.00    +0.000 A 
ATOM     12  C   UNL     1       5.886   4.543  17.059  0.00  0.00    +0.000 A 
ATOM     13  C   UNL     1       5.085   4.724  18.192  0.00  0.00    +0.000 A 
BRANCH  11  14
ATOM     14  C   UNL     1       6.681   5.258  14.772  0.00  0.00    +0.000 C 
BRANCH  14  15
ATOM     15  C   UNL     1       6.203   4.148  13.847  0.00  0.00    +0.000 C 
ATOM     16  F   UNL     1       6.383   2.907  14.343  0.00  0.00    +0.000 F 
ATOM     17  F   UNL     1       4.880   4.289  13.583  0.00  0.00    +0.000 F 
ATOM     18  F   UNL     1       6.851   4.208  12.660  0.00  0.00    +0.000 F 
ENDBRANCH  14  15
ENDBRANCH  11  14
ENDBRANCH   1   8
BRANCH   1  21
ATOM     19  O   UNL     1       1.954   7.597  21.478  0.00  0.00    +0.000 OA
ATOM     20  C   UNL     1       1.809   7.867  20.289  0.00  0.00    +0.000 C 
ATOM     21  N   UNL     1       2.368   7.134  19.277  0.00  0.00    +0.000 N 
ATOM     22  H   UNL     1       2.219   7.438  18.319  0.00  0.00    +0.000 HD
BRANCH  20  23
ATOM     23  C   UNL     1       0.995   9.042  19.848  0.00  0.00    +0.000 A 
ATOM     24  C   UNL     1       1.290   9.634  18.671  0.00  0.00    +0.000 A 
ATOM     25  C   UNL     1       0.541  10.773  18.181  0.00  0.00    +0.000 A 
ATOM     26  C   UNL     1      -0.494  11.265  18.885  0.00  0.00    +0.000 A 
ATOM     27  N   UNL     1      -0.817  10.659  20.090  0.00  0.00    +0.000 N 
ATOM     28  C   UNL     1      -0.145   9.595  20.639  0.00  0.00    +0.000 A 
ATOM     29  O   UNL     1      -0.483   9.131  21.727  0.00  0.00    +0.000 OA
ATOM     30  H   UNL     1      -1.600  11.022  20.631  0.00  0.00    +0.000 HD
BRANCH  26  31
ATOM     31  C   UNL     1      -1.319  12.448  18.434  0.00  0.00    +0.000 C 
ATOM     32  F   UNL     1      -0.558  13.351  17.758  0.00  0.00    +0.000 F 
ATOM     33  F   UNL     1      -2.324  12.079  17.603  0.00  0.00    +0.000 F 
ATOM     34  F   UNL     1      -1.880  13.109  19.477  0.00  0.00    +0.000 F 
ENDBRANCH  26  31
ENDBRANCH  20  23
ENDBRANCH   1  21
TORSDOF 7
ENDMDL
MODEL 7
REMARK VINA RESULT:      -8.5      0.945      1.743
REMARK  Name = 
REMARK  7 active torsions:
REMARK  status: ('A' for Active; 'I' for Inactive)
REMARK    1  A    between atoms: C_2  and  C_22
REMARK    2  A    between atoms: N_3  and  C_4
REMARK    3  A    between atoms: C_4  and  C_5
REMARK    4  A    between atoms: C_4  and  C_11
REMARK    5  A    between atoms: C_14  and  C_15
REMARK    6  A    between atoms: C_15  and  C_16
REMARK    7  A    between atoms: C_25  and  C_26
REMARK                            x       y       z     vdW  Elec       q    Type
REMARK                         _______ _______ _______ _____ _____    ______ ____
ROOT
ATOM      1  C   UNL     1       3.219   6.050  19.434  0.00  0.00    +0.000 C 
ENDROOT
BRANCH   1   2
ATOM      2  C   UNL     1       2.455   4.814  19.888  0.00  0.00    +0.000 A 
ATOM      3  C   UNL     1       2.646   4.265  21.167  0.00  0.00    +0.000 A 
ATOM      4  C   UNL     1       1.963   3.112  21.560  0.00  0.00    +0.000 A 
ATOM      5  C   UNL     1       1.072   2.496  20.685  0.00  0.00    +0.000 A 
ATOM      6  C   UNL     1       0.860   3.032  19.416  0.00  0.00    +0.000 A 
ATOM      7  C   UNL     1       1.549   4.180  19.018  0.00  0.00    +0.000 A 
ENDBRANCH   1   2
BRANCH   1   8
ATOM      8  C   UNL     1       4.074   5.807  18.191  0.00  0.00    +0.000 A 
ATOM      9  C   UNL     1       4.701   4.562  18.017  0.00  0.00    +0.000 A 
ATOM     10  C   UNL     1       5.544   4.330  16.926  0.00  0.00    +0.000 A 
ATOM     11  C   UNL     1       5.775   5.335  15.979  0.00  0.00    +0.000 A 
ATOM     12  C   UNL     1       5.117   6.559  16.116  0.00  0.00    +0.000 A 
ATOM     13  C   UNL     1       4.269   6.788  17.205  0.00  0.00    +0.000 A 
BRANCH  11  14
ATOM     14  C   UNL     1       6.728   5.099  14.834  0.00  0.00    +0.000 C 
BRANCH  14  15
ATOM     15  C   UNL     1       6.237   4.149  13.751  0.00  0.00    +0.000 C 
ATOM     16  F   UNL     1       6.879   4.285  12.572  0.00  0.00    +0.000 F 
ATOM     17  F   UNL     1       6.388   2.861  14.146  0.00  0.00    +0.000 F 
ATOM     18  F   UNL     1       4.917   4.339  13.517  0.00  0.00    +0.000 F 
ENDBRANCH  14  15
ENDBRANCH  11  14
ENDBRANCH   1   8
BRANCH   1  21
ATOM     19  O   UNL     1       1.986   7.670  21.452  0.00  0.00    +0.000 OA
ATOM     20  C   UNL     1       1.783   7.913  20.266  0.00  0.00    +0.000 C 
ATOM     21  N   UNL     1       2.296   7.159  19.244  0.00  0.00    +0.000 N 
ATOM     22  H   UNL     1       2.100   7.442  18.288  0.00  0.00    +0.000 HD
BRANCH  20  23
ATOM     23  C   UNL     1       0.943   9.074  19.839  0.00  0.00    +0.000 A 
ATOM     24  C   UNL     1       1.189   9.651  18.643  0.00  0.00    +0.000 A 
ATOM     25  C   UNL     1       0.413  10.777  18.164  0.00  0.00    +0.000 A 
ATOM     26  C   UNL     1      -0.599  11.272  18.900  0.00  0.00    +0.000 A 
ATOM     27  N   UNL     1      -0.871  10.683  20.125  0.00  0.00    +0.000 N 
ATOM     28  C   UNL     1      -0.170   9.631  20.664  0.00  0.00    +0.000 A 
ATOM     29  O   UNL     1      -0.463   9.182  21.771  0.00  0.00    +0.000 OA
ATOM     30  H   UNL     1      -1.636  11.048  20.690  0.00  0.00    +0.000 HD
BRANCH  26  31
ATOM     31  C   UNL     1      -1.450  12.442  18.463  0.00  0.00    +0.000 C 
ATOM     32  F   UNL     1      -1.905  13.148  19.534  0.00  0.00    +0.000 F 
ATOM     33  F   UNL     1      -0.759  13.308  17.683  0.00  0.00    +0.000 F 
ATOM     34  F   UNL     1      -2.540  12.047  17.760  0.00  0.00    +0.000 F 
ENDBRANCH  26  31
ENDBRANCH  20  23
ENDBRANCH   1  21
TORSDOF 7
ENDMDL
MODEL 8
REMARK VINA RESULT:      -8.4      0.957      1.947
REMARK  Name = 
REMARK  7 active torsions:
REMARK  status: ('A' for Active; 'I' for Inactive)
REMARK    1  A    between atoms: C_2  and  C_22
REMARK    2  A    between atoms: N_3  and  C_4
REMARK    3  A    between atoms: C_4  and  C_5
REMARK    4  A    between atoms: C_4  and  C_11
REMARK    5  A    between atoms: C_14  and  C_15
REMARK    6  A    between atoms: C_15  and  C_16
REMARK    7  A    between atoms: C_25  and  C_26
REMARK                            x       y       z     vdW  Elec       q    Type
REMARK                         _______ _______ _______ _____ _____    ______ ____
ROOT
ATOM      1  C   UNL     1       3.310   6.027  19.314  0.00  0.00    +0.000 C 
ENDROOT
BRANCH   1   2
ATOM      2  C   UNL     1       2.546   4.801  19.793  0.00  0.00    +0.000 A 
ATOM      3  C   UNL     1       1.576   4.181  18.987  0.00  0.00    +0.000 A 
ATOM      4  C   UNL     1       0.860   3.077  19.451  0.00  0.00    +0.000 A 
ATOM      5  C   UNL     1       1.108   2.568  20.723  0.00  0.00    +0.000 A 
ATOM      6  C   UNL     1       2.074   3.160  21.533  0.00  0.00    +0.000 A 
ATOM      7  C   UNL     1       2.786   4.272  21.074  0.00  0.00    +0.000 A 
ENDBRANCH   1   2
BRANCH   1   8
ATOM      8  C   UNL     1       4.134   5.769  18.053  0.00  0.00    +0.000 A 
ATOM      9  C   UNL     1       4.731   4.511  17.864  0.00  0.00    +0.000 A 
ATOM     10  C   UNL     1       5.546   4.264  16.755  0.00  0.00    +0.000 A 
ATOM     11  C   UNL     1       5.779   5.266  15.806  0.00  0.00    +0.000 A 
ATOM     12  C   UNL     1       5.150   6.504  15.959  0.00  0.00    +0.000 A 
ATOM     13  C   UNL     1       4.330   6.748  17.065  0.00  0.00    +0.000 A 
BRANCH  11  14
ATOM     14  C   UNL     1       6.703   5.013  14.641  0.00  0.00    +0.000 C 
BRANCH  14  15
ATOM     15  C   UNL     1       6.168   4.081  13.563  0.00  0.00    +0.000 C 
ATOM     16  F   UNL     1       6.735   4.261  12.353  0.00  0.00    +0.000 F 
ATOM     17  F   UNL     1       6.367   2.787  13.913  0.00  0.00    +0.000 F 
ATOM     18  F   UNL     1       4.832   4.248  13.413  0.00  0.00    +0.000 F 
ENDBRANCH  14  15
ENDBRANCH  11  14
ENDBRANCH   1   8
BRANCH   1  21
ATOM     19  O   UNL     1       1.956   7.522  21.351  0.00  0.00    +0.000 OA
ATOM     20  C   UNL     1       1.819   7.834  20.172  0.00  0.00    +0.000 C 
ATOM     21  N   UNL     1       2.393   7.144  19.138  0.00  0.00    +0.000 N 
ATOM     22  H   UNL     1       2.249   7.482  18.191  0.00  0.00    +0.000 HD
BRANCH  20  23
ATOM     23  C   UNL     1       0.997   9.017  19.768  0.00  0.00    +0.000 A 
ATOM     24  C   UNL     1       1.248   9.608  18.580  0.00  0.00    +0.000 A 
ATOM     25  C   UNL     1       0.490  10.755  18.124  0.00  0.00    +0.000 A 
ATOM     26  C   UNL     1      -0.510  11.255  18.872  0.00  0.00    +0.000 A 
ATOM     27  N   UNL     1      -0.787  10.651  20.089  0.00  0.00    +0.000 N 
ATOM     28  C   UNL     1      -0.103   9.580  20.607  0.00  0.00    +0.000 A 
ATOM     29  O   UNL     1      -0.398   9.117  21.708  0.00  0.00    +0.000 OA
ATOM     30  H   UNL     1      -1.543  11.021  20.663  0.00  0.00    +0.000 HD
BRANCH  26  31
ATOM     31  C   UNL     1      -1.342  12.447  18.458  0.00  0.00    +0.000 C 
ATOM     32  F   UNL     1      -2.126  12.152  17.384  0.00  0.00    +0.000 F 
ATOM     33  F   UNL     1      -2.170  12.857  19.449  0.00  0.00    +0.000 F 
ATOM     34  F   UNL     1      -0.577  13.509  18.105  0.00  0.00    +0.000 F 
ENDBRANCH  26  31
ENDBRANCH  20  23
ENDBRANCH   1  21
TORSDOF 7
ENDMDL
MODEL 9
REMARK VINA RESULT:      -8.3      1.364      2.086
REMARK  Name = 
REMARK  7 active torsions:
REMARK  status: ('A' for Active; 'I' for Inactive)
REMARK    1  A    between atoms: C_2  and  C_22
REMARK    2  A    between atoms: N_3  and  C_4
REMARK    3  A    between atoms: C_4  and  C_5
REMARK    4  A    between atoms: C_4  and  C_11
REMARK    5  A    between atoms: C_14  and  C_15
REMARK    6  A    between atoms: C_15  and  C_16
REMARK    7  A    between atoms: C_25  and  C_26
REMARK                            x       y       z     vdW  Elec       q    Type
REMARK                         _______ _______ _______ _____ _____    ______ ____
ROOT
ATOM      1  C   UNL     1       3.603   5.485  18.680  0.00  0.00    +0.000 C 
ENDROOT
BRANCH   1   2
ATOM      2  C   UNL     1       2.655   4.348  19.034  0.00  0.00    +0.000 A 
ATOM      3  C   UNL     1       1.562   4.024  18.213  0.00  0.00    +0.000 A 
ATOM      4  C   UNL     1       0.681   3.000  18.565  0.00  0.00    +0.000 A 
ATOM      5  C   UNL     1       0.884   2.276  19.737  0.00  0.00    +0.000 A 
ATOM      6  C   UNL     1       1.969   2.574  20.559  0.00  0.00    +0.000 A 
ATOM      7  C   UNL     1       2.847   3.605  20.213  0.00  0.00    +0.000 A 
ENDBRANCH   1   2
BRANCH   1   8
ATOM      8  C   UNL     1       4.387   5.237  17.392  0.00  0.00    +0.000 A 
ATOM      9  C   UNL     1       4.818   3.936  17.086  0.00  0.00    +0.000 A 
ATOM     10  C   UNL     1       5.595   3.686  15.950  0.00  0.00    +0.000 A 
ATOM     11  C   UNL     1       5.953   4.731  15.090  0.00  0.00    +0.000 A 
ATOM     12  C   UNL     1       5.489   6.021  15.360  0.00  0.00    +0.000 A 
ATOM     13  C   UNL     1       4.707   6.268  16.493  0.00  0.00    +0.000 A 
BRANCH  11  14
ATOM     14  C   UNL     1       6.838   4.467  13.897  0.00  0.00    +0.000 C 
BRANCH  14  15
ATOM     15  C   UNL     1       6.171   3.765  12.723  0.00  0.00    +0.000 C 
ATOM     16  F   UNL     1       4.829   3.899  12.696  0.00  0.00    +0.000 F 
ATOM     17  F   UNL     1       6.647   4.246  11.549  0.00  0.00    +0.000 F 
ATOM     18  F   UNL     1       6.445   2.439  12.747  0.00  0.00    +0.000 F 
ENDBRANCH  14  15
ENDBRANCH  11  14
ENDBRANCH   1   8
BRANCH   1  21
ATOM     19  O   UNL     1       2.034   6.682  20.760  0.00  0.00    +0.000 OA
ATOM     20  C   UNL     1       2.177   7.266  19.689  0.00  0.00    +0.000 C 
ATOM     21  N   UNL     1       2.871   6.742  18.632  0.00  0.00    +0.000 N 
ATOM     22  H   UNL     1       2.963   7.301  17.789  0.00  0.00    +0.000 HD
BRANCH  20  23
ATOM     23  C   UNL     1       1.592   8.623  19.456  0.00  0.00    +0.000 A 
ATOM     24  C   UNL     1       1.805   9.228  18.268  0.00  0.00    +0.000 A 
ATOM     25  C   UNL     1       1.267  10.540  17.973  0.00  0.00    +0.000 A 
ATOM     26  C   UNL     1       0.514  11.190  18.878  0.00  0.00    +0.000 A 
ATOM     27  N   UNL     1       0.277  10.576  20.099  0.00  0.00    +0.000 N 
ATOM     28  C   UNL     1       0.769   9.349  20.469  0.00  0.00    +0.000 A 
ATOM     29  O   UNL     1       0.530   8.885  21.583  0.00  0.00    +0.000 OA
ATOM     30  H   UNL     1      -0.293  11.058  20.791  0.00  0.00    +0.000 HD
BRANCH  26  31
ATOM     31  C   UNL     1      -0.081  12.558  18.637  0.00  0.00    +0.000 C 
ATOM     32  F   UNL     1      -0.529  13.113  19.797  0.00  0.00    +0.000 F 
ATOM     33  F   UNL     1       0.824  13.420  18.113  0.00  0.00    +0.000 F 
ATOM     34  F   UNL     1      -1.137  12.515  17.788  0.00  0.00    +0.000 F 
ENDBRANCH  26  31
ENDBRANCH  20  23
ENDBRANCH   1  21
TORSDOF 7
ENDMDL
