MODEL 1
REMARK VINA RESULT:      -7.2      0.000      0.000
REMARK  Name = 
REMARK  8 active torsions:
REMARK  status: ('A' for Active; 'I' for Inactive)
REMARK    1  A    between atoms: C_1  and  O_2
REMARK    2  A    between atoms: O_2  and  C_3
REMARK    3  A    between atoms: C_7  and  C_8
REMARK    4  A    between atoms: C_9  and  C_10
REMARK    5  A    between atoms: C_10  and  O_12
REMARK    6  A    between atoms: C_15  and  O_16
REMARK    7  A    between atoms: O_16  and  S_17
REMARK    8  A    between atoms: S_17  and  O_20
REMARK                            x       y       z     vdW  Elec       q    Type
REMARK                         _______ _______ _______ _____ _____    ______ ____
ROOT
ATOM      1  C   UNL     1       6.535   5.471  17.726  0.00  0.00    +0.000 A 
ATOM      2  C   UNL     1       5.747   5.854  18.821  0.00  0.00    +0.000 A 
ATOM      3  C   UNL     1       4.575   5.142  19.041  0.00  0.00    +0.000 A 
ATOM      4  O   UNL     1       3.697   5.400  20.039  0.00  0.00    +0.000 OA
ATOM      5  C   UNL     1       2.656   4.535  19.905  0.00  0.00    +0.000 A 
ATOM      6  C   UNL     1       1.564   4.759  20.880  0.00  0.00    +0.000 C 
ATOM      7  C   UNL     1       2.872   3.682  18.828  0.00  0.00    +0.000 A 
ATOM      8  C   UNL     1       4.130   4.090  18.262  0.00  0.00    +0.000 A 
ATOM      9  C   UNL     1       4.935   3.701  17.172  0.00  0.00    +0.000 A 
ATOM     10  C   UNL     1       6.135   4.396  16.912  0.00  0.00    +0.000 A 
ENDROOT
BRANCH   1  12
ATOM     11  C   UNL     1       7.633   7.570  17.551  0.00  0.00    +0.000 C 
ATOM     12  O   UNL     1       7.666   6.157  17.374  0.00  0.00    +0.000 OA
ENDBRANCH   1  12
BRANCH   7  13
ATOM     13  C   UNL     1       2.001   2.639  18.309  0.00  0.00    +0.000 C 
ATOM     14  O   UNL     1       0.849   2.846  17.959  0.00  0.00    +0.000 OA
BRANCH  13  15
ATOM     15  O   UNL     1       2.554   1.405  18.204  0.00  0.00    +0.000 OA
ATOM     16  H   UNL     1       2.251   0.784  18.886  0.00  0.00    +0.000 HD
ENDBRANCH  13  15
ENDBRANCH   7  13
BRANCH  10  17
ATOM     17  O   UNL     1       6.790   3.969  15.780  0.00  0.00    +0.000 OA
BRANCH  17  18
ATOM     18  S   UNL     1       6.709   4.757  14.354  0.00  0.00    +0.000 S 
ATOM     19  O   UNL     1       7.961   5.438  14.103  0.00  0.00    +0.000 OA
ATOM     20  O   UNL     1       6.053   3.935  13.359  0.00  0.00    +0.000 OA
BRANCH  18  21
ATOM     21  O   UNL     1       5.695   5.960  14.697  0.00  0.00    +0.000 OA
ATOM     22  H   UNL     1       4.789   5.611  14.558  0.00  0.00    +0.000 HD
ENDBRANCH  18  21
ENDBRANCH  17  18
ENDBRANCH  10  17
TORSDOF 6
ENDMDL
MODEL 2
REMARK VINA RESULT:      -7.1      0.632      1.151
REMARK  Name = 
REMARK  8 active torsions:
REMARK  status: ('A' for Active; 'I' for Inactive)
REMARK    1  A    between atoms: C_1  and  O_2
REMARK    2  A    between atoms: O_2  and  C_3
REMARK    3  A    between atoms: C_7  and  C_8
REMARK    4  A    between atoms: C_9  and  C_10
REMARK    5  A    between atoms: C_10  and  O_12
REMARK    6  A    between atoms: C_15  and  O_16
REMARK    7  A    between atoms: O_16  and  S_17
REMARK    8  A    between atoms: S_17  and  O_20
REMARK                            x       y       z     vdW  Elec       q    Type
REMARK                         _______ _______ _______ _____ _____    ______ ____
ROOT
ATOM      1  C   UNL     1       6.720   5.582  18.264  0.00  0.00    +0.000 A 
ATOM      2  C   UNL     1       5.802   5.758  19.309  0.00  0.00    +0.000 A 
ATOM      3  C   UNL     1       4.657   4.972  19.288  0.00  0.00    +0.000 A 
ATOM      4  O   UNL     1       3.666   5.036  20.209  0.00  0.00    +0.000 OA
ATOM      5  C   UNL     1       2.696   4.160  19.830  0.00  0.00    +0.000 A 
ATOM      6  C   UNL     1       1.498   4.185  20.701  0.00  0.00    +0.000 C 
ATOM      7  C   UNL     1       3.072   3.495  18.668  0.00  0.00    +0.000 A 
ATOM      8  C   UNL     1       4.356   4.037  18.314  0.00  0.00    +0.000 A 
ATOM      9  C   UNL     1       5.291   3.856  17.275  0.00  0.00    +0.000 A 
ATOM     10  C   UNL     1       6.470   4.632  17.258  0.00  0.00    +0.000 A 
ENDROOT
BRANCH   1  12
ATOM     11  C   UNL     1       7.661   7.651  17.570  0.00  0.00    +0.000 C 
ATOM     12  O   UNL     1       7.841   6.360  18.147  0.00  0.00    +0.000 OA
ENDBRANCH   1  12
BRANCH   7  13
ATOM     13  C   UNL     1       2.321   2.511  17.905  0.00  0.00    +0.000 C 
ATOM     14  O   UNL     1       2.087   2.631  16.712  0.00  0.00    +0.000 OA
BRANCH  13  15
ATOM     15  O   UNL     1       1.911   1.416  18.593  0.00  0.00    +0.000 OA
ATOM     16  H   UNL     1       1.631   0.681  18.022  0.00  0.00    +0.000 HD
ENDBRANCH  13  15
ENDBRANCH   7  13
BRANCH  10  17
ATOM     17  O   UNL     1       7.262   4.413  16.154  0.00  0.00    +0.000 OA
BRANCH  17  18
ATOM     18  S   UNL     1       6.895   4.977  14.668  0.00  0.00    +0.000 S 
ATOM     19  O   UNL     1       5.677   5.755  14.730  0.00  0.00    +0.000 OA
ATOM     20  O   UNL     1       8.089   5.445  13.996  0.00  0.00    +0.000 OA
BRANCH  18  21
ATOM     21  O   UNL     1       6.437   3.632  13.908  0.00  0.00    +0.000 OA
ATOM     22  H   UNL     1       7.193   3.357  13.346  0.00  0.00    +0.000 HD
ENDBRANCH  18  21
ENDBRANCH  17  18
ENDBRANCH  10  17
TORSDOF 6
ENDMDL
MODEL 3
REMARK VINA RESULT:      -7.1      0.987      1.365
REMARK  Name = 
REMARK  8 active torsions:
REMARK  status: ('A' for Active; 'I' for Inactive)
REMARK    1  A    between atoms: C_1  and  O_2
REMARK    2  A    between atoms: O_2  and  C_3
REMARK    3  A    between atoms: C_7  and  C_8
REMARK    4  A    between atoms: C_9  and  C_10
REMARK    5  A    between atoms: C_10  and  O_12
REMARK    6  A    between atoms: C_15  and  O_16
REMARK    7  A    between atoms: O_16  and  S_17
REMARK    8  A    between atoms: S_17  and  O_20
REMARK                            x       y       z     vdW  Elec       q    Type
REMARK                         _______ _______ _______ _____ _____    ______ ____
ROOT
ATOM      1  C   UNL     1       5.586   5.943  17.949  0.00  0.00    +0.000 A 
ATOM      2  C   UNL     1       5.070   5.768  19.241  0.00  0.00    +0.000 A 
ATOM      3  C   UNL     1       4.041   4.849  19.397  0.00  0.00    +0.000 A 
ATOM      4  O   UNL     1       3.423   4.581  20.571  0.00  0.00    +0.000 OA
ATOM      5  C   UNL     1       2.441   3.672  20.321  0.00  0.00    +0.000 A 
ATOM      6  C   UNL     1       1.614   3.347  21.506  0.00  0.00    +0.000 C 
ATOM      7  C   UNL     1       2.441   3.319  18.976  0.00  0.00    +0.000 A 
ATOM      8  C   UNL     1       3.488   4.100  18.374  0.00  0.00    +0.000 A 
ATOM      9  C   UNL     1       4.021   4.270  17.080  0.00  0.00    +0.000 A 
ATOM     10  C   UNL     1       5.070   5.193  16.878  0.00  0.00    +0.000 A 
ENDROOT
BRANCH   1  12
ATOM     11  C   UNL     1       7.781   6.748  18.371  0.00  0.00    +0.000 C 
ATOM     12  O   UNL     1       6.545   6.879  17.674  0.00  0.00    +0.000 OA
ENDBRANCH   1  12
BRANCH   7  13
ATOM     13  C   UNL     1       1.541   2.416  18.278  0.00  0.00    +0.000 C 
ATOM     14  O   UNL     1       0.334   2.397  18.469  0.00  0.00    +0.000 OA
BRANCH  13  15
ATOM     15  O   UNL     1       2.117   1.597  17.362  0.00  0.00    +0.000 OA
ATOM     16  H   UNL     1       1.526   1.358  16.629  0.00  0.00    +0.000 HD
ENDBRANCH  13  15
ENDBRANCH   7  13
BRANCH  10  17
ATOM     17  O   UNL     1       5.450   5.320  15.561  0.00  0.00    +0.000 OA
BRANCH  17  18
ATOM     18  S   UNL     1       6.836   4.695  14.970  0.00  0.00    +0.000 S 
ATOM     19  O   UNL     1       7.333   5.537  13.903  0.00  0.00    +0.000 OA
ATOM     20  O   UNL     1       7.677   4.221  16.049  0.00  0.00    +0.000 OA
BRANCH  18  21
ATOM     21  O   UNL     1       6.305   3.387  14.193  0.00  0.00    +0.000 OA
ATOM     22  H   UNL     1       7.094   2.838  13.999  0.00  0.00    +0.000 HD
ENDBRANCH  18  21
ENDBRANCH  17  18
ENDBRANCH  10  17
TORSDOF 6
ENDMDL
MODEL 4
REMARK VINA RESULT:      -7.0      2.385      3.382
REMARK  Name = 
REMARK  8 active torsions:
REMARK  status: ('A' for Active; 'I' for Inactive)
REMARK    1  A    between atoms: C_1  and  O_2
REMARK    2  A    between atoms: O_2  and  C_3
REMARK    3  A    between atoms: C_7  and  C_8
REMARK    4  A    between atoms: C_9  and  C_10
REMARK    5  A    between atoms: C_10  and  O_12
REMARK    6  A    between atoms: C_15  and  O_16
REMARK    7  A    between atoms: O_16  and  S_17
REMARK    8  A    between atoms: S_17  and  O_20
REMARK                            x       y       z     vdW  Elec       q    Type
REMARK                         _______ _______ _______ _____ _____    ______ ____
ROOT
ATOM      1  C   UNL     1       3.336   7.074  18.278  0.00  0.00    +0.000 A 
ATOM      2  C   UNL     1       2.419   6.572  19.212  0.00  0.00    +0.000 A 
ATOM      3  C   UNL     1       2.637   5.285  19.688  0.00  0.00    +0.000 A 
ATOM      4  O   UNL     1       1.835   4.649  20.574  0.00  0.00    +0.000 OA
ATOM      5  C   UNL     1       2.337   3.398  20.759  0.00  0.00    +0.000 A 
ATOM      6  C   UNL     1       1.507   2.547  21.642  0.00  0.00    +0.000 C 
ATOM      7  C   UNL     1       3.497   3.228  20.011  0.00  0.00    +0.000 A 
ATOM      8  C   UNL     1       3.684   4.467  19.306  0.00  0.00    +0.000 A 
ATOM      9  C   UNL     1       4.610   4.984  18.377  0.00  0.00    +0.000 A 
ATOM     10  C   UNL     1       4.428   6.289  17.869  0.00  0.00    +0.000 A 
ENDROOT
BRANCH   1  12
ATOM     11  C   UNL     1       1.906   8.930  17.881  0.00  0.00    +0.000 C 
ATOM     12  O   UNL     1       3.169   8.298  17.688  0.00  0.00    +0.000 OA
ENDBRANCH   1  12
BRANCH   7  13
ATOM     13  C   UNL     1       4.327   2.041  19.886  0.00  0.00    +0.000 C 
ATOM     14  O   UNL     1       5.142   1.704  20.733  0.00  0.00    +0.000 OA
BRANCH  13  15
ATOM     15  O   UNL     1       4.127   1.293  18.772  0.00  0.00    +0.000 OA
ATOM     16  H   UNL     1       4.570   0.429  18.799  0.00  0.00    +0.000 HD
ENDBRANCH  13  15
ENDBRANCH   7  13
BRANCH  10  17
ATOM     17  O   UNL     1       5.355   6.648  16.917  0.00  0.00    +0.000 OA
BRANCH  17  18
ATOM     18  S   UNL     1       6.951   6.770  17.229  0.00  0.00    +0.000 S 
ATOM     19  O   UNL     1       7.377   8.142  17.057  0.00  0.00    +0.000 OA
ATOM     20  O   UNL     1       7.299   5.984  18.394  0.00  0.00    +0.000 OA
BRANCH  18  21
ATOM     21  O   UNL     1       7.596   6.019  15.958  0.00  0.00    +0.000 OA
ATOM     22  H   UNL     1       8.149   6.681  15.493  0.00  0.00    +0.000 HD
ENDBRANCH  18  21
ENDBRANCH  17  18
ENDBRANCH  10  17
TORSDOF 6
ENDMDL
MODEL 5
REMARK VINA RESULT:      -7.0      1.764      3.483
REMARK  Name = 
REMARK  8 active torsions:
REMARK  status: ('A' for Active; 'I' for Inactive)
REMARK    1  A    between atoms: C_1  and  O_2
REMARK    2  A    between atoms: O_2  and  C_3
REMARK    3  A    between atoms: C_7  and  C_8
REMARK    4  A    between atoms: C_9  and  C_10
REMARK    5  A    between atoms: C_10  and  O_12
REMARK    6  A    between atoms: C_15  and  O_16
REMARK    7  A    between atoms: O_16  and  S_17
REMARK    8  A    between atoms: S_17  and  O_20
REMARK                            x       y       z     vdW  Elec       q    Type
REMARK                         _______ _______ _______ _____ _____    ______ ____
ROOT
ATOM      1  C   UNL     1       5.473   4.083  16.664  0.00  0.00    +0.000 A 
ATOM      2  C   UNL     1       4.257   3.403  16.502  0.00  0.00    +0.000 A 
ATOM      3  C   UNL     1       3.389   3.387  17.586  0.00  0.00    +0.000 A 
ATOM      4  O   UNL     1       2.190   2.758  17.598  0.00  0.00    +0.000 OA
ATOM      5  C   UNL     1       1.653   2.919  18.838  0.00  0.00    +0.000 A 
ATOM      6  C   UNL     1       0.371   2.203  19.031  0.00  0.00    +0.000 C 
ATOM      7  C   UNL     1       2.496   3.688  19.633  0.00  0.00    +0.000 A 
ATOM      8  C   UNL     1       3.636   3.986  18.807  0.00  0.00    +0.000 A 
ATOM      9  C   UNL     1       4.853   4.680  18.958  0.00  0.00    +0.000 A 
ATOM     10  C   UNL     1       5.765   4.723  17.881  0.00  0.00    +0.000 A 
ENDROOT
BRANCH   1  12
ATOM     11  C   UNL     1       5.973   4.253  14.347  0.00  0.00    +0.000 C 
ATOM     12  O   UNL     1       6.432   4.092  15.687  0.00  0.00    +0.000 OA
ENDBRANCH   1  12
BRANCH   7  13
ATOM     13  C   UNL     1       2.330   4.066  21.027  0.00  0.00    +0.000 C 
ATOM     14  O   UNL     1       2.235   3.251  21.932  0.00  0.00    +0.000 OA
BRANCH  13  15
ATOM     15  O   UNL     1       2.317   5.399  21.280  0.00  0.00    +0.000 OA
ATOM     16  H   UNL     1       2.756   5.640  22.113  0.00  0.00    +0.000 HD
ENDBRANCH  13  15
ENDBRANCH   7  13
BRANCH  10  17
ATOM     17  O   UNL     1       6.945   5.366  18.179  0.00  0.00    +0.000 OA
BRANCH  17  18
ATOM     18  S   UNL     1       7.280   6.885  17.688  0.00  0.00    +0.000 S 
ATOM     19  O   UNL     1       6.049   7.585  17.393  0.00  0.00    +0.000 OA
ATOM     20  O   UNL     1       8.330   7.459  18.503  0.00  0.00    +0.000 OA
BRANCH  18  21
ATOM     21  O   UNL     1       7.919   6.629  16.230  0.00  0.00    +0.000 OA
ATOM     22  H   UNL     1       8.734   7.172  16.182  0.00  0.00    +0.000 HD
ENDBRANCH  18  21
ENDBRANCH  17  18
ENDBRANCH  10  17
TORSDOF 6
ENDMDL
MODEL 6
REMARK VINA RESULT:      -7.0      0.870      1.107
REMARK  Name = 
REMARK  8 active torsions:
REMARK  status: ('A' for Active; 'I' for Inactive)
REMARK    1  A    between atoms: C_1  and  O_2
REMARK    2  A    between atoms: O_2  and  C_3
REMARK    3  A    between atoms: C_7  and  C_8
REMARK    4  A    between atoms: C_9  and  C_10
REMARK    5  A    between atoms: C_10  and  O_12
REMARK    6  A    between atoms: C_15  and  O_16
REMARK    7  A    between atoms: O_16  and  S_17
REMARK    8  A    between atoms: S_17  and  O_20
REMARK                            x       y       z     vdW  Elec       q    Type
REMARK                         _______ _______ _______ _____ _____    ______ ____
ROOT
ATOM      1  C   UNL     1       5.747   6.254  17.411  0.00  0.00    +0.000 A 
ATOM      2  C   UNL     1       4.680   6.504  18.285  0.00  0.00    +0.000 A 
ATOM      3  C   UNL     1       3.893   5.420  18.654  0.00  0.00    +0.000 A 
ATOM      4  O   UNL     1       2.816   5.497  19.471  0.00  0.00    +0.000 OA
ATOM      5  C   UNL     1       2.276   4.252  19.558  0.00  0.00    +0.000 A 
ATOM      6  C   UNL     1       1.028   4.197  20.353  0.00  0.00    +0.000 C 
ATOM      7  C   UNL     1       3.028   3.346  18.817  0.00  0.00    +0.000 A 
ATOM      8  C   UNL     1       4.083   4.121  18.221  0.00  0.00    +0.000 A 
ATOM      9  C   UNL     1       5.167   3.875  17.354  0.00  0.00    +0.000 A 
ATOM     10  C   UNL     1       5.994   4.947  16.955  0.00  0.00    +0.000 A 
ENDROOT
BRANCH   1  12
ATOM     11  C   UNL     1       7.685   7.601  17.694  0.00  0.00    +0.000 C 
ATOM     12  O   UNL     1       6.534   7.263  16.924  0.00  0.00    +0.000 OA
ENDBRANCH   1  12
BRANCH   7  13
ATOM     13  C   UNL     1       2.786   1.928  18.605  0.00  0.00    +0.000 C 
ATOM     14  O   UNL     1       3.679   1.095  18.590  0.00  0.00    +0.000 OA
BRANCH  13  15
ATOM     15  O   UNL     1       1.487   1.566  18.451  0.00  0.00    +0.000 OA
ATOM     16  H   UNL     1       1.160   1.672  17.543  0.00  0.00    +0.000 HD
ENDBRANCH  13  15
ENDBRANCH   7  13
BRANCH  10  17
ATOM     17  O   UNL     1       6.968   4.590  16.051  0.00  0.00    +0.000 OA
BRANCH  17  18
ATOM     18  S   UNL     1       6.817   4.817  14.442  0.00  0.00    +0.000 S 
ATOM     19  O   UNL     1       7.953   5.564  13.947  0.00  0.00    +0.000 OA
ATOM     20  O   UNL     1       6.338   3.608  13.805  0.00  0.00    +0.000 OA
BRANCH  18  21
ATOM     21  O   UNL     1       5.612   5.883  14.370  0.00  0.00    +0.000 OA
ATOM     22  H   UNL     1       5.744   6.400  13.547  0.00  0.00    +0.000 HD
ENDBRANCH  18  21
ENDBRANCH  17  18
ENDBRANCH  10  17
TORSDOF 6
ENDMDL
MODEL 7
REMARK VINA RESULT:      -6.9      0.852      1.422
REMARK  Name = 
REMARK  8 active torsions:
REMARK  status: ('A' for Active; 'I' for Inactive)
REMARK    1  A    between atoms: C_1  and  O_2
REMARK    2  A    between atoms: O_2  and  C_3
REMARK    3  A    between atoms: C_7  and  C_8
REMARK    4  A    between atoms: C_9  and  C_10
REMARK    5  A    between atoms: C_10  and  O_12
REMARK    6  A    between atoms: C_15  and  O_16
REMARK    7  A    between atoms: O_16  and  S_17
REMARK    8  A    between atoms: S_17  and  O_20
REMARK                            x       y       z     vdW  Elec       q    Type
REMARK                         _______ _______ _______ _____ _____    ______ ____
ROOT
ATOM      1  C   UNL     1       6.373   5.994  17.718  0.00  0.00    +0.000 A 
ATOM      2  C   UNL     1       5.897   5.777  19.018  0.00  0.00    +0.000 A 
ATOM      3  C   UNL     1       4.653   5.172  19.147  0.00  0.00    +0.000 A 
ATOM      4  O   UNL     1       4.045   4.914  20.329  0.00  0.00    +0.000 OA
ATOM      5  C   UNL     1       2.830   4.366  20.055  0.00  0.00    +0.000 A 
ATOM      6  C   UNL     1       2.006   4.111  21.259  0.00  0.00    +0.000 C 
ATOM      7  C   UNL     1       2.657   4.236  18.681  0.00  0.00    +0.000 A 
ATOM      8  C   UNL     1       3.854   4.773  18.092  0.00  0.00    +0.000 A 
ATOM      9  C   UNL     1       4.347   4.980  16.787  0.00  0.00    +0.000 A 
ATOM     10  C   UNL     1       5.607   5.591  16.610  0.00  0.00    +0.000 A 
ENDROOT
BRANCH   1  12
ATOM     11  C   UNL     1       7.517   8.073  17.599  0.00  0.00    +0.000 C 
ATOM     12  O   UNL     1       7.549   6.654  17.479  0.00  0.00    +0.000 OA
ENDBRANCH   1  12
BRANCH   7  13
ATOM     13  C   UNL     1       1.498   3.739  17.958  0.00  0.00    +0.000 C 
ATOM     14  O   UNL     1       0.912   4.393  17.108  0.00  0.00    +0.000 OA
BRANCH  13  15
ATOM     15  O   UNL     1       1.110   2.474  18.259  0.00  0.00    +0.000 OA
ATOM     16  H   UNL     1       0.147   2.347  18.235  0.00  0.00    +0.000 HD
ENDBRANCH  13  15
ENDBRANCH   7  13
BRANCH  10  17
ATOM     17  O   UNL     1       5.939   5.804  15.292  0.00  0.00    +0.000 OA
BRANCH  17  18
ATOM     18  S   UNL     1       6.979   4.853  14.470  0.00  0.00    +0.000 S 
ATOM     19  O   UNL     1       6.267   3.723  13.912  0.00  0.00    +0.000 OA
ATOM     20  O   UNL     1       7.897   5.660  13.694  0.00  0.00    +0.000 OA
BRANCH  18  21
ATOM     21  O   UNL     1       7.840   4.196  15.663  0.00  0.00    +0.000 OA
ATOM     22  H   UNL     1       7.210   3.687  16.215  0.00  0.00    +0.000 HD
ENDBRANCH  18  21
ENDBRANCH  17  18
ENDBRANCH  10  17
TORSDOF 6
ENDMDL
MODEL 8
REMARK VINA RESULT:      -6.9      2.350      3.256
REMARK  Name = 
REMARK  8 active torsions:
REMARK  status: ('A' for Active; 'I' for Inactive)
REMARK    1  A    between atoms: C_1  and  O_2
REMARK    2  A    between atoms: O_2  and  C_3
REMARK    3  A    between atoms: C_7  and  C_8
REMARK    4  A    between atoms: C_9  and  C_10
REMARK    5  A    between atoms: C_10  and  O_12
REMARK    6  A    between atoms: C_15  and  O_16
REMARK    7  A    between atoms: O_16  and  S_17
REMARK    8  A    between atoms: S_17  and  O_20
REMARK                            x       y       z     vdW  Elec       q    Type
REMARK                         _______ _______ _______ _____ _____    ______ ____
ROOT
ATOM      1  C   UNL     1       3.325   7.199  18.295  0.00  0.00    +0.000 A 
ATOM      2  C   UNL     1       2.406   6.691  19.224  0.00  0.00    +0.000 A 
ATOM      3  C   UNL     1       2.559   5.366  19.611  0.00  0.00    +0.000 A 
ATOM      4  O   UNL     1       1.745   4.722  20.480  0.00  0.00    +0.000 OA
ATOM      5  C   UNL     1       2.176   3.435  20.572  0.00  0.00    +0.000 A 
ATOM      6  C   UNL     1       1.321   2.578  21.426  0.00  0.00    +0.000 C 
ATOM      7  C   UNL     1       3.304   3.246  19.780  0.00  0.00    +0.000 A 
ATOM      8  C   UNL     1       3.545   4.515  19.147  0.00  0.00    +0.000 A 
ATOM      9  C   UNL     1       4.474   5.036  18.225  0.00  0.00    +0.000 A 
ATOM     10  C   UNL     1       4.357   6.379  17.805  0.00  0.00    +0.000 A 
ENDROOT
BRANCH   1  12
ATOM     11  C   UNL     1       1.925   9.066  17.849  0.00  0.00    +0.000 C 
ATOM     12  O   UNL     1       3.216   8.465  17.788  0.00  0.00    +0.000 OA
ENDBRANCH   1  12
BRANCH   7  13
ATOM     13  C   UNL     1       4.057   2.023  19.555  0.00  0.00    +0.000 C 
ATOM     14  O   UNL     1       3.742   1.189  18.719  0.00  0.00    +0.000 OA
BRANCH  13  15
ATOM     15  O   UNL     1       5.170   1.866  20.316  0.00  0.00    +0.000 OA
ATOM     16  H   UNL     1       5.365   0.939  20.530  0.00  0.00    +0.000 HD
ENDBRANCH  13  15
ENDBRANCH   7  13
BRANCH  10  17
ATOM     17  O   UNL     1       5.277   6.744  16.849  0.00  0.00    +0.000 OA
BRANCH  17  18
ATOM     18  S   UNL     1       6.888   6.598  17.062  0.00  0.00    +0.000 S 
ATOM     19  O   UNL     1       7.167   6.239  18.436  0.00  0.00    +0.000 OA
ATOM     20  O   UNL     1       7.486   5.911  15.937  0.00  0.00    +0.000 OA
BRANCH  18  21
ATOM     21  O   UNL     1       7.374   8.132  16.974  0.00  0.00    +0.000 OA
ATOM     22  H   UNL     1       6.604   8.684  17.230  0.00  0.00    +0.000 HD
ENDBRANCH  18  21
ENDBRANCH  17  18
ENDBRANCH  10  17
TORSDOF 6
ENDMDL
MODEL 9
REMARK VINA RESULT:      -6.9      1.996      3.732
REMARK  Name = 
REMARK  8 active torsions:
REMARK  status: ('A' for Active; 'I' for Inactive)
REMARK    1  A    between atoms: C_1  and  O_2
REMARK    2  A    between atoms: O_2  and  C_3
REMARK    3  A    between atoms: C_7  and  C_8
REMARK    4  A    between atoms: C_9  and  C_10
REMARK    5  A    between atoms: C_10  and  O_12
REMARK    6  A    between atoms: C_15  and  O_16
REMARK    7  A    between atoms: O_16  and  S_17
REMARK    8  A    between atoms: S_17  and  O_20
REMARK                            x       y       z     vdW  Elec       q    Type
REMARK                         _______ _______ _______ _____ _____    ______ ____
ROOT
ATOM      1  C   UNL     1       5.069   4.869  16.659  0.00  0.00    +0.000 A 
ATOM      2  C   UNL     1       3.969   4.021  16.468  0.00  0.00    +0.000 A 
ATOM      3  C   UNL     1       3.141   3.798  17.561  0.00  0.00    +0.000 A 
ATOM      4  O   UNL     1       2.053   2.992  17.547  0.00  0.00    +0.000 OA
ATOM      5  C   UNL     1       1.530   2.984  18.803  0.00  0.00    +0.000 A 
ATOM      6  C   UNL     1       0.379   2.068  18.964  0.00  0.00    +0.000 C 
ATOM      7  C   UNL     1       2.265   3.820  19.637  0.00  0.00    +0.000 A 
ATOM      8  C   UNL     1       3.324   4.346  18.817  0.00  0.00    +0.000 A 
ATOM      9  C   UNL     1       4.424   5.208  18.997  0.00  0.00    +0.000 A 
ATOM     10  C   UNL     1       5.290   5.464  17.913  0.00  0.00    +0.000 A 
ENDROOT
BRANCH   1  12
ATOM     11  C   UNL     1       5.891   4.268  14.512  0.00  0.00    +0.000 C 
ATOM     12  O   UNL     1       5.990   5.092  15.671  0.00  0.00    +0.000 OA
ENDBRANCH   1  12
BRANCH   7  13
ATOM     13  C   UNL     1       2.079   4.075  21.056  0.00  0.00    +0.000 C 
ATOM     14  O   UNL     1       1.926   3.184  21.879  0.00  0.00    +0.000 OA
BRANCH  13  15
ATOM     15  O   UNL     1       2.112   5.378  21.433  0.00  0.00    +0.000 OA
ATOM     16  H   UNL     1       2.987   5.789  21.331  0.00  0.00    +0.000 HD
ENDBRANCH  13  15
ENDBRANCH   7  13
BRANCH  10  17
ATOM     17  O   UNL     1       6.365   6.261  18.238  0.00  0.00    +0.000 OA
BRANCH  17  18
ATOM     18  S   UNL     1       7.705   5.693  18.974  0.00  0.00    +0.000 S 
ATOM     19  O   UNL     1       7.429   5.459  20.375  0.00  0.00    +0.000 OA
ATOM     20  O   UNL     1       8.368   4.718  18.133  0.00  0.00    +0.000 OA
BRANCH  18  21
ATOM     21  O   UNL     1       8.650   6.998  18.995  0.00  0.00    +0.000 OA
ATOM     22  H   UNL     1       8.164   7.687  19.497  0.00  0.00    +0.000 HD
ENDBRANCH  18  21
ENDBRANCH  17  18
ENDBRANCH  10  17
TORSDOF 6
ENDMDL
