MODEL 1
REMARK VINA RESULT:      -7.1      0.000      0.000
REMARK  Name = 
REMARK  8 active torsions:
REMARK  status: ('A' for Active; 'I' for Inactive)
REMARK    1  A    between atoms: C_1  and  C_2
REMARK    2  A    between atoms: C_2  and  C_3
REMARK    3  A    between atoms: C_2  and  C_4
REMARK    4  A    between atoms: C_4  and  C_5
REMARK    5  A    between atoms: C_9  and  C_10
REMARK    6  A    between atoms: C_10  and  C_11
REMARK    7  A    between atoms: C_10  and  C_12
REMARK    8  A    between atoms: C_12  and  O_14
REMARK                            x       y       z     vdW  Elec       q    Type
REMARK                         _______ _______ _______ _____ _____    ______ ____
ROOT
ATOM      1  C   UNL     1       2.565   4.428  17.755  0.00  0.00    +0.000 A 
ATOM      2  C   UNL     1       2.623   5.774  18.148  0.00  0.00    +0.000 A 
ATOM      3  C   UNL     1       3.690   6.584  17.751  0.00  0.00    +0.000 A 
ATOM      4  C   UNL     1       4.731   6.054  16.988  0.00  0.00    +0.000 A 
ATOM      5  C   UNL     1       4.702   4.708  16.583  0.00  0.00    +0.000 A 
ATOM      6  C   UNL     1       3.592   3.923  16.942  0.00  0.00    +0.000 A 
ENDROOT
BRANCH   5   7
ATOM      7  C   UNL     1       5.909   4.100  15.881  0.00  0.00    +0.000 C 
ATOM      8  C   UNL     1       5.670   4.094  14.367  0.00  0.00    +0.000 C 
BRANCH   7   9
ATOM      9  C   UNL     1       7.238   4.781  16.198  0.00  0.00    +0.000 C 
ATOM     10  O   UNL     1       7.661   5.796  15.645  0.00  0.00    +0.000 OA
BRANCH   9  11
ATOM     11  O   UNL     1       7.966   4.137  17.141  0.00  0.00    +0.000 OA
ATOM     12  H   UNL     1       8.798   3.759  16.797  0.00  0.00    +0.000 HD
ENDBRANCH   9  11
ENDBRANCH   7   9
ENDBRANCH   5   7
BRANCH   1  13
ATOM     13  C   UNL     1       1.429   3.524  18.207  0.00  0.00    +0.000 C 
BRANCH  13  15
ATOM     14  C   UNL     1       3.087   2.547  19.882  0.00  0.00    +0.000 C 
ATOM     15  C   UNL     1       1.621   2.891  19.610  0.00  0.00    +0.000 C 
ATOM     16  C   UNL     1       1.116   3.819  20.723  0.00  0.00    +0.000 C 
ENDBRANCH  13  15
ENDBRANCH   1  13
TORSDOF 5
ENDMDL
MODEL 2
REMARK VINA RESULT:      -7.1      0.958      1.269
REMARK  Name = 
REMARK  8 active torsions:
REMARK  status: ('A' for Active; 'I' for Inactive)
REMARK    1  A    between atoms: C_1  and  C_2
REMARK    2  A    between atoms: C_2  and  C_3
REMARK    3  A    between atoms: C_2  and  C_4
REMARK    4  A    between atoms: C_4  and  C_5
REMARK    5  A    between atoms: C_9  and  C_10
REMARK    6  A    between atoms: C_10  and  C_11
REMARK    7  A    between atoms: C_10  and  C_12
REMARK    8  A    between atoms: C_12  and  O_14
REMARK                            x       y       z     vdW  Elec       q    Type
REMARK                         _______ _______ _______ _____ _____    ______ ____
ROOT
ATOM      1  C   UNL     1       2.486   5.354  18.446  0.00  0.00    +0.000 A 
ATOM      2  C   UNL     1       2.627   6.748  18.380  0.00  0.00    +0.000 A 
ATOM      3  C   UNL     1       3.631   7.324  17.597  0.00  0.00    +0.000 A 
ATOM      4  C   UNL     1       4.529   6.517  16.898  0.00  0.00    +0.000 A 
ATOM      5  C   UNL     1       4.414   5.117  16.948  0.00  0.00    +0.000 A 
ATOM      6  C   UNL     1       3.362   4.556  17.694  0.00  0.00    +0.000 A 
ENDROOT
BRANCH   5   7
ATOM      7  C   UNL     1       5.485   4.244  16.306  0.00  0.00    +0.000 C 
ATOM      8  C   UNL     1       5.582   4.569  14.812  0.00  0.00    +0.000 C 
BRANCH   7   9
ATOM      9  C   UNL     1       6.862   4.348  16.955  0.00  0.00    +0.000 C 
ATOM     10  O   UNL     1       7.914   4.552  16.351  0.00  0.00    +0.000 OA
BRANCH   9  11
ATOM     11  O   UNL     1       6.847   4.150  18.295  0.00  0.00    +0.000 OA
ATOM     12  H   UNL     1       5.949   4.033  18.660  0.00  0.00    +0.000 HD
ENDBRANCH   9  11
ENDBRANCH   7   9
ENDBRANCH   5   7
BRANCH   1  13
ATOM     13  C   UNL     1       1.422   4.711  19.320  0.00  0.00    +0.000 C 
BRANCH  13  15
ATOM     14  C   UNL     1       1.464   2.937  21.154  0.00  0.00    +0.000 C 
ATOM     15  C   UNL     1       1.677   3.220  19.664  0.00  0.00    +0.000 C 
ATOM     16  C   UNL     1       0.771   2.288  18.849  0.00  0.00    +0.000 C 
ENDBRANCH  13  15
ENDBRANCH   1  13
TORSDOF 5
ENDMDL
MODEL 3
REMARK VINA RESULT:      -6.7      0.818      1.227
REMARK  Name = 
REMARK  8 active torsions:
REMARK  status: ('A' for Active; 'I' for Inactive)
REMARK    1  A    between atoms: C_1  and  C_2
REMARK    2  A    between atoms: C_2  and  C_3
REMARK    3  A    between atoms: C_2  and  C_4
REMARK    4  A    between atoms: C_4  and  C_5
REMARK    5  A    between atoms: C_9  and  C_10
REMARK    6  A    between atoms: C_10  and  C_11
REMARK    7  A    between atoms: C_10  and  C_12
REMARK    8  A    between atoms: C_12  and  O_14
REMARK                            x       y       z     vdW  Elec       q    Type
REMARK                         _______ _______ _______ _____ _____    ______ ____
ROOT
ATOM      1  C   UNL     1       2.462   4.880  18.098  0.00  0.00    +0.000 A 
ATOM      2  C   UNL     1       2.529   6.274  18.247  0.00  0.00    +0.000 A 
ATOM      3  C   UNL     1       3.570   7.001  17.663  0.00  0.00    +0.000 A 
ATOM      4  C   UNL     1       4.577   6.345  16.955  0.00  0.00    +0.000 A 
ATOM      5  C   UNL     1       4.538   4.949  16.792  0.00  0.00    +0.000 A 
ATOM      6  C   UNL     1       3.452   4.240  17.337  0.00  0.00    +0.000 A 
ENDROOT
BRANCH   5   7
ATOM      7  C   UNL     1       5.714   4.227  16.148  0.00  0.00    +0.000 C 
ATOM      8  C   UNL     1       5.573   4.278  14.624  0.00  0.00    +0.000 C 
BRANCH   7   9
ATOM      9  C   UNL     1       7.086   4.750  16.565  0.00  0.00    +0.000 C 
ATOM     10  O   UNL     1       7.651   4.485  17.625  0.00  0.00    +0.000 OA
BRANCH   9  11
ATOM     11  O   UNL     1       7.640   5.597  15.665  0.00  0.00    +0.000 OA
ATOM     12  H   UNL     1       8.211   5.149  15.012  0.00  0.00    +0.000 HD
ENDBRANCH   9  11
ENDBRANCH   7   9
ENDBRANCH   5   7
BRANCH   1  13
ATOM     13  C   UNL     1       1.356   4.070  18.755  0.00  0.00    +0.000 C 
BRANCH  13  15
ATOM     14  C   UNL     1       1.147   2.755  20.931  0.00  0.00    +0.000 C 
ATOM     15  C   UNL     1       1.333   4.139  20.305  0.00  0.00    +0.000 C 
ATOM     16  C   UNL     1       2.619   4.766  20.863  0.00  0.00    +0.000 C 
ENDBRANCH  13  15
ENDBRANCH   1  13
TORSDOF 5
ENDMDL
MODEL 4
REMARK VINA RESULT:      -6.6      1.306      1.899
REMARK  Name = 
REMARK  8 active torsions:
REMARK  status: ('A' for Active; 'I' for Inactive)
REMARK    1  A    between atoms: C_1  and  C_2
REMARK    2  A    between atoms: C_2  and  C_3
REMARK    3  A    between atoms: C_2  and  C_4
REMARK    4  A    between atoms: C_4  and  C_5
REMARK    5  A    between atoms: C_9  and  C_10
REMARK    6  A    between atoms: C_10  and  C_11
REMARK    7  A    between atoms: C_10  and  C_12
REMARK    8  A    between atoms: C_12  and  O_14
REMARK                            x       y       z     vdW  Elec       q    Type
REMARK                         _______ _______ _______ _____ _____    ______ ____
ROOT
ATOM      1  C   UNL     1       3.602   4.477  18.699  0.00  0.00    +0.000 A 
ATOM      2  C   UNL     1       2.871   5.667  18.570  0.00  0.00    +0.000 A 
ATOM      3  C   UNL     1       3.356   6.715  17.782  0.00  0.00    +0.000 A 
ATOM      4  C   UNL     1       4.591   6.603  17.143  0.00  0.00    +0.000 A 
ATOM      5  C   UNL     1       5.346   5.424  17.258  0.00  0.00    +0.000 A 
ATOM      6  C   UNL     1       4.816   4.357  18.006  0.00  0.00    +0.000 A 
ENDROOT
BRANCH   5   7
ATOM      7  C   UNL     1       6.755   5.365  16.682  0.00  0.00    +0.000 C 
ATOM      8  C   UNL     1       7.669   4.598  17.643  0.00  0.00    +0.000 C 
BRANCH   7   9
ATOM      9  C   UNL     1       6.845   4.764  15.282  0.00  0.00    +0.000 C 
ATOM     10  O   UNL     1       6.275   3.736  14.917  0.00  0.00    +0.000 OA
BRANCH   9  11
ATOM     11  O   UNL     1       7.665   5.448  14.448  0.00  0.00    +0.000 OA
ATOM     12  H   UNL     1       7.771   6.387  14.695  0.00  0.00    +0.000 HD
ENDBRANCH   9  11
ENDBRANCH   7   9
ENDBRANCH   5   7
BRANCH   1  13
ATOM     13  C   UNL     1       3.106   3.341  19.579  0.00  0.00    +0.000 C 
BRANCH  13  15
ATOM     14  C   UNL     1       0.813   2.495  18.846  0.00  0.00    +0.000 C 
ATOM     15  C   UNL     1       1.580   3.351  19.857  0.00  0.00    +0.000 C 
ATOM     16  C   UNL     1       1.259   2.853  21.272  0.00  0.00    +0.000 C 
ENDBRANCH  13  15
ENDBRANCH   1  13
TORSDOF 5
ENDMDL
MODEL 5
REMARK VINA RESULT:      -6.6      1.526      2.235
REMARK  Name = 
REMARK  8 active torsions:
REMARK  status: ('A' for Active; 'I' for Inactive)
REMARK    1  A    between atoms: C_1  and  C_2
REMARK    2  A    between atoms: C_2  and  C_3
REMARK    3  A    between atoms: C_2  and  C_4
REMARK    4  A    between atoms: C_4  and  C_5
REMARK    5  A    between atoms: C_9  and  C_10
REMARK    6  A    between atoms: C_10  and  C_11
REMARK    7  A    between atoms: C_10  and  C_12
REMARK    8  A    between atoms: C_12  and  O_14
REMARK                            x       y       z     vdW  Elec       q    Type
REMARK                         _______ _______ _______ _____ _____    ______ ____
ROOT
ATOM      1  C   UNL     1       3.071   5.027  17.729  0.00  0.00    +0.000 A 
ATOM      2  C   UNL     1       2.486   6.285  17.937  0.00  0.00    +0.000 A 
ATOM      3  C   UNL     1       3.246   7.451  17.810  0.00  0.00    +0.000 A 
ATOM      4  C   UNL     1       4.606   7.377  17.509  0.00  0.00    +0.000 A 
ATOM      5  C   UNL     1       5.220   6.130  17.299  0.00  0.00    +0.000 A 
ATOM      6  C   UNL     1       4.428   4.970  17.373  0.00  0.00    +0.000 A 
ENDROOT
BRANCH   5   7
ATOM      7  C   UNL     1       6.731   6.048  17.119  0.00  0.00    +0.000 C 
ATOM      8  C   UNL     1       7.356   7.414  17.418  0.00  0.00    +0.000 C 
BRANCH   7   9
ATOM      9  C   UNL     1       7.411   4.966  17.952  0.00  0.00    +0.000 C 
ATOM     10  O   UNL     1       7.378   4.895  19.180  0.00  0.00    +0.000 OA
BRANCH   9  11
ATOM     11  O   UNL     1       8.120   4.078  17.215  0.00  0.00    +0.000 OA
ATOM     12  H   UNL     1       8.636   4.493  16.498  0.00  0.00    +0.000 HD
ENDBRANCH   9  11
ENDBRANCH   7   9
ENDBRANCH   5   7
BRANCH   1  13
ATOM     13  C   UNL     1       2.268   3.748  17.898  0.00  0.00    +0.000 C 
BRANCH  13  15
ATOM     14  C   UNL     1       1.653   2.381  19.962  0.00  0.00    +0.000 C 
ATOM     15  C   UNL     1       2.780   2.802  19.015  0.00  0.00    +0.000 C 
ATOM     16  C   UNL     1       3.434   1.541  18.434  0.00  0.00    +0.000 C 
ENDBRANCH  13  15
ENDBRANCH   1  13
TORSDOF 5
ENDMDL
MODEL 6
REMARK VINA RESULT:      -6.6      3.320      5.938
REMARK  Name = 
REMARK  8 active torsions:
REMARK  status: ('A' for Active; 'I' for Inactive)
REMARK    1  A    between atoms: C_1  and  C_2
REMARK    2  A    between atoms: C_2  and  C_3
REMARK    3  A    between atoms: C_2  and  C_4
REMARK    4  A    between atoms: C_4  and  C_5
REMARK    5  A    between atoms: C_9  and  C_10
REMARK    6  A    between atoms: C_10  and  C_11
REMARK    7  A    between atoms: C_10  and  C_12
REMARK    8  A    between atoms: C_12  and  O_14
REMARK                            x       y       z     vdW  Elec       q    Type
REMARK                         _______ _______ _______ _____ _____    ______ ____
ROOT
ATOM      1  C   UNL     1       4.786   5.560  17.727  0.00  0.00    +0.000 A 
ATOM      2  C   UNL     1       4.800   4.329  17.054  0.00  0.00    +0.000 A 
ATOM      3  C   UNL     1       4.054   3.249  17.534  0.00  0.00    +0.000 A 
ATOM      4  C   UNL     1       3.312   3.372  18.710  0.00  0.00    +0.000 A 
ATOM      5  C   UNL     1       3.282   4.592  19.407  0.00  0.00    +0.000 A 
ATOM      6  C   UNL     1       3.992   5.685  18.878  0.00  0.00    +0.000 A 
ENDROOT
BRANCH   5   7
ATOM      7  C   UNL     1       2.594   4.674  20.763  0.00  0.00    +0.000 C 
ATOM      8  C   UNL     1       1.462   5.706  20.700  0.00  0.00    +0.000 C 
BRANCH   7   9
ATOM      9  C   UNL     1       2.061   3.343  21.286  0.00  0.00    +0.000 C 
ATOM     10  O   UNL     1       2.705   2.540  21.959  0.00  0.00    +0.000 OA
BRANCH   9  11
ATOM     11  O   UNL     1       0.788   3.080  20.904  0.00  0.00    +0.000 OA
ATOM     12  H   UNL     1       0.725   2.671  20.020  0.00  0.00    +0.000 HD
ENDBRANCH   9  11
ENDBRANCH   7   9
ENDBRANCH   5   7
BRANCH   1  13
ATOM     13  C   UNL     1       5.619   6.734  17.239  0.00  0.00    +0.000 C 
BRANCH  13  15
ATOM     14  C   UNL     1       7.812   7.992  17.586  0.00  0.00    +0.000 C 
ATOM     15  C   UNL     1       7.138   6.618  17.528  0.00  0.00    +0.000 C 
ATOM     16  C   UNL     1       7.408   5.879  18.846  0.00  0.00    +0.000 C 
ENDBRANCH  13  15
ENDBRANCH   1  13
TORSDOF 5
ENDMDL
MODEL 7
REMARK VINA RESULT:      -6.6      2.959      5.562
REMARK  Name = 
REMARK  8 active torsions:
REMARK  status: ('A' for Active; 'I' for Inactive)
REMARK    1  A    between atoms: C_1  and  C_2
REMARK    2  A    between atoms: C_2  and  C_3
REMARK    3  A    between atoms: C_2  and  C_4
REMARK    4  A    between atoms: C_4  and  C_5
REMARK    5  A    between atoms: C_9  and  C_10
REMARK    6  A    between atoms: C_10  and  C_11
REMARK    7  A    between atoms: C_10  and  C_12
REMARK    8  A    between atoms: C_12  and  O_14
REMARK                            x       y       z     vdW  Elec       q    Type
REMARK                         _______ _______ _______ _____ _____    ______ ____
ROOT
ATOM      1  C   UNL     1       3.909   4.683  17.456  0.00  0.00    +0.000 A 
ATOM      2  C   UNL     1       3.829   6.074  17.623  0.00  0.00    +0.000 A 
ATOM      3  C   UNL     1       3.044   6.622  18.642  0.00  0.00    +0.000 A 
ATOM      4  C   UNL     1       2.301   5.793  19.483  0.00  0.00    +0.000 A 
ATOM      5  C   UNL     1       2.359   4.396  19.336  0.00  0.00    +0.000 A 
ATOM      6  C   UNL     1       3.199   3.860  18.344  0.00  0.00    +0.000 A 
ENDROOT
BRANCH   5   7
ATOM      7  C   UNL     1       1.434   3.508  20.157  0.00  0.00    +0.000 C 
ATOM      8  C   UNL     1       0.759   2.485  19.238  0.00  0.00    +0.000 C 
BRANCH   7   9
ATOM      9  C   UNL     1       2.110   2.796  21.325  0.00  0.00    +0.000 C 
ATOM     10  O   UNL     1       3.306   2.513  21.384  0.00  0.00    +0.000 OA
BRANCH   9  11
ATOM     11  O   UNL     1       1.255   2.444  22.316  0.00  0.00    +0.000 OA
ATOM     12  H   UNL     1       0.364   2.831  22.213  0.00  0.00    +0.000 HD
ENDBRANCH   9  11
ENDBRANCH   7   9
ENDBRANCH   5   7
BRANCH   1  13
ATOM     13  C   UNL     1       4.730   4.072  16.332  0.00  0.00    +0.000 C 
BRANCH  13  15
ATOM     14  C   UNL     1       7.171   4.576  16.876  0.00  0.00    +0.000 C 
ATOM     15  C   UNL     1       5.996   4.876  15.940  0.00  0.00    +0.000 C 
ATOM     16  C   UNL     1       6.427   4.585  14.496  0.00  0.00    +0.000 C 
ENDBRANCH  13  15
ENDBRANCH   1  13
TORSDOF 5
ENDMDL
MODEL 8
REMARK VINA RESULT:      -6.5      1.603      1.961
REMARK  Name = 
REMARK  8 active torsions:
REMARK  status: ('A' for Active; 'I' for Inactive)
REMARK    1  A    between atoms: C_1  and  C_2
REMARK    2  A    between atoms: C_2  and  C_3
REMARK    3  A    between atoms: C_2  and  C_4
REMARK    4  A    between atoms: C_4  and  C_5
REMARK    5  A    between atoms: C_9  and  C_10
REMARK    6  A    between atoms: C_10  and  C_11
REMARK    7  A    between atoms: C_10  and  C_12
REMARK    8  A    between atoms: C_12  and  O_14
REMARK                            x       y       z     vdW  Elec       q    Type
REMARK                         _______ _______ _______ _____ _____    ______ ____
ROOT
ATOM      1  C   UNL     1       2.893   5.673  19.414  0.00  0.00    +0.000 A 
ATOM      2  C   UNL     1       2.454   6.859  18.807  0.00  0.00    +0.000 A 
ATOM      3  C   UNL     1       3.214   7.466  17.803  0.00  0.00    +0.000 A 
ATOM      4  C   UNL     1       4.437   6.917  17.416  0.00  0.00    +0.000 A 
ATOM      5  C   UNL     1       4.903   5.731  18.008  0.00  0.00    +0.000 A 
ATOM      6  C   UNL     1       4.098   5.102  18.976  0.00  0.00    +0.000 A 
ENDROOT
BRANCH   5   7
ATOM      7  C   UNL     1       6.303   5.221  17.689  0.00  0.00    +0.000 C 
ATOM      8  C   UNL     1       6.257   4.362  16.421  0.00  0.00    +0.000 C 
BRANCH   7   9
ATOM      9  C   UNL     1       7.358   6.314  17.543  0.00  0.00    +0.000 C 
ATOM     10  O   UNL     1       7.668   6.861  16.485  0.00  0.00    +0.000 OA
BRANCH   9  11
ATOM     11  O   UNL     1       7.985   6.621  18.704  0.00  0.00    +0.000 OA
ATOM     12  H   UNL     1       7.422   7.115  19.330  0.00  0.00    +0.000 HD
ENDBRANCH   9  11
ENDBRANCH   7   9
ENDBRANCH   5   7
BRANCH   1  13
ATOM     13  C   UNL     1       2.096   5.018  20.531  0.00  0.00    +0.000 C 
BRANCH  13  15
ATOM     14  C   UNL     1       1.770   2.822  21.788  0.00  0.00    +0.000 C 
ATOM     15  C   UNL     1       1.963   3.477  20.418  0.00  0.00    +0.000 C 
ATOM     16  C   UNL     1       0.793   3.076  19.508  0.00  0.00    +0.000 C 
ENDBRANCH  13  15
ENDBRANCH   1  13
TORSDOF 5
ENDMDL
MODEL 9
REMARK VINA RESULT:      -6.5      1.163      1.911
REMARK  Name = 
REMARK  8 active torsions:
REMARK  status: ('A' for Active; 'I' for Inactive)
REMARK    1  A    between atoms: C_1  and  C_2
REMARK    2  A    between atoms: C_2  and  C_3
REMARK    3  A    between atoms: C_2  and  C_4
REMARK    4  A    between atoms: C_4  and  C_5
REMARK    5  A    between atoms: C_9  and  C_10
REMARK    6  A    between atoms: C_10  and  C_11
REMARK    7  A    between atoms: C_10  and  C_12
REMARK    8  A    between atoms: C_12  and  O_14
REMARK                            x       y       z     vdW  Elec       q    Type
REMARK                         _______ _______ _______ _____ _____    ______ ____
ROOT
ATOM      1  C   UNL     1       3.116   4.245  17.536  0.00  0.00    +0.000 A 
ATOM      2  C   UNL     1       2.293   5.255  18.058  0.00  0.00    +0.000 A 
ATOM      3  C   UNL     1       2.726   6.583  18.077  0.00  0.00    +0.000 A 
ATOM      4  C   UNL     1       3.997   6.917  17.609  0.00  0.00    +0.000 A 
ATOM      5  C   UNL     1       4.844   5.926  17.084  0.00  0.00    +0.000 A 
ATOM      6  C   UNL     1       4.370   4.603  17.019  0.00  0.00    +0.000 A 
ENDROOT
BRANCH   5   7
ATOM      7  C   UNL     1       6.281   6.272  16.715  0.00  0.00    +0.000 C 
ATOM      8  C   UNL     1       7.093   6.512  17.991  0.00  0.00    +0.000 C 
BRANCH   7   9
ATOM      9  C   UNL     1       6.978   5.236  15.837  0.00  0.00    +0.000 C 
ATOM     10  O   UNL     1       7.783   4.397  16.239  0.00  0.00    +0.000 OA
BRANCH   9  11
ATOM     11  O   UNL     1       6.665   5.339  14.523  0.00  0.00    +0.000 OA
ATOM     12  H   UNL     1       6.498   6.257  14.235  0.00  0.00    +0.000 HD
ENDBRANCH   9  11
ENDBRANCH   7   9
ENDBRANCH   5   7
BRANCH   1  13
ATOM     13  C   UNL     1       2.675   2.790  17.540  0.00  0.00    +0.000 C 
BRANCH  13  15
ATOM     14  C   UNL     1       4.074   2.479  19.650  0.00  0.00    +0.000 C 
ATOM     15  C   UNL     1       2.794   2.078  18.912  0.00  0.00    +0.000 C 
ATOM     16  C   UNL     1       1.588   2.380  19.813  0.00  0.00    +0.000 C 
ENDBRANCH  13  15
ENDBRANCH   1  13
TORSDOF 5
ENDMDL
