MODEL 1
REMARK VINA RESULT:      -7.9      0.000      0.000
REMARK  Name = 
REMARK  9 active torsions:
REMARK  status: ('A' for Active; 'I' for Inactive)
REMARK    1  A    between atoms: C_1  and  C_2
REMARK    2  A    between atoms: C_5  and  C_6
REMARK    3  A    between atoms: N_8  and  C_9
REMARK    4  A    between atoms: C_9  and  C_10
REMARK    5  A    between atoms: N_12  and  C_13
REMARK    6  A    between atoms: C_13  and  C_14
REMARK    7  A    between atoms: C_14  and  C_15
REMARK    8  A    between atoms: C_15  and  C_16
REMARK    9  A    between atoms: C_15  and  C_17
REMARK                            x       y       z     vdW  Elec       q    Type
REMARK                         _______ _______ _______ _____ _____    ______ ____
ROOT
ATOM      1  C   UNL     1       2.471   5.826  19.447  0.00  0.00    +0.000 C 
ATOM      2  N   UNL     1       3.011   5.194  18.446  0.00  0.00    +0.000 NA
ATOM      3  N   UNL     1       3.280   3.844  18.577  0.00  0.00    +0.000 N 
ATOM      4  C   UNL     1       2.643   3.022  19.496  0.00  0.00    +0.000 C 
ATOM      5  O   UNL     1       2.657   1.792  19.421  0.00  0.00    +0.000 OA
ATOM      6  C   UNL     1       1.832   3.703  20.563  0.00  0.00    +0.000 C 
ATOM      7  C   UNL     1       2.204   5.151  20.768  0.00  0.00    +0.000 C 
ENDROOT
BRANCH   1  12
ATOM      8  C   UNL     1       0.820  11.363  18.822  0.00  0.00    +0.000 C 
ATOM      9  C   UNL     1       1.307   9.953  18.988  0.00  0.00    +0.000 A 
ATOM     10  C   UNL     1       1.920   9.263  17.935  0.00  0.00    +0.000 A 
ATOM     11  C   UNL     1       2.327   7.934  18.097  0.00  0.00    +0.000 A 
ATOM     12  C   UNL     1       2.120   7.276  19.316  0.00  0.00    +0.000 A 
ATOM     13  C   UNL     1       1.544   7.981  20.381  0.00  0.00    +0.000 A 
ATOM     14  C   UNL     1       1.131   9.301  20.217  0.00  0.00    +0.000 A 
ENDBRANCH   1  12
BRANCH   3  15
ATOM     15  C   UNL     1       3.977   3.205  17.460  0.00  0.00    +0.000 C 
BRANCH  15  16
ATOM     16  C   UNL     1       5.312   3.879  17.098  0.00  0.00    +0.000 C 
ATOM     17  O   UNL     1       5.652   4.145  15.947  0.00  0.00    +0.000 OA
ATOM     18  N   UNL     1       6.164   4.066  18.187  0.00  0.00    +0.000 N 
ATOM     19  H   UNL     1       5.738   4.147  19.102  0.00  0.00    +0.000 HD
BRANCH  18  20
ATOM     20  C   UNL     1       7.484   4.636  17.991  0.00  0.00    +0.000 C 
BRANCH  20  21
ATOM     21  C   UNL     1       7.623   6.082  18.483  0.00  0.00    +0.000 C 
BRANCH  21  22
ATOM     22  C   UNL     1       7.390   7.180  17.426  0.00  0.00    +0.000 C 
ATOM     23  C   UNL     1       5.907   7.434  17.158  0.00  0.00    +0.000 C 
ATOM     24  C   UNL     1       8.058   8.486  17.873  0.00  0.00    +0.000 C 
ENDBRANCH  21  22
ENDBRANCH  20  21
ENDBRANCH  18  20
ENDBRANCH  15  16
ENDBRANCH   3  15
TORSDOF 6
ENDMDL
MODEL 2
REMARK VINA RESULT:      -7.4      1.660      4.557
REMARK  Name = 
REMARK  9 active torsions:
REMARK  status: ('A' for Active; 'I' for Inactive)
REMARK    1  A    between atoms: C_1  and  C_2
REMARK    2  A    between atoms: C_5  and  C_6
REMARK    3  A    between atoms: N_8  and  C_9
REMARK    4  A    between atoms: C_9  and  C_10
REMARK    5  A    between atoms: N_12  and  C_13
REMARK    6  A    between atoms: C_13  and  C_14
REMARK    7  A    between atoms: C_14  and  C_15
REMARK    8  A    between atoms: C_15  and  C_16
REMARK    9  A    between atoms: C_15  and  C_17
REMARK                            x       y       z     vdW  Elec       q    Type
REMARK                         _______ _______ _______ _____ _____    ______ ____
ROOT
ATOM      1  C   UNL     1       3.696   6.821  17.991  0.00  0.00    +0.000 C 
ATOM      2  N   UNL     1       4.218   5.925  18.776  0.00  0.00    +0.000 NA
ATOM      3  N   UNL     1       5.193   5.084  18.273  0.00  0.00    +0.000 N 
ATOM      4  C   UNL     1       5.962   5.386  17.158  0.00  0.00    +0.000 C 
ATOM      5  O   UNL     1       7.011   4.797  16.885  0.00  0.00    +0.000 OA
ATOM      6  C   UNL     1       5.513   6.551  16.321  0.00  0.00    +0.000 C 
ATOM      7  C   UNL     1       4.065   6.919  16.532  0.00  0.00    +0.000 C 
ENDROOT
BRANCH   1  12
ATOM      8  C   UNL     1      -0.494  10.342  19.945  0.00  0.00    +0.000 C 
ATOM      9  C   UNL     1       0.629   9.481  19.445  0.00  0.00    +0.000 A 
ATOM     10  C   UNL     1       1.110   9.595  18.135  0.00  0.00    +0.000 A 
ATOM     11  C   UNL     1       2.128   8.752  17.676  0.00  0.00    +0.000 A 
ATOM     12  C   UNL     1       2.676   7.780  18.522  0.00  0.00    +0.000 A 
ATOM     13  C   UNL     1       2.222   7.695  19.845  0.00  0.00    +0.000 A 
ATOM     14  C   UNL     1       1.202   8.529  20.300  0.00  0.00    +0.000 A 
ENDBRANCH   1  12
BRANCH   3  15
ATOM     15  C   UNL     1       5.674   4.031  19.167  0.00  0.00    +0.000 C 
BRANCH  15  16
ATOM     16  C   UNL     1       4.605   2.981  19.517  0.00  0.00    +0.000 C 
ATOM     17  O   UNL     1       4.742   2.136  20.399  0.00  0.00    +0.000 OA
ATOM     18  N   UNL     1       3.499   2.998  18.668  0.00  0.00    +0.000 N 
ATOM     19  H   UNL     1       3.280   3.871  18.206  0.00  0.00    +0.000 HD
BRANCH  18  20
ATOM     20  C   UNL     1       2.435   2.024  18.837  0.00  0.00    +0.000 C 
BRANCH  20  21
ATOM     21  C   UNL     1       1.048   2.642  19.055  0.00  0.00    +0.000 C 
BRANCH  21  22
ATOM     22  C   UNL     1       0.779   3.219  20.459  0.00  0.00    +0.000 C 
ATOM     23  C   UNL     1       1.518   2.458  21.560  0.00  0.00    +0.000 C 
ATOM     24  C   UNL     1       1.183   4.697  20.504  0.00  0.00    +0.000 C 
ENDBRANCH  21  22
ENDBRANCH  20  21
ENDBRANCH  18  20
ENDBRANCH  15  16
ENDBRANCH   3  15
TORSDOF 6
ENDMDL
MODEL 3
REMARK VINA RESULT:      -7.4      1.957      2.958
REMARK  Name = 
REMARK  9 active torsions:
REMARK  status: ('A' for Active; 'I' for Inactive)
REMARK    1  A    between atoms: C_1  and  C_2
REMARK    2  A    between atoms: C_5  and  C_6
REMARK    3  A    between atoms: N_8  and  C_9
REMARK    4  A    between atoms: C_9  and  C_10
REMARK    5  A    between atoms: N_12  and  C_13
REMARK    6  A    between atoms: C_13  and  C_14
REMARK    7  A    between atoms: C_14  and  C_15
REMARK    8  A    between atoms: C_15  and  C_16
REMARK    9  A    between atoms: C_15  and  C_17
REMARK                            x       y       z     vdW  Elec       q    Type
REMARK                         _______ _______ _______ _____ _____    ______ ____
ROOT
ATOM      1  C   UNL     1       2.924   6.678  18.458  0.00  0.00    +0.000 C 
ATOM      2  N   UNL     1       3.903   6.868  17.622  0.00  0.00    +0.000 NA
ATOM      3  N   UNL     1       4.592   5.769  17.141  0.00  0.00    +0.000 N 
ATOM      4  C   UNL     1       4.068   4.484  17.128  0.00  0.00    +0.000 C 
ATOM      5  O   UNL     1       4.541   3.572  16.445  0.00  0.00    +0.000 OA
ATOM      6  C   UNL     1       2.811   4.257  17.921  0.00  0.00    +0.000 C 
ATOM      7  C   UNL     1       2.570   5.307  18.977  0.00  0.00    +0.000 C 
ENDROOT
BRANCH   1  12
ATOM      8  C   UNL     1      -0.437  11.049  20.295  0.00  0.00    +0.000 C 
ATOM      9  C   UNL     1       0.481   9.959  19.822  0.00  0.00    +0.000 A 
ATOM     10  C   UNL     1       0.936   9.910  18.499  0.00  0.00    +0.000 A 
ATOM     11  C   UNL     1       1.756   8.862  18.067  0.00  0.00    +0.000 A 
ATOM     12  C   UNL     1       2.128   7.844  18.955  0.00  0.00    +0.000 A 
ATOM     13  C   UNL     1       1.705   7.917  20.289  0.00  0.00    +0.000 A 
ATOM     14  C   UNL     1       0.883   8.957  20.717  0.00  0.00    +0.000 A 
ENDBRANCH   1  12
BRANCH   3  15
ATOM     15  C   UNL     1       5.745   6.044  16.284  0.00  0.00    +0.000 C 
BRANCH  15  16
ATOM     16  C   UNL     1       7.020   6.414  17.063  0.00  0.00    +0.000 C 
ATOM     17  O   UNL     1       7.783   5.585  17.555  0.00  0.00    +0.000 OA
ATOM     18  N   UNL     1       7.181   7.785  17.261  0.00  0.00    +0.000 N 
ATOM     19  H   UNL     1       6.748   8.407  16.590  0.00  0.00    +0.000 HD
BRANCH  18  20
ATOM     20  C   UNL     1       8.307   8.282  18.031  0.00  0.00    +0.000 C 
BRANCH  20  21
ATOM     21  C   UNL     1       8.360   9.810  18.150  0.00  0.00    +0.000 C 
BRANCH  21  22
ATOM     22  C   UNL     1       9.654  10.396  18.748  0.00  0.00    +0.000 C 
ATOM     23  C   UNL     1      10.232  11.532  17.904  0.00  0.00    +0.000 C 
ATOM     24  C   UNL     1       9.392  10.903  20.171  0.00  0.00    +0.000 C 
ENDBRANCH  21  22
ENDBRANCH  20  21
ENDBRANCH  18  20
ENDBRANCH  15  16
ENDBRANCH   3  15
TORSDOF 6
ENDMDL
MODEL 4
REMARK VINA RESULT:      -7.3      2.059      2.930
REMARK  Name = 
REMARK  9 active torsions:
REMARK  status: ('A' for Active; 'I' for Inactive)
REMARK    1  A    between atoms: C_1  and  C_2
REMARK    2  A    between atoms: C_5  and  C_6
REMARK    3  A    between atoms: N_8  and  C_9
REMARK    4  A    between atoms: C_9  and  C_10
REMARK    5  A    between atoms: N_12  and  C_13
REMARK    6  A    between atoms: C_13  and  C_14
REMARK    7  A    between atoms: C_14  and  C_15
REMARK    8  A    between atoms: C_15  and  C_16
REMARK    9  A    between atoms: C_15  and  C_17
REMARK                            x       y       z     vdW  Elec       q    Type
REMARK                         _______ _______ _______ _____ _____    ______ ____
ROOT
ATOM      1  C   UNL     1       2.946   6.101  19.563  0.00  0.00    +0.000 C 
ATOM      2  N   UNL     1       4.180   5.944  19.184  0.00  0.00    +0.000 NA
ATOM      3  N   UNL     1       4.777   4.707  19.348  0.00  0.00    +0.000 N 
ATOM      4  C   UNL     1       4.062   3.524  19.474  0.00  0.00    +0.000 C 
ATOM      5  O   UNL     1       4.572   2.411  19.323  0.00  0.00    +0.000 OA
ATOM      6  C   UNL     1       2.583   3.649  19.713  0.00  0.00    +0.000 C 
ATOM      7  C   UNL     1       2.173   5.000  20.246  0.00  0.00    +0.000 C 
ENDROOT
BRANCH   1  12
ATOM      8  C   UNL     1       0.538  11.341  18.848  0.00  0.00    +0.000 C 
ATOM      9  C   UNL     1       1.102   9.962  19.028  0.00  0.00    +0.000 A 
ATOM     10  C   UNL     1       0.996   9.283  20.248  0.00  0.00    +0.000 A 
ATOM     11  C   UNL     1       1.567   8.016  20.409  0.00  0.00    +0.000 A 
ATOM     12  C   UNL     1       2.257   7.413  19.350  0.00  0.00    +0.000 A 
ATOM     13  C   UNL     1       2.326   8.076  18.118  0.00  0.00    +0.000 A 
ATOM     14  C   UNL     1       1.765   9.340  17.960  0.00  0.00    +0.000 A 
ENDBRANCH   1  12
BRANCH   3  15
ATOM     15  C   UNL     1       6.194   4.613  18.997  0.00  0.00    +0.000 C 
BRANCH  15  16
ATOM     16  C   UNL     1       6.477   4.838  17.502  0.00  0.00    +0.000 C 
ATOM     17  O   UNL     1       7.599   4.773  17.003  0.00  0.00    +0.000 OA
ATOM     18  N   UNL     1       5.358   5.234  16.769  0.00  0.00    +0.000 N 
ATOM     19  H   UNL     1       4.450   4.957  17.120  0.00  0.00    +0.000 HD
BRANCH  18  20
ATOM     20  C   UNL     1       5.484   5.542  15.356  0.00  0.00    +0.000 C 
BRANCH  20  21
ATOM     21  C   UNL     1       5.197   4.355  14.428  0.00  0.00    +0.000 C 
BRANCH  21  22
ATOM     22  C   UNL     1       6.389   3.850  13.590  0.00  0.00    +0.000 C 
ATOM     23  C   UNL     1       5.958   3.258  12.249  0.00  0.00    +0.000 C 
ATOM     24  C   UNL     1       7.380   4.995  13.346  0.00  0.00    +0.000 C 
ENDBRANCH  21  22
ENDBRANCH  20  21
ENDBRANCH  18  20
ENDBRANCH  15  16
ENDBRANCH   3  15
TORSDOF 6
ENDMDL
MODEL 5
REMARK VINA RESULT:      -7.3      2.544      3.664
REMARK  Name = 
REMARK  9 active torsions:
REMARK  status: ('A' for Active; 'I' for Inactive)
REMARK    1  A    between atoms: C_1  and  C_2
REMARK    2  A    between atoms: C_5  and  C_6
REMARK    3  A    between atoms: N_8  and  C_9
REMARK    4  A    between atoms: C_9  and  C_10
REMARK    5  A    between atoms: N_12  and  C_13
REMARK    6  A    between atoms: C_13  and  C_14
REMARK    7  A    between atoms: C_14  and  C_15
REMARK    8  A    between atoms: C_15  and  C_16
REMARK    9  A    between atoms: C_15  and  C_17
REMARK                            x       y       z     vdW  Elec       q    Type
REMARK                         _______ _______ _______ _____ _____    ______ ____
ROOT
ATOM      1  C   UNL     1       2.817   6.195  18.917  0.00  0.00    +0.000 C 
ATOM      2  N   UNL     1       4.044   6.071  18.500  0.00  0.00    +0.000 NA
ATOM      3  N   UNL     1       4.578   4.803  18.364  0.00  0.00    +0.000 N 
ATOM      4  C   UNL     1       3.805   3.659  18.217  0.00  0.00    +0.000 C 
ATOM      5  O   UNL     1       4.259   2.589  17.806  0.00  0.00    +0.000 OA
ATOM      6  C   UNL     1       2.334   3.796  18.493  0.00  0.00    +0.000 C 
ATOM      7  C   UNL     1       1.990   5.004  19.331  0.00  0.00    +0.000 C 
ENDROOT
BRANCH   1  12
ATOM      8  C   UNL     1       0.683  11.574  19.445  0.00  0.00    +0.000 C 
ATOM      9  C   UNL     1       1.175  10.163  19.304  0.00  0.00    +0.000 A 
ATOM     10  C   UNL     1       1.116   9.259  20.371  0.00  0.00    +0.000 A 
ATOM     11  C   UNL     1       1.620   7.961  20.233  0.00  0.00    +0.000 A 
ATOM     12  C   UNL     1       2.195   7.552  19.023  0.00  0.00    +0.000 A 
ATOM     13  C   UNL     1       2.216   8.445  17.944  0.00  0.00    +0.000 A 
ATOM     14  C   UNL     1       1.722   9.739  18.084  0.00  0.00    +0.000 A 
ENDBRANCH   1  12
BRANCH   3  15
ATOM     15  C   UNL     1       5.989   4.724  17.988  0.00  0.00    +0.000 C 
BRANCH  15  16
ATOM     16  C   UNL     1       6.250   5.030  16.502  0.00  0.00    +0.000 C 
ATOM     17  O   UNL     1       6.308   6.167  16.040  0.00  0.00    +0.000 OA
ATOM     18  N   UNL     1       6.308   3.894  15.694  0.00  0.00    +0.000 N 
ATOM     19  H   UNL     1       6.585   3.024  16.133  0.00  0.00    +0.000 HD
BRANCH  18  20
ATOM     20  C   UNL     1       6.489   4.028  14.260  0.00  0.00    +0.000 C 
BRANCH  20  21
ATOM     21  C   UNL     1       5.217   3.778  13.441  0.00  0.00    +0.000 C 
BRANCH  21  22
ATOM     22  C   UNL     1       5.429   3.437  11.952  0.00  0.00    +0.000 C 
ATOM     23  C   UNL     1       6.328   2.218  11.749  0.00  0.00    +0.000 C 
ATOM     24  C   UNL     1       4.077   3.191  11.273  0.00  0.00    +0.000 C 
ENDBRANCH  21  22
ENDBRANCH  20  21
ENDBRANCH  18  20
ENDBRANCH  15  16
ENDBRANCH   3  15
TORSDOF 6
ENDMDL
MODEL 6
REMARK VINA RESULT:      -7.3      2.486      3.430
REMARK  Name = 
REMARK  9 active torsions:
REMARK  status: ('A' for Active; 'I' for Inactive)
REMARK    1  A    between atoms: C_1  and  C_2
REMARK    2  A    between atoms: C_5  and  C_6
REMARK    3  A    between atoms: N_8  and  C_9
REMARK    4  A    between atoms: C_9  and  C_10
REMARK    5  A    between atoms: N_12  and  C_13
REMARK    6  A    between atoms: C_13  and  C_14
REMARK    7  A    between atoms: C_14  and  C_15
REMARK    8  A    between atoms: C_15  and  C_16
REMARK    9  A    between atoms: C_15  and  C_17
REMARK                            x       y       z     vdW  Elec       q    Type
REMARK                         _______ _______ _______ _____ _____    ______ ____
ROOT
ATOM      1  C   UNL     1       2.705   6.272  19.138  0.00  0.00    +0.000 C 
ATOM      2  N   UNL     1       3.935   6.128  18.738  0.00  0.00    +0.000 NA
ATOM      3  N   UNL     1       4.437   4.851  18.570  0.00  0.00    +0.000 N 
ATOM      4  C   UNL     1       3.637   3.734  18.372  0.00  0.00    +0.000 C 
ATOM      5  O   UNL     1       4.070   2.666  17.934  0.00  0.00    +0.000 OA
ATOM      6  C   UNL     1       2.165   3.903  18.627  0.00  0.00    +0.000 C 
ATOM      7  C   UNL     1       1.839   5.091  19.498  0.00  0.00    +0.000 C 
ENDROOT
BRANCH   1  12
ATOM      8  C   UNL     1       0.144  11.470  19.578  0.00  0.00    +0.000 C 
ATOM      9  C   UNL     1       0.862  10.156  19.467  0.00  0.00    +0.000 A 
ATOM     10  C   UNL     1       1.455   9.747  18.267  0.00  0.00    +0.000 A 
ATOM     11  C   UNL     1       2.081   8.499  18.172  0.00  0.00    +0.000 A 
ATOM     12  C   UNL     1       2.118   7.642  19.278  0.00  0.00    +0.000 A 
ATOM     13  C   UNL     1       1.561   8.071  20.490  0.00  0.00    +0.000 A 
ATOM     14  C   UNL     1       0.930   9.309  20.582  0.00  0.00    +0.000 A 
ENDBRANCH   1  12
BRANCH   3  15
ATOM     15  C   UNL     1       5.853   4.746  18.216  0.00  0.00    +0.000 C 
BRANCH  15  16
ATOM     16  C   UNL     1       6.149   5.090  16.746  0.00  0.00    +0.000 C 
ATOM     17  O   UNL     1       6.212   6.240  16.314  0.00  0.00    +0.000 OA
ATOM     18  N   UNL     1       6.233   3.976  15.911  0.00  0.00    +0.000 N 
ATOM     19  H   UNL     1       6.504   3.097  16.335  0.00  0.00    +0.000 HD
BRANCH  18  20
ATOM     20  C   UNL     1       6.449   4.147  14.486  0.00  0.00    +0.000 C 
BRANCH  20  21
ATOM     21  C   UNL     1       5.265   3.710  13.615  0.00  0.00    +0.000 C 
BRANCH  21  22
ATOM     22  C   UNL     1       5.552   3.570  12.107  0.00  0.00    +0.000 C 
ATOM     23  C   UNL     1       6.604   2.504  11.804  0.00  0.00    +0.000 C 
ATOM     24  C   UNL     1       4.257   3.235  11.356  0.00  0.00    +0.000 C 
ENDBRANCH  21  22
ENDBRANCH  20  21
ENDBRANCH  18  20
ENDBRANCH  15  16
ENDBRANCH   3  15
TORSDOF 6
ENDMDL
MODEL 7
REMARK VINA RESULT:      -7.2      1.657      4.475
REMARK  Name = 
REMARK  9 active torsions:
REMARK  status: ('A' for Active; 'I' for Inactive)
REMARK    1  A    between atoms: C_1  and  C_2
REMARK    2  A    between atoms: C_5  and  C_6
REMARK    3  A    between atoms: N_8  and  C_9
REMARK    4  A    between atoms: C_9  and  C_10
REMARK    5  A    between atoms: N_12  and  C_13
REMARK    6  A    between atoms: C_13  and  C_14
REMARK    7  A    between atoms: C_14  and  C_15
REMARK    8  A    between atoms: C_15  and  C_16
REMARK    9  A    between atoms: C_15  and  C_17
REMARK                            x       y       z     vdW  Elec       q    Type
REMARK                         _______ _______ _______ _____ _____    ______ ____
ROOT
ATOM      1  C   UNL     1       3.972   6.755  17.912  0.00  0.00    +0.000 C 
ATOM      2  N   UNL     1       4.501   5.846  18.677  0.00  0.00    +0.000 NA
ATOM      3  N   UNL     1       5.575   5.115  18.201  0.00  0.00    +0.000 N 
ATOM      4  C   UNL     1       6.401   5.551  17.174  0.00  0.00    +0.000 C 
ATOM      5  O   UNL     1       7.510   5.060  16.950  0.00  0.00    +0.000 OA
ATOM      6  C   UNL     1       5.927   6.737  16.382  0.00  0.00    +0.000 C 
ATOM      7  C   UNL     1       4.443   6.982  16.497  0.00  0.00    +0.000 C 
ENDROOT
BRANCH   1  12
ATOM      8  C   UNL     1      -0.193  10.218  20.017  0.00  0.00    +0.000 C 
ATOM      9  C   UNL     1       0.839   9.279  19.464  0.00  0.00    +0.000 A 
ATOM     10  C   UNL     1       1.346   8.220  20.227  0.00  0.00    +0.000 A 
ATOM     11  C   UNL     1       2.340   7.382  19.709  0.00  0.00    +0.000 A 
ATOM     12  C   UNL     1       2.843   7.597  18.419  0.00  0.00    +0.000 A 
ATOM     13  C   UNL     1       2.304   8.631  17.643  0.00  0.00    +0.000 A 
ATOM     14  C   UNL     1       1.321   9.470  18.162  0.00  0.00    +0.000 A 
ENDBRANCH   1  12
BRANCH   3  15
ATOM     15  C   UNL     1       6.067   4.039  19.062  0.00  0.00    +0.000 C 
BRANCH  15  16
ATOM     16  C   UNL     1       5.014   2.959  19.363  0.00  0.00    +0.000 C 
ATOM     17  O   UNL     1       4.930   2.370  20.440  0.00  0.00    +0.000 OA
ATOM     18  N   UNL     1       4.222   2.620  18.266  0.00  0.00    +0.000 N 
ATOM     19  H   UNL     1       4.098   3.323  17.548  0.00  0.00    +0.000 HD
BRANCH  18  20
ATOM     20  C   UNL     1       3.224   1.573  18.383  0.00  0.00    +0.000 C 
BRANCH  20  21
ATOM     21  C   UNL     1       1.825   2.077  18.757  0.00  0.00    +0.000 C 
BRANCH  21  22
ATOM     22  C   UNL     1       1.694   3.596  18.985  0.00  0.00    +0.000 C 
ATOM     23  C   UNL     1       1.194   4.337  17.746  0.00  0.00    +0.000 C 
ATOM     24  C   UNL     1       0.746   3.870  20.159  0.00  0.00    +0.000 C 
ENDBRANCH  21  22
ENDBRANCH  20  21
ENDBRANCH  18  20
ENDBRANCH  15  16
ENDBRANCH   3  15
TORSDOF 6
ENDMDL
MODEL 8
REMARK VINA RESULT:      -7.2      0.925      1.604
REMARK  Name = 
REMARK  9 active torsions:
REMARK  status: ('A' for Active; 'I' for Inactive)
REMARK    1  A    between atoms: C_1  and  C_2
REMARK    2  A    between atoms: C_5  and  C_6
REMARK    3  A    between atoms: N_8  and  C_9
REMARK    4  A    between atoms: C_9  and  C_10
REMARK    5  A    between atoms: N_12  and  C_13
REMARK    6  A    between atoms: C_13  and  C_14
REMARK    7  A    between atoms: C_14  and  C_15
REMARK    8  A    between atoms: C_15  and  C_16
REMARK    9  A    between atoms: C_15  and  C_17
REMARK                            x       y       z     vdW  Elec       q    Type
REMARK                         _______ _______ _______ _____ _____    ______ ____
ROOT
ATOM      1  C   UNL     1       2.075   5.894  19.579  0.00  0.00    +0.000 C 
ATOM      2  N   UNL     1       2.786   5.220  18.723  0.00  0.00    +0.000 NA
ATOM      3  N   UNL     1       2.977   3.867  18.934  0.00  0.00    +0.000 N 
ATOM      4  C   UNL     1       2.138   3.089  19.720  0.00  0.00    +0.000 C 
ATOM      5  O   UNL     1       2.126   1.857  19.674  0.00  0.00    +0.000 OA
ATOM      6  C   UNL     1       1.150   3.821  20.584  0.00  0.00    +0.000 C 
ATOM      7  C   UNL     1       1.520   5.262  20.832  0.00  0.00    +0.000 C 
ENDROOT
BRANCH   1  12
ATOM      8  C   UNL     1       1.329  11.605  18.806  0.00  0.00    +0.000 C 
ATOM      9  C   UNL     1       1.459  10.122  19.000  0.00  0.00    +0.000 A 
ATOM     10  C   UNL     1       1.132   9.514  20.218  0.00  0.00    +0.000 A 
ATOM     11  C   UNL     1       1.302   8.136  20.392  0.00  0.00    +0.000 A 
ATOM     12  C   UNL     1       1.807   7.349  19.350  0.00  0.00    +0.000 A 
ATOM     13  C   UNL     1       2.094   7.953  18.119  0.00  0.00    +0.000 A 
ATOM     14  C   UNL     1       1.933   9.326  17.948  0.00  0.00    +0.000 A 
ENDBRANCH   1  12
BRANCH   3  15
ATOM     15  C   UNL     1       3.866   3.178  17.997  0.00  0.00    +0.000 C 
BRANCH  15  16
ATOM     16  C   UNL     1       5.140   3.971  17.658  0.00  0.00    +0.000 C 
ATOM     17  O   UNL     1       6.184   3.891  18.301  0.00  0.00    +0.000 OA
ATOM     18  N   UNL     1       4.976   4.881  16.613  0.00  0.00    +0.000 N 
ATOM     19  H   UNL     1       4.256   4.682  15.931  0.00  0.00    +0.000 HD
BRANCH  18  20
ATOM     20  C   UNL     1       6.076   5.744  16.220  0.00  0.00    +0.000 C 
BRANCH  20  21
ATOM     21  C   UNL     1       6.239   6.992  17.096  0.00  0.00    +0.000 C 
BRANCH  21  22
ATOM     22  C   UNL     1       7.679   7.322  17.537  0.00  0.00    +0.000 C 
ATOM     23  C   UNL     1       7.899   8.819  17.758  0.00  0.00    +0.000 C 
ATOM     24  C   UNL     1       8.021   6.562  18.825  0.00  0.00    +0.000 C 
ENDBRANCH  21  22
ENDBRANCH  20  21
ENDBRANCH  18  20
ENDBRANCH  15  16
ENDBRANCH   3  15
TORSDOF 6
ENDMDL
MODEL 9
REMARK VINA RESULT:      -7.1      1.500      4.608
REMARK  Name = 
REMARK  9 active torsions:
REMARK  status: ('A' for Active; 'I' for Inactive)
REMARK    1  A    between atoms: C_1  and  C_2
REMARK    2  A    between atoms: C_5  and  C_6
REMARK    3  A    between atoms: N_8  and  C_9
REMARK    4  A    between atoms: C_9  and  C_10
REMARK    5  A    between atoms: N_12  and  C_13
REMARK    6  A    between atoms: C_13  and  C_14
REMARK    7  A    between atoms: C_14  and  C_15
REMARK    8  A    between atoms: C_15  and  C_16
REMARK    9  A    between atoms: C_15  and  C_17
REMARK                            x       y       z     vdW  Elec       q    Type
REMARK                         _______ _______ _______ _____ _____    ______ ____
ROOT
ATOM      1  C   UNL     1       3.871   6.582  17.456  0.00  0.00    +0.000 C 
ATOM      2  N   UNL     1       3.740   5.291  17.549  0.00  0.00    +0.000 NA
ATOM      3  N   UNL     1       4.638   4.479  16.882  0.00  0.00    +0.000 N 
ATOM      4  C   UNL     1       5.900   4.899  16.485  0.00  0.00    +0.000 C 
ATOM      5  O   UNL     1       6.798   4.117  16.164  0.00  0.00    +0.000 OA
ATOM      6  C   UNL     1       6.173   6.376  16.550  0.00  0.00    +0.000 C 
ATOM      7  C   UNL     1       4.921   7.218  16.579  0.00  0.00    +0.000 C 
ENDROOT
BRANCH   1  12
ATOM      8  C   UNL     1       0.032   9.933  20.249  0.00  0.00    +0.000 C 
ATOM      9  C   UNL     1       1.068   9.111  19.540  0.00  0.00    +0.000 A 
ATOM     10  C   UNL     1       1.510   9.444  18.254  0.00  0.00    +0.000 A 
ATOM     11  C   UNL     1       2.445   8.640  17.593  0.00  0.00    +0.000 A 
ATOM     12  C   UNL     1       2.946   7.486  18.209  0.00  0.00    +0.000 A 
ATOM     13  C   UNL     1       2.533   7.178  19.512  0.00  0.00    +0.000 A 
ATOM     14  C   UNL     1       1.597   7.974  20.167  0.00  0.00    +0.000 A 
ENDBRANCH   1  12
BRANCH   3  15
ATOM     15  C   UNL     1       4.386   3.039  16.940  0.00  0.00    +0.000 C 
BRANCH  15  16
ATOM     16  C   UNL     1       3.516   2.612  18.135  0.00  0.00    +0.000 C 
ATOM     17  O   UNL     1       3.971   2.130  19.171  0.00  0.00    +0.000 OA
ATOM     18  N   UNL     1       2.145   2.715  17.901  0.00  0.00    +0.000 N 
ATOM     19  H   UNL     1       1.840   3.394  17.216  0.00  0.00    +0.000 HD
BRANCH  18  20
ATOM     20  C   UNL     1       1.198   2.290  18.916  0.00  0.00    +0.000 C 
BRANCH  20  21
ATOM     21  C   UNL     1       0.674   3.428  19.801  0.00  0.00    +0.000 C 
BRANCH  21  22
ATOM     22  C   UNL     1       1.281   3.517  21.215  0.00  0.00    +0.000 C 
ATOM     23  C   UNL     1       1.730   2.158  21.751  0.00  0.00    +0.000 C 
ATOM     24  C   UNL     1       2.473   4.482  21.214  0.00  0.00    +0.000 C 
ENDBRANCH  21  22
ENDBRANCH  20  21
ENDBRANCH  18  20
ENDBRANCH  15  16
ENDBRANCH   3  15
TORSDOF 6
ENDMDL
