MODEL 1
REMARK VINA RESULT:      -6.5      0.000      0.000
REMARK  Name = 
REMARK  8 active torsions:
REMARK  status: ('A' for Active; 'I' for Inactive)
REMARK    1  A    between atoms: C_1  and  O_2
REMARK    2  A    between atoms: O_2  and  C_3
REMARK    3  A    between atoms: C_8  and  O_9
REMARK    4  A    between atoms: O_9  and  C_10
REMARK    5  A    between atoms: C_13  and  C_14
REMARK    6  A    between atoms: C_14  and  N_15
REMARK    7  A    between atoms: N_15  and  C_16
REMARK    8  A    between atoms: N_15  and  C_17
REMARK                            x       y       z     vdW  Elec       q    Type
REMARK                         _______ _______ _______ _____ _____    ______ ____
ROOT
ATOM      1  C   UNL     1       6.590   4.914  15.645  0.00  0.00    +0.000 A 
ATOM      2  C   UNL     1       5.445   4.610  14.901  0.00  0.00    +0.000 A 
ATOM      3  C   UNL     1       4.343   4.037  15.526  0.00  0.00    +0.000 A 
ATOM      4  C   UNL     1       4.375   3.789  16.899  0.00  0.00    +0.000 A 
ATOM      5  C   UNL     1       5.502   4.104  17.673  0.00  0.00    +0.000 A 
ATOM      6  C   UNL     1       6.632   4.652  17.039  0.00  0.00    +0.000 A 
ATOM      7  O   UNL     1       5.498   3.940  19.034  0.00  0.00    +0.000 OA
ATOM      8  C   UNL     1       4.522   3.017  19.545  0.00  0.00    +0.000 C 
ATOM      9  C   UNL     1       3.128   3.352  19.048  0.00  0.00    +0.000 C 
ATOM     10  C   UNL     1       3.181   3.215  17.547  0.00  0.00    +0.000 C 
ATOM     11  O   UNL     1       2.288   2.717  16.872  0.00  0.00    +0.000 OA
ENDROOT
BRANCH   1  13
ATOM     12  C   UNL     1       7.875   5.307  13.672  0.00  0.00    +0.000 C 
ATOM     13  O   UNL     1       7.737   5.426  15.082  0.00  0.00    +0.000 OA
ENDBRANCH   1  13
BRANCH   6  14
ATOM     14  O   UNL     1       7.824   5.000  17.629  0.00  0.00    +0.000 OA
ATOM     15  C   UNL     1       7.877   6.099  18.522  0.00  0.00    +0.000 C 
ENDBRANCH   6  14
BRANCH   9  16
ATOM     16  C   UNL     1       2.042   2.434  19.627  0.00  0.00    +0.000 C 
BRANCH  16  17
ATOM     17  N   UNL     1       1.182   3.055  20.657  0.00  0.00    +0.000 NA
ATOM     18  C   UNL     1       1.603   2.697  22.014  0.00  0.00    +0.000 C 
ATOM     19  C   UNL     1       1.228   4.516  20.507  0.00  0.00    +0.000 C 
ENDBRANCH  16  17
ENDBRANCH   9  16
TORSDOF 4
ENDMDL
MODEL 2
REMARK VINA RESULT:      -6.5      1.340      1.473
REMARK  Name = 
REMARK  8 active torsions:
REMARK  status: ('A' for Active; 'I' for Inactive)
REMARK    1  A    between atoms: C_1  and  O_2
REMARK    2  A    between atoms: O_2  and  C_3
REMARK    3  A    between atoms: C_8  and  O_9
REMARK    4  A    between atoms: O_9  and  C_10
REMARK    5  A    between atoms: C_13  and  C_14
REMARK    6  A    between atoms: C_14  and  N_15
REMARK    7  A    between atoms: N_15  and  C_16
REMARK    8  A    between atoms: N_15  and  C_17
REMARK                            x       y       z     vdW  Elec       q    Type
REMARK                         _______ _______ _______ _____ _____    ______ ____
ROOT
ATOM      1  C   UNL     1       6.905   5.072  15.109  0.00  0.00    +0.000 A 
ATOM      2  C   UNL     1       6.026   4.054  14.723  0.00  0.00    +0.000 A 
ATOM      3  C   UNL     1       5.146   3.509  15.651  0.00  0.00    +0.000 A 
ATOM      4  C   UNL     1       5.125   3.998  16.959  0.00  0.00    +0.000 A 
ATOM      5  C   UNL     1       5.979   5.033  17.366  0.00  0.00    +0.000 A 
ATOM      6  C   UNL     1       6.896   5.563  16.439  0.00  0.00    +0.000 A 
ATOM      7  O   UNL     1       5.897   5.570  18.625  0.00  0.00    +0.000 OA
ATOM      8  C   UNL     1       5.270   4.737  19.613  0.00  0.00    +0.000 C 
ATOM      9  C   UNL     1       3.906   4.257  19.152  0.00  0.00    +0.000 C 
ATOM     10  C   UNL     1       4.157   3.432  17.916  0.00  0.00    +0.000 C 
ATOM     11  O   UNL     1       3.574   2.383  17.662  0.00  0.00    +0.000 OA
ENDROOT
BRANCH   1  13
ATOM     12  C   UNL     1       7.811   5.191  12.903  0.00  0.00    +0.000 C 
ATOM     13  O   UNL     1       7.843   5.614  14.260  0.00  0.00    +0.000 OA
ENDBRANCH   1  13
BRANCH   6  14
ATOM     14  O   UNL     1       7.819   6.558  16.665  0.00  0.00    +0.000 OA
ATOM     15  C   UNL     1       7.420   7.762  17.297  0.00  0.00    +0.000 C 
ENDBRANCH   6  14
BRANCH   9  16
ATOM     16  C   UNL     1       3.168   3.423  20.208  0.00  0.00    +0.000 C 
BRANCH  16  17
ATOM     17  N   UNL     1       1.851   3.956  20.617  0.00  0.00    +0.000 NA
ATOM     18  C   UNL     1       1.799   5.418  20.536  0.00  0.00    +0.000 C 
ATOM     19  C   UNL     1       0.810   3.386  19.752  0.00  0.00    +0.000 C 
ENDBRANCH  16  17
ENDBRANCH   9  16
TORSDOF 4
ENDMDL
MODEL 3
REMARK VINA RESULT:      -6.2      1.702      1.862
REMARK  Name = 
REMARK  8 active torsions:
REMARK  status: ('A' for Active; 'I' for Inactive)
REMARK    1  A    between atoms: C_1  and  O_2
REMARK    2  A    between atoms: O_2  and  C_3
REMARK    3  A    between atoms: C_8  and  O_9
REMARK    4  A    between atoms: O_9  and  C_10
REMARK    5  A    between atoms: C_13  and  C_14
REMARK    6  A    between atoms: C_14  and  N_15
REMARK    7  A    between atoms: N_15  and  C_16
REMARK    8  A    between atoms: N_15  and  C_17
REMARK                            x       y       z     vdW  Elec       q    Type
REMARK                         _______ _______ _______ _____ _____    ______ ____
ROOT
ATOM      1  C   UNL     1       6.689   6.483  17.271  0.00  0.00    +0.000 A 
ATOM      2  C   UNL     1       5.483   6.797  16.635  0.00  0.00    +0.000 A 
ATOM      3  C   UNL     1       4.341   6.052  16.905  0.00  0.00    +0.000 A 
ATOM      4  C   UNL     1       4.396   5.007  17.828  0.00  0.00    +0.000 A 
ATOM      5  C   UNL     1       5.586   4.683  18.497  0.00  0.00    +0.000 A 
ATOM      6  C   UNL     1       6.753   5.414  18.201  0.00  0.00    +0.000 A 
ATOM      7  O   UNL     1       5.617   3.715  19.466  0.00  0.00    +0.000 OA
ATOM      8  C   UNL     1       4.548   2.757  19.419  0.00  0.00    +0.000 C 
ATOM      9  C   UNL     1       3.192   3.438  19.394  0.00  0.00    +0.000 C 
ATOM     10  C   UNL     1       3.164   4.254  18.127  0.00  0.00    +0.000 C 
ATOM     11  O   UNL     1       2.184   4.353  17.397  0.00  0.00    +0.000 OA
ENDROOT
BRANCH   1  13
ATOM     12  C   UNL     1       8.043   8.422  17.593  0.00  0.00    +0.000 C 
ATOM     13  O   UNL     1       7.870   7.138  17.007  0.00  0.00    +0.000 OA
ENDBRANCH   1  13
BRANCH   6  14
ATOM     14  O   UNL     1       8.004   5.224  18.737  0.00  0.00    +0.000 OA
ATOM     15  C   UNL     1       8.264   5.602  20.078  0.00  0.00    +0.000 C 
ENDBRANCH   6  14
BRANCH   9  16
ATOM     16  C   UNL     1       2.017   2.450  19.417  0.00  0.00    +0.000 C 
BRANCH  16  17
ATOM     17  N   UNL     1       1.017   2.692  20.479  0.00  0.00    +0.000 NA
ATOM     18  C   UNL     1       1.553   2.412  21.813  0.00  0.00    +0.000 C 
ATOM     19  C   UNL     1       0.578   4.093  20.418  0.00  0.00    +0.000 C 
ENDBRANCH  16  17
ENDBRANCH   9  16
TORSDOF 4
ENDMDL
MODEL 4
REMARK VINA RESULT:      -6.2      1.442      1.591
REMARK  Name = 
REMARK  8 active torsions:
REMARK  status: ('A' for Active; 'I' for Inactive)
REMARK    1  A    between atoms: C_1  and  O_2
REMARK    2  A    between atoms: O_2  and  C_3
REMARK    3  A    between atoms: C_8  and  O_9
REMARK    4  A    between atoms: O_9  and  C_10
REMARK    5  A    between atoms: C_13  and  C_14
REMARK    6  A    between atoms: C_14  and  N_15
REMARK    7  A    between atoms: N_15  and  C_16
REMARK    8  A    between atoms: N_15  and  C_17
REMARK                            x       y       z     vdW  Elec       q    Type
REMARK                         _______ _______ _______ _____ _____    ______ ____
ROOT
ATOM      1  C   UNL     1       6.833   5.172  15.112  0.00  0.00    +0.000 A 
ATOM      2  C   UNL     1       6.085   4.063  14.702  0.00  0.00    +0.000 A 
ATOM      3  C   UNL     1       4.966   3.673  15.429  0.00  0.00    +0.000 A 
ATOM      4  C   UNL     1       4.579   4.404  16.554  0.00  0.00    +0.000 A 
ATOM      5  C   UNL     1       5.298   5.533  16.975  0.00  0.00    +0.000 A 
ATOM      6  C   UNL     1       6.451   5.911  16.261  0.00  0.00    +0.000 A 
ATOM      7  O   UNL     1       4.867   6.299  18.026  0.00  0.00    +0.000 OA
ATOM      8  C   UNL     1       3.969   5.648  18.940  0.00  0.00    +0.000 C 
ATOM      9  C   UNL     1       2.787   5.032  18.214  0.00  0.00    +0.000 C 
ATOM     10  C   UNL     1       3.369   3.994  17.288  0.00  0.00    +0.000 C 
ATOM     11  O   UNL     1       2.866   2.893  17.092  0.00  0.00    +0.000 OA
ENDROOT
BRANCH   1  13
ATOM     12  C   UNL     1       8.047   5.387  13.068  0.00  0.00    +0.000 C 
ATOM     13  O   UNL     1       7.983   5.578  14.476  0.00  0.00    +0.000 OA
ENDBRANCH   1  13
BRANCH   6  14
ATOM     14  O   UNL     1       7.285   6.967  16.539  0.00  0.00    +0.000 OA
ATOM     15  C   UNL     1       7.777   7.153  17.855  0.00  0.00    +0.000 C 
ENDBRANCH   6  14
BRANCH   9  16
ATOM     16  C   UNL     1       1.764   4.388  19.160  0.00  0.00    +0.000 C 
BRANCH  16  17
ATOM     17  N   UNL     1       2.337   3.487  20.182  0.00  0.00    +0.000 NA
ATOM     18  C   UNL     1       2.203   4.033  21.535  0.00  0.00    +0.000 C 
ATOM     19  C   UNL     1       1.657   2.187  20.115  0.00  0.00    +0.000 C 
ENDBRANCH  16  17
ENDBRANCH   9  16
TORSDOF 4
ENDMDL
MODEL 5
REMARK VINA RESULT:      -6.1      3.263      6.352
REMARK  Name = 
REMARK  8 active torsions:
REMARK  status: ('A' for Active; 'I' for Inactive)
REMARK    1  A    between atoms: C_1  and  O_2
REMARK    2  A    between atoms: O_2  and  C_3
REMARK    3  A    between atoms: C_8  and  O_9
REMARK    4  A    between atoms: O_9  and  C_10
REMARK    5  A    between atoms: C_13  and  C_14
REMARK    6  A    between atoms: C_14  and  N_15
REMARK    7  A    between atoms: N_15  and  C_16
REMARK    8  A    between atoms: N_15  and  C_17
REMARK                            x       y       z     vdW  Elec       q    Type
REMARK                         _______ _______ _______ _____ _____    ______ ____
ROOT
ATOM      1  C   UNL     1       2.392   6.679  19.589  0.00  0.00    +0.000 A 
ATOM      2  C   UNL     1       2.486   7.632  18.569  0.00  0.00    +0.000 A 
ATOM      3  C   UNL     1       3.434   7.481  17.563  0.00  0.00    +0.000 A 
ATOM      4  C   UNL     1       4.273   6.365  17.562  0.00  0.00    +0.000 A 
ATOM      5  C   UNL     1       4.186   5.383  18.560  0.00  0.00    +0.000 A 
ATOM      6  C   UNL     1       3.251   5.550  19.599  0.00  0.00    +0.000 A 
ATOM      7  O   UNL     1       4.950   4.246  18.508  0.00  0.00    +0.000 OA
ATOM      8  C   UNL     1       6.134   4.332  17.700  0.00  0.00    +0.000 C 
ATOM      9  C   UNL     1       5.817   4.821  16.298  0.00  0.00    +0.000 C 
ATOM     10  C   UNL     1       5.246   6.206  16.465  0.00  0.00    +0.000 C 
ATOM     11  O   UNL     1       5.505   7.148  15.725  0.00  0.00    +0.000 OA
ENDROOT
BRANCH   1  13
ATOM     12  C   UNL     1       1.228   8.110  21.104  0.00  0.00    +0.000 C 
ATOM     13  O   UNL     1       1.520   6.796  20.647  0.00  0.00    +0.000 OA
ENDBRANCH   1  13
BRANCH   6  14
ATOM     14  O   UNL     1       3.041   4.708  20.665  0.00  0.00    +0.000 OA
ATOM     15  C   UNL     1       2.294   3.517  20.490  0.00  0.00    +0.000 C 
ENDBRANCH   6  14
BRANCH   9  16
ATOM     16  C   UNL     1       7.044   4.859  15.377  0.00  0.00    +0.000 C 
BRANCH  16  17
ATOM     17  N   UNL     1       6.740   4.990  13.936  0.00  0.00    +0.000 NA
ATOM     18  C   UNL     1       7.941   5.269  13.143  0.00  0.00    +0.000 C 
ATOM     19  C   UNL     1       6.123   3.746  13.458  0.00  0.00    +0.000 C 
ENDBRANCH  16  17
ENDBRANCH   9  16
TORSDOF 4
ENDMDL
MODEL 6
REMARK VINA RESULT:      -5.9      2.988      6.284
REMARK  Name = 
REMARK  8 active torsions:
REMARK  status: ('A' for Active; 'I' for Inactive)
REMARK    1  A    between atoms: C_1  and  O_2
REMARK    2  A    between atoms: O_2  and  C_3
REMARK    3  A    between atoms: C_8  and  O_9
REMARK    4  A    between atoms: O_9  and  C_10
REMARK    5  A    between atoms: C_13  and  C_14
REMARK    6  A    between atoms: C_14  and  N_15
REMARK    7  A    between atoms: N_15  and  C_16
REMARK    8  A    between atoms: N_15  and  C_17
REMARK                            x       y       z     vdW  Elec       q    Type
REMARK                         _______ _______ _______ _____ _____    ______ ____
ROOT
ATOM      1  C   UNL     1       2.951   5.124  19.458  0.00  0.00    +0.000 A 
ATOM      2  C   UNL     1       3.059   6.408  18.913  0.00  0.00    +0.000 A 
ATOM      3  C   UNL     1       3.794   6.608  17.750  0.00  0.00    +0.000 A 
ATOM      4  C   UNL     1       4.401   5.522  17.116  0.00  0.00    +0.000 A 
ATOM      5  C   UNL     1       4.290   4.221  17.629  0.00  0.00    +0.000 A 
ATOM      6  C   UNL     1       3.576   4.020  18.825  0.00  0.00    +0.000 A 
ATOM      7  O   UNL     1       4.813   3.145  16.959  0.00  0.00    +0.000 OA
ATOM      8  C   UNL     1       5.852   3.449  16.015  0.00  0.00    +0.000 C 
ATOM      9  C   UNL     1       5.416   4.523  15.034  0.00  0.00    +0.000 C 
ATOM     10  C   UNL     1       5.144   5.752  15.864  0.00  0.00    +0.000 C 
ATOM     11  O   UNL     1       5.456   6.889  15.527  0.00  0.00    +0.000 OA
ENDROOT
BRANCH   1  13
ATOM     12  C   UNL     1       0.938   4.436  20.543  0.00  0.00    +0.000 C 
ATOM     13  O   UNL     1       2.291   4.864  20.637  0.00  0.00    +0.000 OA
ENDBRANCH   1  13
BRANCH   6  14
ATOM     14  O   UNL     1       3.383   2.827  19.482  0.00  0.00    +0.000 OA
ATOM     15  C   UNL     1       4.450   2.236  20.202  0.00  0.00    +0.000 C 
ENDBRANCH   6  14
BRANCH   9  16
ATOM     16  C   UNL     1       6.470   4.828  13.961  0.00  0.00    +0.000 C 
BRANCH  16  17
ATOM     17  N   UNL     1       6.574   3.821  12.883  0.00  0.00    +0.000 NA
ATOM     18  C   UNL     1       5.262   3.452  12.346  0.00  0.00    +0.000 C 
ATOM     19  C   UNL     1       7.406   4.360  11.799  0.00  0.00    +0.000 C 
ENDBRANCH  16  17
ENDBRANCH   9  16
TORSDOF 4
ENDMDL
MODEL 7
REMARK VINA RESULT:      -5.9      3.584      4.639
REMARK  Name = 
REMARK  8 active torsions:
REMARK  status: ('A' for Active; 'I' for Inactive)
REMARK    1  A    between atoms: C_1  and  O_2
REMARK    2  A    between atoms: O_2  and  C_3
REMARK    3  A    between atoms: C_8  and  O_9
REMARK    4  A    between atoms: O_9  and  C_10
REMARK    5  A    between atoms: C_13  and  C_14
REMARK    6  A    between atoms: C_14  and  N_15
REMARK    7  A    between atoms: N_15  and  C_16
REMARK    8  A    between atoms: N_15  and  C_17
REMARK                            x       y       z     vdW  Elec       q    Type
REMARK                         _______ _______ _______ _____ _____    ______ ____
ROOT
ATOM      1  C   UNL     1       4.957   4.946  17.401  0.00  0.00    +0.000 A 
ATOM      2  C   UNL     1       4.734   6.196  16.814  0.00  0.00    +0.000 A 
ATOM      3  C   UNL     1       3.829   7.081  17.389  0.00  0.00    +0.000 A 
ATOM      4  C   UNL     1       3.163   6.728  18.564  0.00  0.00    +0.000 A 
ATOM      5  C   UNL     1       3.384   5.489  19.185  0.00  0.00    +0.000 A 
ATOM      6  C   UNL     1       4.275   4.577  18.588  0.00  0.00    +0.000 A 
ATOM      7  O   UNL     1       2.796   5.180  20.384  0.00  0.00    +0.000 OA
ATOM      8  C   UNL     1       1.620   5.937  20.711  0.00  0.00    +0.000 C 
ATOM      9  C   UNL     1       1.876   7.430  20.616  0.00  0.00    +0.000 C 
ATOM     10  C   UNL     1       2.235   7.696  19.177  0.00  0.00    +0.000 C 
ATOM     11  O   UNL     1       1.847   8.670  18.542  0.00  0.00    +0.000 OA
ENDROOT
BRANCH   1  13
ATOM     12  C   UNL     1       6.160   4.169  15.491  0.00  0.00    +0.000 C 
ATOM     13  O   UNL     1       5.793   3.999  16.853  0.00  0.00    +0.000 OA
ENDBRANCH   1  13
BRANCH   6  14
ATOM     14  O   UNL     1       4.595   3.319  19.040  0.00  0.00    +0.000 OA
ATOM     15  C   UNL     1       3.683   2.249  18.859  0.00  0.00    +0.000 C 
ENDBRANCH   6  14
BRANCH   9  16
ATOM     16  C   UNL     1       0.666   8.280  21.028  0.00  0.00    +0.000 C 
BRANCH  16  17
ATOM     17  N   UNL     1       0.980   9.443  21.885  0.00  0.00    +0.000 NA
ATOM     18  C   UNL     1       0.826  10.713  21.169  0.00  0.00    +0.000 C 
ATOM     19  C   UNL     1       0.090   9.435  23.053  0.00  0.00    +0.000 C 
ENDBRANCH  16  17
ENDBRANCH   9  16
TORSDOF 4
ENDMDL
MODEL 8
REMARK VINA RESULT:      -5.7      1.567      3.016
REMARK  Name = 
REMARK  8 active torsions:
REMARK  status: ('A' for Active; 'I' for Inactive)
REMARK    1  A    between atoms: C_1  and  O_2
REMARK    2  A    between atoms: O_2  and  C_3
REMARK    3  A    between atoms: C_8  and  O_9
REMARK    4  A    between atoms: O_9  and  C_10
REMARK    5  A    between atoms: C_13  and  C_14
REMARK    6  A    between atoms: C_14  and  N_15
REMARK    7  A    between atoms: N_15  and  C_16
REMARK    8  A    between atoms: N_15  and  C_17
REMARK                            x       y       z     vdW  Elec       q    Type
REMARK                         _______ _______ _______ _____ _____    ______ ____
ROOT
ATOM      1  C   UNL     1       7.166   6.357  17.433  0.00  0.00    +0.000 A 
ATOM      2  C   UNL     1       7.272   6.087  18.802  0.00  0.00    +0.000 A 
ATOM      3  C   UNL     1       6.413   5.171  19.397  0.00  0.00    +0.000 A 
ATOM      4  C   UNL     1       5.462   4.504  18.621  0.00  0.00    +0.000 A 
ATOM      5  C   UNL     1       5.349   4.739  17.242  0.00  0.00    +0.000 A 
ATOM      6  C   UNL     1       6.195   5.691  16.643  0.00  0.00    +0.000 A 
ATOM      7  O   UNL     1       4.475   4.021  16.468  0.00  0.00    +0.000 OA
ATOM      8  C   UNL     1       3.388   3.401  17.173  0.00  0.00    +0.000 C 
ATOM      9  C   UNL     1       3.888   2.555  18.331  0.00  0.00    +0.000 C 
ATOM     10  C   UNL     1       4.586   3.509  19.266  0.00  0.00    +0.000 C 
ATOM     11  O   UNL     1       4.500   3.458  20.488  0.00  0.00    +0.000 OA
ENDROOT
BRANCH   1  13
ATOM     12  C   UNL     1       8.120   8.545  17.444  0.00  0.00    +0.000 C 
ATOM     13  O   UNL     1       7.943   7.294  16.791  0.00  0.00    +0.000 OA
ENDBRANCH   1  13
BRANCH   6  14
ATOM     14  O   UNL     1       6.211   6.066  15.319  0.00  0.00    +0.000 OA
ATOM     15  C   UNL     1       6.737   5.185  14.342  0.00  0.00    +0.000 C 
ENDBRANCH   6  14
BRANCH   9  16
ATOM     16  C   UNL     1       2.764   1.814  19.069  0.00  0.00    +0.000 C 
BRANCH  16  17
ATOM     17  N   UNL     1       1.618   2.657  19.470  0.00  0.00    +0.000 NA
ATOM     18  C   UNL     1       0.388   2.286  18.766  0.00  0.00    +0.000 C 
ATOM     19  C   UNL     1       1.405   2.523  20.918  0.00  0.00    +0.000 C 
ENDBRANCH  16  17
ENDBRANCH   9  16
TORSDOF 4
ENDMDL
MODEL 9
REMARK VINA RESULT:      -5.7      4.677      6.229
REMARK  Name = 
REMARK  8 active torsions:
REMARK  status: ('A' for Active; 'I' for Inactive)
REMARK    1  A    between atoms: C_1  and  O_2
REMARK    2  A    between atoms: O_2  and  C_3
REMARK    3  A    between atoms: C_8  and  O_9
REMARK    4  A    between atoms: O_9  and  C_10
REMARK    5  A    between atoms: C_13  and  C_14
REMARK    6  A    between atoms: C_14  and  N_15
REMARK    7  A    between atoms: N_15  and  C_16
REMARK    8  A    between atoms: N_15  and  C_17
REMARK                            x       y       z     vdW  Elec       q    Type
REMARK                         _______ _______ _______ _____ _____    ______ ____
ROOT
ATOM      1  C   UNL     1       1.201   9.882  19.163  0.00  0.00    +0.000 A 
ATOM      2  C   UNL     1       1.879   9.693  17.954  0.00  0.00    +0.000 A 
ATOM      3  C   UNL     1       2.489   8.473  17.685  0.00  0.00    +0.000 A 
ATOM      4  C   UNL     1       2.401   7.433  18.612  0.00  0.00    +0.000 A 
ATOM      5  C   UNL     1       1.709   7.589  19.822  0.00  0.00    +0.000 A 
ATOM      6  C   UNL     1       1.120   8.833  20.114  0.00  0.00    +0.000 A 
ATOM      7  O   UNL     1       1.551   6.541  20.691  0.00  0.00    +0.000 OA
ATOM      8  C   UNL     1       2.497   5.469  20.549  0.00  0.00    +0.000 C 
ATOM      9  C   UNL     1       2.555   4.966  19.117  0.00  0.00    +0.000 C 
ATOM     10  C   UNL     1       3.023   6.136  18.290  0.00  0.00    +0.000 C 
ATOM     11  O   UNL     1       3.824   6.044  17.365  0.00  0.00    +0.000 OA
ENDROOT
BRANCH   1  13
ATOM     12  C   UNL     1       1.505  12.173  19.764  0.00  0.00    +0.000 C 
ATOM     13  O   UNL     1       0.627  11.081  19.521  0.00  0.00    +0.000 OA
ENDBRANCH   1  13
BRANCH   6  14
ATOM     14  O   UNL     1       0.427   9.173  21.252  0.00  0.00    +0.000 OA
ATOM     15  C   UNL     1       1.108   9.281  22.489  0.00  0.00    +0.000 C 
ENDBRANCH   6  14
BRANCH   9  16
ATOM     16  C   UNL     1       3.501   3.771  18.933  0.00  0.00    +0.000 C 
BRANCH  16  17
ATOM     17  N   UNL     1       2.946   2.650  18.145  0.00  0.00    +0.000 NA
ATOM     18  C   UNL     1       3.630   1.386  18.430  0.00  0.00    +0.000 C 
ATOM     19  C   UNL     1       1.517   2.506  18.452  0.00  0.00    +0.000 C 
ENDBRANCH  16  17
ENDBRANCH   9  16
TORSDOF 4
ENDMDL
