MODEL 1
REMARK VINA RESULT:      -7.2      0.000      0.000
REMARK  Name = 
REMARK  1 active torsions:
REMARK  status: ('A' for Active; 'I' for Inactive)
REMARK    1  A    between atoms: N_10  and  C_11
REMARK                            x       y       z     vdW  Elec       q    Type
REMARK                         _______ _______ _______ _____ _____    ______ ____
ROOT
ATOM      1  C   UNL     1       2.582   6.114  18.972  0.00  0.00    +0.000 A 
ATOM      2  N   UNL     1       2.183   7.340  18.516  0.00  0.00    +0.000 NA
ATOM      3  C   UNL     1       1.578   8.212  19.356  0.00  0.00    +0.000 A 
ATOM      4  N   UNL     1       1.254   9.480  18.914  0.00  0.00    +0.000 N 
ATOM      5  C   UNL     1       0.067  10.177  19.402  0.00  0.00    +0.000 C 
ATOM      6  C   UNL     1       0.430  11.269  20.400  0.00  0.00    +0.000 C 
ATOM      7  C   UNL     1       1.501  12.266  19.952  0.00  0.00    +0.000 C 
ATOM      8  N   UNL     1       1.659  12.448  18.505  0.00  0.00    +0.000 NA
ATOM      9  C   UNL     1       2.511  11.382  17.925  0.00  0.00    +0.000 C 
ATOM     10  C   UNL     1       1.832  10.012  17.678  0.00  0.00    +0.000 C 
ATOM     11  C   UNL     1       1.326   7.840  20.676  0.00  0.00    +0.000 A 
ATOM     12  C   UNL     1       1.693   6.584  21.142  0.00  0.00    +0.000 A 
ATOM     13  C   UNL     1       2.331   5.699  20.284  0.00  0.00    +0.000 A 
ATOM     14 CL   UNL     1       2.593   4.096  20.872  0.00  0.00    +0.000 Cl
ATOM     15  H   UNL     1       2.149  13.332  18.361  0.00  0.00    +0.000 HD
ENDROOT
BRANCH   1  25
ATOM     16  O   UNL     1       1.599   3.712  17.406  0.00  0.00    +0.000 OA
ATOM     17  C   UNL     1       2.728   4.172  17.377  0.00  0.00    +0.000 A 
ATOM     18  N   UNL     1       3.791   3.608  16.658  0.00  0.00    +0.000 N 
ATOM     19  C   UNL     1       4.952   4.311  16.933  0.00  0.00    +0.000 A 
ATOM     20  N   UNL     1       6.157   4.050  16.421  0.00  0.00    +0.000 NA
ATOM     21  C   UNL     1       7.121   4.912  16.828  0.00  0.00    +0.000 A 
ATOM     22  C   UNL     1       6.907   5.989  17.698  0.00  0.00    +0.000 A 
ATOM     23  C   UNL     1       5.626   6.215  18.211  0.00  0.00    +0.000 A 
ATOM     24  C   UNL     1       4.639   5.340  17.818  0.00  0.00    +0.000 A 
ATOM     25  N   UNL     1       3.262   5.281  18.071  0.00  0.00    +0.000 N 
ATOM     26  H   UNL     1       3.736   2.792  16.075  0.00  0.00    +0.000 HD
ENDBRANCH   1  25
TORSDOF 1
ENDMDL
MODEL 2
REMARK VINA RESULT:      -6.9      3.546      5.976
REMARK  Name = 
REMARK  1 active torsions:
REMARK  status: ('A' for Active; 'I' for Inactive)
REMARK    1  A    between atoms: N_10  and  C_11
REMARK                            x       y       z     vdW  Elec       q    Type
REMARK                         _______ _______ _______ _____ _____    ______ ____
ROOT
ATOM      1  C   UNL     1       0.654  11.250  19.522  0.00  0.00    +0.000 A 
ATOM      2  N   UNL     1       1.582  12.247  19.645  0.00  0.00    +0.000 NA
ATOM      3  C   UNL     1       1.307  13.490  19.185  0.00  0.00    +0.000 A 
ATOM      4  N   UNL     1       2.211  14.514  19.389  0.00  0.00    +0.000 N 
ATOM      5  C   UNL     1       2.381  15.586  18.412  0.00  0.00    +0.000 C 
ATOM      6  C   UNL     1       1.725  16.878  18.881  0.00  0.00    +0.000 C 
ATOM      7  C   UNL     1       2.101  17.357  20.285  0.00  0.00    +0.000 C 
ATOM      8  N   UNL     1       3.398  16.909  20.802  0.00  0.00    +0.000 NA
ATOM      9  C   UNL     1       3.300  15.543  21.372  0.00  0.00    +0.000 C 
ATOM     10  C   UNL     1       3.298  14.370  20.360  0.00  0.00    +0.000 C 
ATOM     11  C   UNL     1       0.093  13.738  18.548  0.00  0.00    +0.000 A 
ATOM     12  C   UNL     1      -0.843  12.725  18.382  0.00  0.00    +0.000 A 
ATOM     13  C   UNL     1      -0.568  11.457  18.873  0.00  0.00    +0.000 A 
ATOM     14 CL   UNL     1      -1.690  10.206  18.473  0.00  0.00    +0.000 Cl
ATOM     15  H   UNL     1       3.653  17.533  21.568  0.00  0.00    +0.000 HD
ENDROOT
BRANCH   1  25
ATOM     16  O   UNL     1       0.517  10.293  22.395  0.00  0.00    +0.000 OA
ATOM     17  C   UNL     1       0.881   9.632  21.437  0.00  0.00    +0.000 A 
ATOM     18  N   UNL     1       1.373   8.322  21.525  0.00  0.00    +0.000 N 
ATOM     19  C   UNL     1       1.801   7.911  20.274  0.00  0.00    +0.000 A 
ATOM     20  N   UNL     1       2.327   6.718  19.987  0.00  0.00    +0.000 NA
ATOM     21  C   UNL     1       2.631   6.558  18.676  0.00  0.00    +0.000 A 
ATOM     22  C   UNL     1       2.421   7.528  17.687  0.00  0.00    +0.000 A 
ATOM     23  C   UNL     1       1.872   8.764  18.042  0.00  0.00    +0.000 A 
ATOM     24  C   UNL     1       1.571   8.948  19.372  0.00  0.00    +0.000 A 
ATOM     25  N   UNL     1       0.972  10.002  20.077  0.00  0.00    +0.000 N 
ATOM     26  H   UNL     1       1.454   7.782  22.368  0.00  0.00    +0.000 HD
ENDBRANCH   1  25
TORSDOF 1
ENDMDL
MODEL 3
REMARK VINA RESULT:      -6.9      3.221      7.629
REMARK  Name = 
REMARK  1 active torsions:
REMARK  status: ('A' for Active; 'I' for Inactive)
REMARK    1  A    between atoms: N_10  and  C_11
REMARK                            x       y       z     vdW  Elec       q    Type
REMARK                         _______ _______ _______ _____ _____    ______ ____
ROOT
ATOM      1  C   UNL     1       1.529   8.709  19.410  0.00  0.00    +0.000 A 
ATOM      2  N   UNL     1       1.381   7.384  19.714  0.00  0.00    +0.000 NA
ATOM      3  C   UNL     1       2.107   6.452  19.054  0.00  0.00    +0.000 A 
ATOM      4  N   UNL     1       2.019   5.124  19.424  0.00  0.00    +0.000 N 
ATOM      5  C   UNL     1       2.137   4.050  18.441  0.00  0.00    +0.000 C 
ATOM      6  C   UNL     1       3.492   3.361  18.525  0.00  0.00    +0.000 C 
ATOM      7  C   UNL     1       3.920   2.878  19.912  0.00  0.00    +0.000 C 
ATOM      8  N   UNL     1       2.843   2.599  20.867  0.00  0.00    +0.000 NA
ATOM      9  C   UNL     1       2.378   3.845  21.523  0.00  0.00    +0.000 C 
ATOM     10  C   UNL     1       1.417   4.742  20.704  0.00  0.00    +0.000 C 
ATOM     11  C   UNL     1       2.973   6.844  18.035  0.00  0.00    +0.000 A 
ATOM     12  C   UNL     1       3.105   8.183  17.690  0.00  0.00    +0.000 A 
ATOM     13  C   UNL     1       2.375   9.139  18.382  0.00  0.00    +0.000 A 
ATOM     14 CL   UNL     1       2.446  10.758  17.783  0.00  0.00    +0.000 Cl
ATOM     15  H   UNL     1       3.232   2.004  21.600  0.00  0.00    +0.000 HD
ENDROOT
BRANCH   1  25
ATOM     16  O   UNL     1       1.743   9.422  22.348  0.00  0.00    +0.000 OA
ATOM     17  C   UNL     1       0.959   9.907  21.549  0.00  0.00    +0.000 A 
ATOM     18  N   UNL     1      -0.036  10.836  21.886  0.00  0.00    +0.000 N 
ATOM     19  C   UNL     1      -0.818  11.090  20.772  0.00  0.00    +0.000 A 
ATOM     20  N   UNL     1      -1.858  11.926  20.728  0.00  0.00    +0.000 NA
ATOM     21  C   UNL     1      -2.431  12.019  19.503  0.00  0.00    +0.000 A 
ATOM     22  C   UNL     1      -1.996  11.323  18.367  0.00  0.00    +0.000 A 
ATOM     23  C   UNL     1      -0.904  10.455  18.469  0.00  0.00    +0.000 A 
ATOM     24  C   UNL     1      -0.320  10.339  19.709  0.00  0.00    +0.000 A 
ATOM     25  N   UNL     1       0.798   9.631  20.173  0.00  0.00    +0.000 N 
ATOM     26  H   UNL     1      -0.195  11.218  22.801  0.00  0.00    +0.000 HD
ENDBRANCH   1  25
TORSDOF 1
ENDMDL
MODEL 4
REMARK VINA RESULT:      -6.6      2.210      2.878
REMARK  Name = 
REMARK  1 active torsions:
REMARK  status: ('A' for Active; 'I' for Inactive)
REMARK    1  A    between atoms: N_10  and  C_11
REMARK                            x       y       z     vdW  Elec       q    Type
REMARK                         _______ _______ _______ _____ _____    ______ ____
ROOT
ATOM      1  C   UNL     1       4.436   6.546  17.969  0.00  0.00    +0.000 A 
ATOM      2  N   UNL     1       3.681   7.651  17.691  0.00  0.00    +0.000 NA
ATOM      3  C   UNL     1       2.580   7.924  18.429  0.00  0.00    +0.000 A 
ATOM      4  N   UNL     1       1.870   9.087  18.202  0.00  0.00    +0.000 N 
ATOM      5  C   UNL     1       0.420   9.140  18.370  0.00  0.00    +0.000 C 
ATOM      6  C   UNL     1       0.032   9.865  19.652  0.00  0.00    +0.000 C 
ATOM      7  C   UNL     1       0.655  11.246  19.863  0.00  0.00    +0.000 C 
ATOM      8  N   UNL     1       1.070  11.967  18.655  0.00  0.00    +0.000 NA
ATOM      9  C   UNL     1       2.405  11.513  18.197  0.00  0.00    +0.000 C 
ATOM     10  C   UNL     1       2.452  10.177  17.415  0.00  0.00    +0.000 C 
ATOM     11  C   UNL     1       2.195   7.051  19.445  0.00  0.00    +0.000 A 
ATOM     12  C   UNL     1       2.931   5.904  19.714  0.00  0.00    +0.000 A 
ATOM     13  C   UNL     1       4.072   5.637  18.969  0.00  0.00    +0.000 A 
ATOM     14 CL   UNL     1       4.833   4.109  19.230  0.00  0.00    +0.000 Cl
ATOM     15  H   UNL     1       1.160  12.953  18.903  0.00  0.00    +0.000 HD
ENDROOT
BRANCH   1  25
ATOM     16  O   UNL     1       7.132   7.921  18.143  0.00  0.00    +0.000 OA
ATOM     17  C   UNL     1       6.826   7.041  17.356  0.00  0.00    +0.000 A 
ATOM     18  N   UNL     1       7.667   6.568  16.338  0.00  0.00    +0.000 N 
ATOM     19  C   UNL     1       6.973   5.657  15.560  0.00  0.00    +0.000 A 
ATOM     20  N   UNL     1       7.464   5.007  14.503  0.00  0.00    +0.000 NA
ATOM     21  C   UNL     1       6.585   4.143  13.938  0.00  0.00    +0.000 A 
ATOM     22  C   UNL     1       5.279   3.924  14.398  0.00  0.00    +0.000 A 
ATOM     23  C   UNL     1       4.812   4.636  15.507  0.00  0.00    +0.000 A 
ATOM     24  C   UNL     1       5.688   5.527  16.083  0.00  0.00    +0.000 A 
ATOM     25  N   UNL     1       5.601   6.354  17.212  0.00  0.00    +0.000 N 
ATOM     26  H   UNL     1       8.607   6.877  16.164  0.00  0.00    +0.000 HD
ENDBRANCH   1  25
TORSDOF 1
ENDMDL
MODEL 5
REMARK VINA RESULT:      -6.4      6.224      8.894
REMARK  Name = 
REMARK  1 active torsions:
REMARK  status: ('A' for Active; 'I' for Inactive)
REMARK    1  A    between atoms: N_10  and  C_11
REMARK                            x       y       z     vdW  Elec       q    Type
REMARK                         _______ _______ _______ _____ _____    ______ ____
ROOT
ATOM      1  C   UNL     1      -2.369  12.108  19.480  0.00  0.00    +0.000 A 
ATOM      2  N   UNL     1      -2.978  12.689  20.557  0.00  0.00    +0.000 NA
ATOM      3  C   UNL     1      -4.328  12.759  20.616  0.00  0.00    +0.000 A 
ATOM      4  N   UNL     1      -4.942  13.268  21.745  0.00  0.00    +0.000 N 
ATOM      5  C   UNL     1      -6.191  14.018  21.659  0.00  0.00    +0.000 C 
ATOM      6  C   UNL     1      -7.377  13.184  22.123  0.00  0.00    +0.000 C 
ATOM      7  C   UNL     1      -7.238  12.512  23.491  0.00  0.00    +0.000 C 
ATOM      8  N   UNL     1      -6.311  13.143  24.437  0.00  0.00    +0.000 NA
ATOM      9  C   UNL     1      -4.913  12.726  24.169  0.00  0.00    +0.000 C 
ATOM     10  C   UNL     1      -4.193  13.431  22.993  0.00  0.00    +0.000 C 
ATOM     11  C   UNL     1      -5.093  12.275  19.556  0.00  0.00    +0.000 A 
ATOM     12  C   UNL     1      -4.485  11.716  18.439  0.00  0.00    +0.000 A 
ATOM     13  C   UNL     1      -3.101  11.627  18.389  0.00  0.00    +0.000 A 
ATOM     14 CL   UNL     1      -2.408  11.093  16.900  0.00  0.00    +0.000 Cl
ATOM     15  H   UNL     1      -6.549  12.804  25.370  0.00  0.00    +0.000 HD
ENDROOT
BRANCH   1  25
ATOM     16  O   UNL     1      -0.590   9.753  20.176  0.00  0.00    +0.000 OA
ATOM     17  C   UNL     1      -0.211  10.864  19.846  0.00  0.00    +0.000 A 
ATOM     18  N   UNL     1       1.135  11.258  19.807  0.00  0.00    +0.000 N 
ATOM     19  C   UNL     1       1.206  12.607  19.504  0.00  0.00    +0.000 A 
ATOM     20  N   UNL     1       2.331  13.317  19.384  0.00  0.00    +0.000 NA
ATOM     21  C   UNL     1       2.123  14.613  19.046  0.00  0.00    +0.000 A 
ATOM     22  C   UNL     1       0.863  15.186  18.829  0.00  0.00    +0.000 A 
ATOM     23  C   UNL     1      -0.284  14.399  18.973  0.00  0.00    +0.000 A 
ATOM     24  C   UNL     1      -0.091  13.084  19.330  0.00  0.00    +0.000 A 
ATOM     25  N   UNL     1      -0.970  12.007  19.507  0.00  0.00    +0.000 N 
ATOM     26  H   UNL     1       1.923  10.672  20.017  0.00  0.00    +0.000 HD
ENDBRANCH   1  25
TORSDOF 1
ENDMDL
MODEL 6
REMARK VINA RESULT:      -6.4      6.482      9.014
REMARK  Name = 
REMARK  1 active torsions:
REMARK  status: ('A' for Active; 'I' for Inactive)
REMARK    1  A    between atoms: N_10  and  C_11
REMARK                            x       y       z     vdW  Elec       q    Type
REMARK                         _______ _______ _______ _____ _____    ______ ____
ROOT
ATOM      1  C   UNL     1      -0.048  12.196  20.653  0.00  0.00    +0.000 A 
ATOM      2  N   UNL     1       0.688  13.348  20.628  0.00  0.00    +0.000 NA
ATOM      3  C   UNL     1       1.631  13.529  19.674  0.00  0.00    +0.000 A 
ATOM      4  N   UNL     1       2.312  14.729  19.599  0.00  0.00    +0.000 N 
ATOM      5  C   UNL     1       3.706  14.789  19.170  0.00  0.00    +0.000 C 
ATOM      6  C   UNL     1       3.832  15.317  17.748  0.00  0.00    +0.000 C 
ATOM      7  C   UNL     1       3.115  16.635  17.450  0.00  0.00    +0.000 C 
ATOM      8  N   UNL     1       2.879  17.523  18.594  0.00  0.00    +0.000 NA
ATOM      9  C   UNL     1       1.666  17.115  19.343  0.00  0.00    +0.000 C 
ATOM     10  C   UNL     1       1.820  15.913  20.308  0.00  0.00    +0.000 C 
ATOM     11  C   UNL     1       1.878  12.520  18.745  0.00  0.00    +0.000 A 
ATOM     12  C   UNL     1       1.163  11.329  18.783  0.00  0.00    +0.000 A 
ATOM     13  C   UNL     1       0.182  11.154  19.749  0.00  0.00    +0.000 A 
ATOM     14 CL   UNL     1      -0.537   9.587  19.854  0.00  0.00    +0.000 Cl
ATOM     15  H   UNL     1       2.700  18.457  18.223  0.00  0.00    +0.000 HD
ENDROOT
BRANCH   1  25
ATOM     16  O   UNL     1      -0.096  10.668  23.271  0.00  0.00    +0.000 OA
ATOM     17  C   UNL     1      -1.000  11.357  22.827  0.00  0.00    +0.000 A 
ATOM     18  N   UNL     1      -2.256  11.494  23.434  0.00  0.00    +0.000 N 
ATOM     19  C   UNL     1      -3.078  12.250  22.615  0.00  0.00    +0.000 A 
ATOM     20  N   UNL     1      -4.344  12.580  22.879  0.00  0.00    +0.000 NA
ATOM     21  C   UNL     1      -4.914  13.357  21.925  0.00  0.00    +0.000 A 
ATOM     22  C   UNL     1      -4.264  13.796  20.764  0.00  0.00    +0.000 A 
ATOM     23  C   UNL     1      -2.938  13.417  20.534  0.00  0.00    +0.000 A 
ATOM     24  C   UNL     1      -2.350  12.616  21.486  0.00  0.00    +0.000 A 
ATOM     25  N   UNL     1      -1.055  12.096  21.625  0.00  0.00    +0.000 N 
ATOM     26  H   UNL     1      -2.538  11.070  24.300  0.00  0.00    +0.000 HD
ENDBRANCH   1  25
TORSDOF 1
ENDMDL
MODEL 7
REMARK VINA RESULT:      -6.3      8.707     10.465
REMARK  Name = 
REMARK  1 active torsions:
REMARK  status: ('A' for Active; 'I' for Inactive)
REMARK    1  A    between atoms: N_10  and  C_11
REMARK                            x       y       z     vdW  Elec       q    Type
REMARK                         _______ _______ _______ _____ _____    ______ ____
ROOT
ATOM      1  C   UNL     1       8.964  13.369  19.915  0.00  0.00    +0.000 A 
ATOM      2  N   UNL     1       8.207  13.665  21.014  0.00  0.00    +0.000 NA
ATOM      3  C   UNL     1       8.080  12.760  22.013  0.00  0.00    +0.000 A 
ATOM      4  N   UNL     1       7.387  13.095  23.161  0.00  0.00    +0.000 N 
ATOM      5  C   UNL     1       6.613  12.102  23.900  0.00  0.00    +0.000 C 
ATOM      6  C   UNL     1       7.326  11.674  25.176  0.00  0.00    +0.000 C 
ATOM      7  C   UNL     1       7.791  12.801  26.101  0.00  0.00    +0.000 C 
ATOM      8  N   UNL     1       7.061  14.069  26.004  0.00  0.00    +0.000 NA
ATOM      9  C   UNL     1       7.563  14.887  24.873  0.00  0.00    +0.000 C 
ATOM     10  C   UNL     1       7.067  14.493  23.460  0.00  0.00    +0.000 C 
ATOM     11  C   UNL     1       8.688  11.511  21.897  0.00  0.00    +0.000 A 
ATOM     12  C   UNL     1       9.429  11.184  20.768  0.00  0.00    +0.000 A 
ATOM     13  C   UNL     1       9.575  12.121  19.754  0.00  0.00    +0.000 A 
ATOM     14 CL   UNL     1      10.349  11.587  18.305  0.00  0.00    +0.000 Cl
ATOM     15  H   UNL     1       7.248  14.595  26.858  0.00  0.00    +0.000 HD
ENDROOT
BRANCH   1  25
ATOM     16  O   UNL     1       7.153  14.142  17.610  0.00  0.00    +0.000 OA
ATOM     17  C   UNL     1       8.214  14.671  17.894  0.00  0.00    +0.000 A 
ATOM     18  N   UNL     1       8.813  15.691  17.142  0.00  0.00    +0.000 N 
ATOM     19  C   UNL     1      10.057  15.981  17.676  0.00  0.00    +0.000 A 
ATOM     20  N   UNL     1      10.905  16.903  17.212  0.00  0.00    +0.000 NA
ATOM     21  C   UNL     1      12.044  17.011  17.940  0.00  0.00    +0.000 A 
ATOM     22  C   UNL     1      12.333  16.249  19.080  0.00  0.00    +0.000 A 
ATOM     23  C   UNL     1      11.413  15.293  19.521  0.00  0.00    +0.000 A 
ATOM     24  C   UNL     1      10.258  15.161  18.784  0.00  0.00    +0.000 A 
ATOM     25  N   UNL     1       9.110  14.372  18.945  0.00  0.00    +0.000 N 
ATOM     26  H   UNL     1       8.429  16.111  16.314  0.00  0.00    +0.000 HD
ENDBRANCH   1  25
TORSDOF 1
ENDMDL
MODEL 8
REMARK VINA RESULT:      -6.3      1.934      2.502
REMARK  Name = 
REMARK  1 active torsions:
REMARK  status: ('A' for Active; 'I' for Inactive)
REMARK    1  A    between atoms: N_10  and  C_11
REMARK                            x       y       z     vdW  Elec       q    Type
REMARK                         _______ _______ _______ _____ _____    ______ ____
ROOT
ATOM      1  C   UNL     1       4.175   5.789  18.664  0.00  0.00    +0.000 A 
ATOM      2  N   UNL     1       3.609   6.933  18.176  0.00  0.00    +0.000 NA
ATOM      3  C   UNL     1       2.436   7.379  18.683  0.00  0.00    +0.000 A 
ATOM      4  N   UNL     1       1.911   8.581  18.248  0.00  0.00    +0.000 N 
ATOM      5  C   UNL     1       0.470   8.792  18.150  0.00  0.00    +0.000 C 
ATOM      6  C   UNL     1      -0.046   9.665  19.286  0.00  0.00    +0.000 C 
ATOM      7  C   UNL     1       0.684  10.992  19.505  0.00  0.00    +0.000 C 
ATOM      8  N   UNL     1       1.377  11.555  18.341  0.00  0.00    +0.000 NA
ATOM      9  C   UNL     1       2.711  10.932  18.164  0.00  0.00    +0.000 C 
ATOM     10  C   UNL     1       2.738   9.532  17.502  0.00  0.00    +0.000 C 
ATOM     11  C   UNL     1       1.787   6.645  19.674  0.00  0.00    +0.000 A 
ATOM     12  C   UNL     1       2.333   5.460  20.152  0.00  0.00    +0.000 A 
ATOM     13  C   UNL     1       3.546   5.015  19.645  0.00  0.00    +0.000 A 
ATOM     14 CL   UNL     1       4.074   3.450  20.148  0.00  0.00    +0.000 Cl
ATOM     15  H   UNL     1       1.534  12.546  18.530  0.00  0.00    +0.000 HD
ENDROOT
BRANCH   1  25
ATOM     16  O   UNL     1       6.878   5.577  20.021  0.00  0.00    +0.000 OA
ATOM     17  C   UNL     1       6.646   5.341  18.847  0.00  0.00    +0.000 A 
ATOM     18  N   UNL     1       7.625   4.999  17.904  0.00  0.00    +0.000 N 
ATOM     19  C   UNL     1       7.041   4.912  16.651  0.00  0.00    +0.000 A 
ATOM     20  N   UNL     1       7.677   4.605  15.518  0.00  0.00    +0.000 NA
ATOM     21  C   UNL     1       6.864   4.553  14.434  0.00  0.00    +0.000 A 
ATOM     22  C   UNL     1       5.482   4.787  14.465  0.00  0.00    +0.000 A 
ATOM     23  C   UNL     1       4.866   5.111  15.678  0.00  0.00    +0.000 A 
ATOM     24  C   UNL     1       5.681   5.181  16.785  0.00  0.00    +0.000 A 
ATOM     25  N   UNL     1       5.423   5.415  18.143  0.00  0.00    +0.000 N 
ATOM     26  H   UNL     1       8.605   4.886  18.091  0.00  0.00    +0.000 HD
ENDBRANCH   1  25
TORSDOF 1
ENDMDL
MODEL 9
REMARK VINA RESULT:      -6.3      2.506      3.869
REMARK  Name = 
REMARK  1 active torsions:
REMARK  status: ('A' for Active; 'I' for Inactive)
REMARK    1  A    between atoms: N_10  and  C_11
REMARK                            x       y       z     vdW  Elec       q    Type
REMARK                         _______ _______ _______ _____ _____    ______ ____
ROOT
ATOM      1  C   UNL     1       3.269   6.533  18.714  0.00  0.00    +0.000 A 
ATOM      2  N   UNL     1       2.631   7.211  19.715  0.00  0.00    +0.000 NA
ATOM      3  C   UNL     1       2.149   8.456  19.491  0.00  0.00    +0.000 A 
ATOM      4  N   UNL     1       1.430   9.103  20.477  0.00  0.00    +0.000 N 
ATOM      5  C   UNL     1       1.497  10.553  20.642  0.00  0.00    +0.000 C 
ATOM      6  C   UNL     1       0.241  11.234  20.117  0.00  0.00    +0.000 C 
ATOM      7  C   UNL     1      -1.092  10.689  20.634  0.00  0.00    +0.000 C 
ATOM      8  N   UNL     1      -1.059  10.010  21.934  0.00  0.00    +0.000 NA
ATOM      9  C   UNL     1      -0.621   8.601  21.788  0.00  0.00    +0.000 C 
ATOM     10  C   UNL     1       0.901   8.363  21.625  0.00  0.00    +0.000 C 
ATOM     11  C   UNL     1       2.345   9.060  18.250  0.00  0.00    +0.000 A 
ATOM     12  C   UNL     1       3.024   8.397  17.236  0.00  0.00    +0.000 A 
ATOM     13  C   UNL     1       3.499   7.113  17.461  0.00  0.00    +0.000 A 
ATOM     14 CL   UNL     1       4.490   6.420  16.228  0.00  0.00    +0.000 Cl
ATOM     15  H   UNL     1      -2.015   9.989  22.291  0.00  0.00    +0.000 HD
ENDROOT
BRANCH   1  25
ATOM     16  O   UNL     1       6.024   5.454  19.371  0.00  0.00    +0.000 OA
ATOM     17  C   UNL     1       5.000   4.798  19.287  0.00  0.00    +0.000 A 
ATOM     18  N   UNL     1       4.946   3.402  19.410  0.00  0.00    +0.000 N 
ATOM     19  C   UNL     1       3.657   2.971  19.148  0.00  0.00    +0.000 A 
ATOM     20  N   UNL     1       3.242   1.702  19.175  0.00  0.00    +0.000 NA
ATOM     21  C   UNL     1       1.920   1.555  18.914  0.00  0.00    +0.000 A 
ATOM     22  C   UNL     1       1.041   2.612  18.644  0.00  0.00    +0.000 A 
ATOM     23  C   UNL     1       1.528   3.923  18.623  0.00  0.00    +0.000 A 
ATOM     24  C   UNL     1       2.871   4.088  18.871  0.00  0.00    +0.000 A 
ATOM     25  N   UNL     1       3.686   5.222  18.988  0.00  0.00    +0.000 N 
ATOM     26  H   UNL     1       5.727   2.801  19.604  0.00  0.00    +0.000 HD
ENDBRANCH   1  25
TORSDOF 1
ENDMDL
