MODEL 1
REMARK VINA RESULT:      -7.6      0.000      0.000
REMARK  Name = 
REMARK  6 active torsions:
REMARK  status: ('A' for Active; 'I' for Inactive)
REMARK    1  A    between atoms: C_2  and  C_3
REMARK    2  A    between atoms: C_2  and  C_14
REMARK    3  A    between atoms: C_3  and  C_4
REMARK    4  A    between atoms: C_4  and  C_5
REMARK    5  A    between atoms: C_5  and  O_6
REMARK    6  A    between atoms: C_5  and  C_7
REMARK                            x       y       z     vdW  Elec       q    Type
REMARK                         _______ _______ _______ _____ _____    ______ ____
ROOT
ATOM      1  C   UNL     1       2.410   2.997  21.439  0.00  0.00    +0.000 C 
ATOM      2  C   UNL     1       2.194   3.359  20.159  0.00  0.00    +0.000 C 
ENDROOT
BRANCH   2   3
ATOM      3  C   UNL     1       2.772   2.624  18.948  0.00  0.00    +0.000 C 
ATOM      4  C   UNL     1       2.509   3.233  17.565  0.00  0.00    +0.000 C 
ATOM      5  O   UNL     1       3.185   4.486  17.421  0.00  0.00    +0.000 OA
ATOM      6  C   UNL     1       4.584   4.389  17.744  0.00  0.00    +0.000 C 
ATOM      7  C   UNL     1       5.360   3.671  16.626  0.00  0.00    +0.000 C 
ATOM      8  C   UNL     1       5.145   4.378  15.287  0.00  0.00    +0.000 C 
ATOM      9  C   UNL     1       5.589   5.839  15.352  0.00  0.00    +0.000 C 
ATOM     10  C   UNL     1       4.977   6.594  16.531  0.00  0.00    +0.000 C 
ATOM     11  C   UNL     1       5.118   5.828  17.847  0.00  0.00    +0.000 C 
ATOM     12  O   UNL     1       4.804   3.793  19.030  0.00  0.00    +0.000 OA
ATOM     13  O   UNL     1       4.196   2.453  19.041  0.00  0.00    +0.000 OA
ENDBRANCH   2   3
BRANCH   2  14
ATOM     14  C   UNL     1       1.371   4.597  19.863  0.00  0.00    +0.000 C 
BRANCH  14  15
ATOM     15  C   UNL     1       1.825   5.797  20.698  0.00  0.00    +0.000 C 
BRANCH  15  16
ATOM     16  C   UNL     1       2.234   6.996  19.832  0.00  0.00    +0.000 C 
BRANCH  16  17
ATOM     17  C   UNL     1       1.518   8.251  20.299  0.00  0.00    +0.000 A 
ATOM     18  C   UNL     1       1.256   9.278  19.379  0.00  0.00    +0.000 A 
ATOM     19  C   UNL     1       0.664  10.473  19.795  0.00  0.00    +0.000 A 
ATOM     20  C   UNL     1       0.331  10.651  21.135  0.00  0.00    +0.000 A 
ATOM     21 CL   UNL     1      -0.384  12.129  21.650  0.00  0.00    +0.000 Cl
ATOM     22  C   UNL     1       0.580   9.644  22.063  0.00  0.00    +0.000 A 
ATOM     23  C   UNL     1       1.175   8.449  21.646  0.00  0.00    +0.000 A 
ENDBRANCH  16  17
BRANCH  16  24
ATOM     24  O   UNL     1       1.962   6.745  18.456  0.00  0.00    +0.000 OA
ATOM     25  H   UNL     1       2.734   6.284  18.085  0.00  0.00    +0.000 HD
ENDBRANCH  16  24
ENDBRANCH  15  16
ENDBRANCH  14  15
ENDBRANCH   2  14
TORSDOF 6
ENDMDL
MODEL 2
REMARK VINA RESULT:      -7.5      0.584      1.142
REMARK  Name = 
REMARK  6 active torsions:
REMARK  status: ('A' for Active; 'I' for Inactive)
REMARK    1  A    between atoms: C_2  and  C_3
REMARK    2  A    between atoms: C_2  and  C_14
REMARK    3  A    between atoms: C_3  and  C_4
REMARK    4  A    between atoms: C_4  and  C_5
REMARK    5  A    between atoms: C_5  and  O_6
REMARK    6  A    between atoms: C_5  and  C_7
REMARK                            x       y       z     vdW  Elec       q    Type
REMARK                         _______ _______ _______ _____ _____    ______ ____
ROOT
ATOM      1  C   UNL     1       1.500   3.013  21.272  0.00  0.00    +0.000 C 
ATOM      2  C   UNL     1       1.573   3.567  20.046  0.00  0.00    +0.000 C 
ENDROOT
BRANCH   2   3
ATOM      3  C   UNL     1       2.158   2.866  18.819  0.00  0.00    +0.000 C 
ATOM      4  C   UNL     1       2.171   3.649  17.501  0.00  0.00    +0.000 C 
ATOM      5  O   UNL     1       3.063   4.765  17.577  0.00  0.00    +0.000 OA
ATOM      6  C   UNL     1       4.376   4.382  18.024  0.00  0.00    +0.000 C 
ATOM      7  C   UNL     1       5.146   3.650  16.911  0.00  0.00    +0.000 C 
ATOM      8  C   UNL     1       5.216   4.517  15.652  0.00  0.00    +0.000 C 
ATOM      9  C   UNL     1       5.892   5.858  15.938  0.00  0.00    +0.000 C 
ATOM     10  C   UNL     1       5.282   6.589  17.133  0.00  0.00    +0.000 C 
ATOM     11  C   UNL     1       5.132   5.681  18.353  0.00  0.00    +0.000 C 
ATOM     12  O   UNL     1       4.335   3.628  19.244  0.00  0.00    +0.000 OA
ATOM     13  O   UNL     1       3.510   2.428  19.032  0.00  0.00    +0.000 OA
ENDBRANCH   2   3
BRANCH   2  14
ATOM     14  C   UNL     1       1.101   4.992  19.843  0.00  0.00    +0.000 C 
BRANCH  14  15
ATOM     15  C   UNL     1       1.917   5.988  20.673  0.00  0.00    +0.000 C 
BRANCH  15  16
ATOM     16  C   UNL     1       2.212   7.287  19.912  0.00  0.00    +0.000 C 
BRANCH  16  17
ATOM     17  C   UNL     1       1.376   8.425  20.471  0.00  0.00    +0.000 A 
ATOM     18  C   UNL     1       1.067   8.446  21.840  0.00  0.00    +0.000 A 
ATOM     19  C   UNL     1       0.241   9.442  22.368  0.00  0.00    +0.000 A 
ATOM     20  C   UNL     1      -0.284  10.422  21.531  0.00  0.00    +0.000 A 
ATOM     21 CL   UNL     1      -1.314  11.639  22.179  0.00  0.00    +0.000 Cl
ATOM     22  C   UNL     1       0.013  10.421  20.171  0.00  0.00    +0.000 A 
ATOM     23  C   UNL     1       0.838   9.423  19.642  0.00  0.00    +0.000 A 
ENDBRANCH  16  17
BRANCH  16  24
ATOM     24  O   UNL     1       1.970   7.125  18.517  0.00  0.00    +0.000 OA
ATOM     25  H   UNL     1       1.272   7.754  18.267  0.00  0.00    +0.000 HD
ENDBRANCH  16  24
ENDBRANCH  15  16
ENDBRANCH  14  15
ENDBRANCH   2  14
TORSDOF 6
ENDMDL
MODEL 3
REMARK VINA RESULT:      -7.4      1.446      3.963
REMARK  Name = 
REMARK  6 active torsions:
REMARK  status: ('A' for Active; 'I' for Inactive)
REMARK    1  A    between atoms: C_2  and  C_3
REMARK    2  A    between atoms: C_2  and  C_14
REMARK    3  A    between atoms: C_3  and  C_4
REMARK    4  A    between atoms: C_4  and  C_5
REMARK    5  A    between atoms: C_5  and  O_6
REMARK    6  A    between atoms: C_5  and  C_7
REMARK                            x       y       z     vdW  Elec       q    Type
REMARK                         _______ _______ _______ _____ _____    ______ ____
ROOT
ATOM      1  C   UNL     1       4.906   6.510  15.784  0.00  0.00    +0.000 C 
ATOM      2  C   UNL     1       4.823   6.361  17.121  0.00  0.00    +0.000 C 
ENDROOT
BRANCH   2   3
ATOM      3  C   UNL     1       5.279   5.111  17.876  0.00  0.00    +0.000 C 
ATOM      4  C   UNL     1       5.021   5.070  19.387  0.00  0.00    +0.000 C 
ATOM      5  O   UNL     1       3.619   5.012  19.667  0.00  0.00    +0.000 OA
ATOM      6  C   UNL     1       2.966   3.949  18.949  0.00  0.00    +0.000 C 
ATOM      7  C   UNL     1       3.299   2.580  19.567  0.00  0.00    +0.000 C 
ATOM      8  C   UNL     1       2.929   2.560  21.051  0.00  0.00    +0.000 C 
ATOM      9  C   UNL     1       1.445   2.861  21.258  0.00  0.00    +0.000 C 
ATOM     10  C   UNL     1       0.992   4.135  20.547  0.00  0.00    +0.000 C 
ATOM     11  C   UNL     1       1.452   4.181  19.090  0.00  0.00    +0.000 C 
ATOM     12  O   UNL     1       3.244   3.994  17.542  0.00  0.00    +0.000 OA
ATOM     13  O   UNL     1       4.700   3.908  17.344  0.00  0.00    +0.000 OA
ENDBRANCH   2   3
BRANCH   2  14
ATOM     14  C   UNL     1       4.199   7.460  17.956  0.00  0.00    +0.000 C 
BRANCH  14  15
ATOM     15  C   UNL     1       2.679   7.518  17.779  0.00  0.00    +0.000 C 
BRANCH  15  16
ATOM     16  C   UNL     1       2.118   8.934  17.963  0.00  0.00    +0.000 C 
BRANCH  16  17
ATOM     17  C   UNL     1       1.584   9.110  19.373  0.00  0.00    +0.000 A 
ATOM     18  C   UNL     1       1.681   8.048  20.285  0.00  0.00    +0.000 A 
ATOM     19  C   UNL     1       1.134   8.156  21.566  0.00  0.00    +0.000 A 
ATOM     20  C   UNL     1       0.482   9.327  21.944  0.00  0.00    +0.000 A 
ATOM     21 CL   UNL     1      -0.205   9.454  23.516  0.00  0.00    +0.000 Cl
ATOM     22  C   UNL     1       0.377  10.393  21.055  0.00  0.00    +0.000 A 
ATOM     23  C   UNL     1       0.923  10.283  19.772  0.00  0.00    +0.000 A 
ENDBRANCH  16  17
BRANCH  16  24
ATOM     24  O   UNL     1       1.101   9.207  17.003  0.00  0.00    +0.000 OA
ATOM     25  H   UNL     1       1.531   9.269  16.132  0.00  0.00    +0.000 HD
ENDBRANCH  16  24
ENDBRANCH  15  16
ENDBRANCH  14  15
ENDBRANCH   2  14
TORSDOF 6
ENDMDL
MODEL 4
REMARK VINA RESULT:      -7.2      1.554      3.924
REMARK  Name = 
REMARK  6 active torsions:
REMARK  status: ('A' for Active; 'I' for Inactive)
REMARK    1  A    between atoms: C_2  and  C_3
REMARK    2  A    between atoms: C_2  and  C_14
REMARK    3  A    between atoms: C_3  and  C_4
REMARK    4  A    between atoms: C_4  and  C_5
REMARK    5  A    between atoms: C_5  and  O_6
REMARK    6  A    between atoms: C_5  and  C_7
REMARK                            x       y       z     vdW  Elec       q    Type
REMARK                         _______ _______ _______ _____ _____    ______ ____
ROOT
ATOM      1  C   UNL     1       5.094   6.404  15.814  0.00  0.00    +0.000 C 
ATOM      2  C   UNL     1       4.965   6.216  17.142  0.00  0.00    +0.000 C 
ENDROOT
BRANCH   2   3
ATOM      3  C   UNL     1       5.365   4.932  17.871  0.00  0.00    +0.000 C 
ATOM      4  C   UNL     1       5.107   4.873  19.382  0.00  0.00    +0.000 C 
ATOM      5  O   UNL     1       3.704   4.872  19.663  0.00  0.00    +0.000 OA
ATOM      6  C   UNL     1       3.003   3.854  18.925  0.00  0.00    +0.000 C 
ATOM      7  C   UNL     1       3.275   2.459  19.515  0.00  0.00    +0.000 C 
ATOM      8  C   UNL     1       2.905   2.426  20.999  0.00  0.00    +0.000 C 
ATOM      9  C   UNL     1       1.437   2.789  21.215  0.00  0.00    +0.000 C 
ATOM     10  C   UNL     1       1.041   4.097  20.530  0.00  0.00    +0.000 C 
ATOM     11  C   UNL     1       1.501   4.151  19.073  0.00  0.00    +0.000 C 
ATOM     12  O   UNL     1       3.281   3.914  17.519  0.00  0.00    +0.000 OA
ATOM     13  O   UNL     1       4.732   3.768  17.316  0.00  0.00    +0.000 OA
ENDBRANCH   2   3
BRANCH   2  14
ATOM     14  C   UNL     1       4.342   7.305  17.992  0.00  0.00    +0.000 C 
BRANCH  14  15
ATOM     15  C   UNL     1       2.913   7.629  17.547  0.00  0.00    +0.000 C 
BRANCH  15  16
ATOM     16  C   UNL     1       1.955   7.810  18.732  0.00  0.00    +0.000 C 
BRANCH  16  17
ATOM     17  C   UNL     1       1.534   9.264  18.851  0.00  0.00    +0.000 A 
ATOM     18  C   UNL     1       2.164  10.232  18.054  0.00  0.00    +0.000 A 
ATOM     19  C   UNL     1       1.848  11.586  18.194  0.00  0.00    +0.000 A 
ATOM     20  C   UNL     1       0.901  11.982  19.134  0.00  0.00    +0.000 A 
ATOM     21 CL   UNL     1       0.523  13.651  19.317  0.00  0.00    +0.000 Cl
ATOM     22  C   UNL     1       0.262  11.037  19.932  0.00  0.00    +0.000 A 
ATOM     23  C   UNL     1       0.581   9.682  19.794  0.00  0.00    +0.000 A 
ENDBRANCH  16  17
BRANCH  16  24
ATOM     24  O   UNL     1       2.554   7.359  19.944  0.00  0.00    +0.000 OA
ATOM     25  H   UNL     1       2.814   8.147  20.451  0.00  0.00    +0.000 HD
ENDBRANCH  16  24
ENDBRANCH  15  16
ENDBRANCH  14  15
ENDBRANCH   2  14
TORSDOF 6
ENDMDL
MODEL 5
REMARK VINA RESULT:      -7.1      5.739      7.475
REMARK  Name = 
REMARK  6 active torsions:
REMARK  status: ('A' for Active; 'I' for Inactive)
REMARK    1  A    between atoms: C_2  and  C_3
REMARK    2  A    between atoms: C_2  and  C_14
REMARK    3  A    between atoms: C_3  and  C_4
REMARK    4  A    between atoms: C_4  and  C_5
REMARK    5  A    between atoms: C_5  and  O_6
REMARK    6  A    between atoms: C_5  and  C_7
REMARK                            x       y       z     vdW  Elec       q    Type
REMARK                         _______ _______ _______ _____ _____    ______ ____
ROOT
ATOM      1  C   UNL     1       8.279   6.718  19.082  0.00  0.00    +0.000 C 
ATOM      2  C   UNL     1       7.700   7.166  17.950  0.00  0.00    +0.000 C 
ENDROOT
BRANCH   2   3
ATOM      3  C   UNL     1       7.074   6.261  16.888  0.00  0.00    +0.000 C 
ATOM      4  C   UNL     1       6.885   4.782  17.247  0.00  0.00    +0.000 C 
ATOM      5  O   UNL     1       5.914   4.626  18.286  0.00  0.00    +0.000 OA
ATOM      6  C   UNL     1       4.679   5.299  17.981  0.00  0.00    +0.000 C 
ATOM      7  C   UNL     1       3.881   4.531  16.914  0.00  0.00    +0.000 C 
ATOM      8  C   UNL     1       3.634   3.090  17.367  0.00  0.00    +0.000 C 
ATOM      9  C   UNL     1       2.877   3.048  18.693  0.00  0.00    +0.000 C 
ATOM     10  C   UNL     1       3.523   3.911  19.775  0.00  0.00    +0.000 C 
ATOM     11  C   UNL     1       3.850   5.318  19.276  0.00  0.00    +0.000 C 
ATOM     12  O   UNL     1       4.885   6.674  17.623  0.00  0.00    +0.000 OA
ATOM     13  O   UNL     1       5.785   6.730  16.460  0.00  0.00    +0.000 OA
ENDBRANCH   2   3
BRANCH   2  14
ATOM     14  C   UNL     1       7.696   8.651  17.653  0.00  0.00    +0.000 C 
BRANCH  14  15
ATOM     15  C   UNL     1       9.020   9.315  18.041  0.00  0.00    +0.000 C 
BRANCH  15  16
ATOM     16  C   UNL     1       8.831  10.475  19.027  0.00  0.00    +0.000 C 
BRANCH  16  17
ATOM     17  C   UNL     1       9.511  11.728  18.504  0.00  0.00    +0.000 A 
ATOM     18  C   UNL     1       8.909  12.978  18.714  0.00  0.00    +0.000 A 
ATOM     19  C   UNL     1       9.476  14.140  18.182  0.00  0.00    +0.000 A 
ATOM     20  C   UNL     1      10.647  14.059  17.434  0.00  0.00    +0.000 A 
ATOM     21 CL   UNL     1      11.335  15.487  16.766  0.00  0.00    +0.000 Cl
ATOM     22  C   UNL     1      11.261  12.829  17.217  0.00  0.00    +0.000 A 
ATOM     23  C   UNL     1      10.692  11.666  17.747  0.00  0.00    +0.000 A 
ENDBRANCH  16  17
BRANCH  16  24
ATOM     24  O   UNL     1       9.332  10.133  20.317  0.00  0.00    +0.000 OA
ATOM     25  H   UNL     1       8.691   9.528  20.728  0.00  0.00    +0.000 HD
ENDBRANCH  16  24
ENDBRANCH  15  16
ENDBRANCH  14  15
ENDBRANCH   2  14
TORSDOF 6
ENDMDL
MODEL 6
REMARK VINA RESULT:      -7.1      0.998      1.590
REMARK  Name = 
REMARK  6 active torsions:
REMARK  status: ('A' for Active; 'I' for Inactive)
REMARK    1  A    between atoms: C_2  and  C_3
REMARK    2  A    between atoms: C_2  and  C_14
REMARK    3  A    between atoms: C_3  and  C_4
REMARK    4  A    between atoms: C_4  and  C_5
REMARK    5  A    between atoms: C_5  and  O_6
REMARK    6  A    between atoms: C_5  and  C_7
REMARK                            x       y       z     vdW  Elec       q    Type
REMARK                         _______ _______ _______ _____ _____    ______ ____
ROOT
ATOM      1  C   UNL     1       1.436   3.634  18.726  0.00  0.00    +0.000 C 
ATOM      2  C   UNL     1       2.548   3.803  19.468  0.00  0.00    +0.000 C 
ENDROOT
BRANCH   2   3
ATOM      3  C   UNL     1       3.894   3.145  19.163  0.00  0.00    +0.000 C 
ATOM      4  C   UNL     1       4.163   2.735  17.709  0.00  0.00    +0.000 C 
ATOM      5  O   UNL     1       4.270   3.885  16.864  0.00  0.00    +0.000 OA
ATOM      6  C   UNL     1       5.216   4.844  17.370  0.00  0.00    +0.000 C 
ATOM      7  C   UNL     1       6.660   4.362  17.150  0.00  0.00    +0.000 C 
ATOM      8  C   UNL     1       6.905   4.064  15.670  0.00  0.00    +0.000 C 
ATOM      9  C   UNL     1       6.646   5.297  14.804  0.00  0.00    +0.000 C 
ATOM     10  C   UNL     1       5.282   5.933  15.068  0.00  0.00    +0.000 C 
ATOM     11  C   UNL     1       5.016   6.136  16.559  0.00  0.00    +0.000 C 
ATOM     12  O   UNL     1       4.959   5.191  18.738  0.00  0.00    +0.000 OA
ATOM     13  O   UNL     1       5.006   3.967  19.554  0.00  0.00    +0.000 OA
ENDBRANCH   2   3
BRANCH   2  14
ATOM     14  C   UNL     1       2.485   4.652  20.722  0.00  0.00    +0.000 C 
BRANCH  14  15
ATOM     15  C   UNL     1       1.526   5.836  20.562  0.00  0.00    +0.000 C 
BRANCH  15  16
ATOM     16  C   UNL     1       2.227   7.093  20.032  0.00  0.00    +0.000 C 
BRANCH  16  17
ATOM     17  C   UNL     1       1.466   8.338  20.454  0.00  0.00    +0.000 A 
ATOM     18  C   UNL     1       1.059   8.477  21.790  0.00  0.00    +0.000 A 
ATOM     19  C   UNL     1       0.295   9.577  22.191  0.00  0.00    +0.000 A 
ATOM     20  C   UNL     1      -0.069  10.543  21.258  0.00  0.00    +0.000 A 
ATOM     21 CL   UNL     1      -1.023  11.889  21.749  0.00  0.00    +0.000 Cl
ATOM     22  C   UNL     1       0.327  10.425  19.929  0.00  0.00    +0.000 A 
ATOM     23  C   UNL     1       1.089   9.323  19.528  0.00  0.00    +0.000 A 
ENDBRANCH  16  17
BRANCH  16  24
ATOM     24  O   UNL     1       2.360   7.043  18.614  0.00  0.00    +0.000 OA
ATOM     25  H   UNL     1       2.038   6.173  18.322  0.00  0.00    +0.000 HD
ENDBRANCH  16  24
ENDBRANCH  15  16
ENDBRANCH  14  15
ENDBRANCH   2  14
TORSDOF 6
ENDMDL
MODEL 7
REMARK VINA RESULT:      -7.0      1.070      1.515
REMARK  Name = 
REMARK  6 active torsions:
REMARK  status: ('A' for Active; 'I' for Inactive)
REMARK    1  A    between atoms: C_2  and  C_3
REMARK    2  A    between atoms: C_2  and  C_14
REMARK    3  A    between atoms: C_3  and  C_4
REMARK    4  A    between atoms: C_4  and  C_5
REMARK    5  A    between atoms: C_5  and  O_6
REMARK    6  A    between atoms: C_5  and  C_7
REMARK                            x       y       z     vdW  Elec       q    Type
REMARK                         _______ _______ _______ _____ _____    ______ ____
ROOT
ATOM      1  C   UNL     1       1.612   2.538  20.784  0.00  0.00    +0.000 C 
ATOM      2  C   UNL     1       1.872   3.044  19.562  0.00  0.00    +0.000 C 
ENDROOT
BRANCH   2   3
ATOM      3  C   UNL     1       2.700   2.329  18.494  0.00  0.00    +0.000 C 
ATOM      4  C   UNL     1       2.611   2.865  17.059  0.00  0.00    +0.000 C 
ATOM      5  O   UNL     1       3.188   4.171  16.964  0.00  0.00    +0.000 OA
ATOM      6  C   UNL     1       4.519   4.218  17.508  0.00  0.00    +0.000 C 
ATOM      7  C   UNL     1       5.525   3.541  16.561  0.00  0.00    +0.000 C 
ATOM      8  C   UNL     1       5.467   4.181  15.173  0.00  0.00    +0.000 C 
ATOM      9  C   UNL     1       5.764   5.678  15.239  0.00  0.00    +0.000 C 
ATOM     10  C   UNL     1       4.905   6.410  16.270  0.00  0.00    +0.000 C 
ATOM     11  C   UNL     1       4.900   5.704  17.625  0.00  0.00    +0.000 C 
ATOM     12  O   UNL     1       4.581   3.687  18.839  0.00  0.00    +0.000 OA
ATOM     13  O   UNL     1       4.100   2.296  18.817  0.00  0.00    +0.000 OA
ENDBRANCH   2   3
BRANCH   2  14
ATOM     14  C   UNL     1       1.369   4.429  19.207  0.00  0.00    +0.000 C 
BRANCH  14  15
ATOM     15  C   UNL     1       0.992   5.236  20.452  0.00  0.00    +0.000 C 
BRANCH  15  16
ATOM     16  C   UNL     1       2.068   6.259  20.839  0.00  0.00    +0.000 C 
BRANCH  16  17
ATOM     17  C   UNL     1       1.719   7.627  20.280  0.00  0.00    +0.000 A 
ATOM     18  C   UNL     1       0.983   8.526  21.066  0.00  0.00    +0.000 A 
ATOM     19  C   UNL     1       0.586   9.764  20.551  0.00  0.00    +0.000 A 
ATOM     20  C   UNL     1       0.922  10.109  19.245  0.00  0.00    +0.000 A 
ATOM     21 CL   UNL     1       0.420  11.626  18.606  0.00  0.00    +0.000 Cl
ATOM     22  C   UNL     1       1.655   9.233  18.450  0.00  0.00    +0.000 A 
ATOM     23  C   UNL     1       2.049   7.994  18.965  0.00  0.00    +0.000 A 
ENDBRANCH  16  17
BRANCH  16  24
ATOM     24  O   UNL     1       3.352   5.843  20.384  0.00  0.00    +0.000 OA
ATOM     25  H   UNL     1       3.324   4.877  20.273  0.00  0.00    +0.000 HD
ENDBRANCH  16  24
ENDBRANCH  15  16
ENDBRANCH  14  15
ENDBRANCH   2  14
TORSDOF 6
ENDMDL
MODEL 8
REMARK VINA RESULT:      -7.0      1.234      1.438
REMARK  Name = 
REMARK  6 active torsions:
REMARK  status: ('A' for Active; 'I' for Inactive)
REMARK    1  A    between atoms: C_2  and  C_3
REMARK    2  A    between atoms: C_2  and  C_14
REMARK    3  A    between atoms: C_3  and  C_4
REMARK    4  A    between atoms: C_4  and  C_5
REMARK    5  A    between atoms: C_5  and  O_6
REMARK    6  A    between atoms: C_5  and  C_7
REMARK                            x       y       z     vdW  Elec       q    Type
REMARK                         _______ _______ _______ _____ _____    ______ ____
ROOT
ATOM      1  C   UNL     1       1.851   3.489  21.346  0.00  0.00    +0.000 C 
ATOM      2  C   UNL     1       2.168   4.334  20.345  0.00  0.00    +0.000 C 
ENDROOT
BRANCH   2   3
ATOM      3  C   UNL     1       2.206   3.940  18.868  0.00  0.00    +0.000 C 
ATOM      4  C   UNL     1       2.550   5.040  17.855  0.00  0.00    +0.000 C 
ATOM      5  O   UNL     1       3.903   5.476  18.014  0.00  0.00    +0.000 OA
ATOM      6  C   UNL     1       4.833   4.378  18.000  0.00  0.00    +0.000 C 
ATOM      7  C   UNL     1       5.019   3.831  16.574  0.00  0.00    +0.000 C 
ATOM      8  C   UNL     1       5.460   4.947  15.626  0.00  0.00    +0.000 C 
ATOM      9  C   UNL     1       6.765   5.590  16.094  0.00  0.00    +0.000 C 
ATOM     10  C   UNL     1       6.719   6.032  17.556  0.00  0.00    +0.000 C 
ATOM     11  C   UNL     1       6.186   4.934  18.477  0.00  0.00    +0.000 C 
ATOM     12  O   UNL     1       4.475   3.351  18.936  0.00  0.00    +0.000 OA
ATOM     13  O   UNL     1       3.124   2.865  18.611  0.00  0.00    +0.000 OA
ENDBRANCH   2   3
BRANCH   2  14
ATOM     14  C   UNL     1       2.566   5.759  20.670  0.00  0.00    +0.000 C 
BRANCH  14  15
ATOM     15  C   UNL     1       1.357   6.699  20.690  0.00  0.00    +0.000 C 
BRANCH  15  16
ATOM     16  C   UNL     1       1.743   8.161  20.427  0.00  0.00    +0.000 C 
BRANCH  16  17
ATOM     17  C   UNL     1       0.759   9.096  21.106  0.00  0.00    +0.000 A 
ATOM     18  C   UNL     1       0.182  10.143  20.370  0.00  0.00    +0.000 A 
ATOM     19  C   UNL     1      -0.671  11.062  20.987  0.00  0.00    +0.000 A 
ATOM     20  C   UNL     1      -0.952  10.942  22.346  0.00  0.00    +0.000 A 
ATOM     21 CL   UNL     1      -1.990  12.083  23.108  0.00  0.00    +0.000 Cl
ATOM     22  C   UNL     1      -0.392   9.909  23.092  0.00  0.00    +0.000 A 
ATOM     23  C   UNL     1       0.464   8.992  22.475  0.00  0.00    +0.000 A 
ENDBRANCH  16  17
BRANCH  16  24
ATOM     24  O   UNL     1       1.805   8.426  19.028  0.00  0.00    +0.000 OA
ATOM     25  H   UNL     1       1.395   9.296  18.878  0.00  0.00    +0.000 HD
ENDBRANCH  16  24
ENDBRANCH  15  16
ENDBRANCH  14  15
ENDBRANCH   2  14
TORSDOF 6
ENDMDL
MODEL 9
REMARK VINA RESULT:      -6.9      3.966      7.226
REMARK  Name = 
REMARK  6 active torsions:
REMARK  status: ('A' for Active; 'I' for Inactive)
REMARK    1  A    between atoms: C_2  and  C_3
REMARK    2  A    between atoms: C_2  and  C_14
REMARK    3  A    between atoms: C_3  and  C_4
REMARK    4  A    between atoms: C_4  and  C_5
REMARK    5  A    between atoms: C_5  and  O_6
REMARK    6  A    between atoms: C_5  and  C_7
REMARK                            x       y       z     vdW  Elec       q    Type
REMARK                         _______ _______ _______ _____ _____    ______ ____
ROOT
ATOM      1  C   UNL     1       4.787   7.168  16.213  0.00  0.00    +0.000 C 
ATOM      2  C   UNL     1       4.839   6.876  17.527  0.00  0.00    +0.000 C 
ENDROOT
BRANCH   2   3
ATOM      3  C   UNL     1       3.615   6.797  18.440  0.00  0.00    +0.000 C 
ATOM      4  C   UNL     1       2.365   6.105  17.882  0.00  0.00    +0.000 C 
ATOM      5  O   UNL     1       2.598   4.707  17.686  0.00  0.00    +0.000 OA
ATOM      6  C   UNL     1       3.121   4.073  18.867  0.00  0.00    +0.000 C 
ATOM      7  C   UNL     1       2.022   3.893  19.928  0.00  0.00    +0.000 C 
ATOM      8  C   UNL     1       0.843   3.109  19.350  0.00  0.00    +0.000 C 
ATOM      9  C   UNL     1       1.284   1.737  18.841  0.00  0.00    +0.000 C 
ATOM     10  C   UNL     1       2.477   1.811  17.889  0.00  0.00    +0.000 C 
ATOM     11  C   UNL     1       3.608   2.676  18.443  0.00  0.00    +0.000 C 
ATOM     12  O   UNL     1       4.273   4.754  19.384  0.00  0.00    +0.000 OA
ATOM     13  O   UNL     1       3.903   6.145  19.688  0.00  0.00    +0.000 OA
ENDBRANCH   2   3
BRANCH   2  14
ATOM     14  C   UNL     1       6.185   6.656  18.188  0.00  0.00    +0.000 C 
BRANCH  14  15
ATOM     15  C   UNL     1       7.290   6.396  17.161  0.00  0.00    +0.000 C 
BRANCH  15  16
ATOM     16  C   UNL     1       7.494   4.901  16.881  0.00  0.00    +0.000 C 
BRANCH  16  17
ATOM     17  C   UNL     1       6.858   4.523  15.555  0.00  0.00    +0.000 A 
ATOM     18  C   UNL     1       5.669   3.776  15.548  0.00  0.00    +0.000 A 
ATOM     19  C   UNL     1       5.101   3.353  14.344  0.00  0.00    +0.000 A 
ATOM     20  C   UNL     1       5.719   3.670  13.138  0.00  0.00    +0.000 A 
ATOM     21 CL   UNL     1       5.027   3.135  11.656  0.00  0.00    +0.000 Cl
ATOM     22  C   UNL     1       6.896   4.412  13.123  0.00  0.00    +0.000 A 
ATOM     23  C   UNL     1       7.466   4.834  14.328  0.00  0.00    +0.000 A 
ENDBRANCH  16  17
BRANCH  16  24
ATOM     24  O   UNL     1       6.959   4.108  17.938  0.00  0.00    +0.000 OA
ATOM     25  H   UNL     1       6.766   4.705  18.681  0.00  0.00    +0.000 HD
ENDBRANCH  16  24
ENDBRANCH  15  16
ENDBRANCH  14  15
ENDBRANCH   2  14
TORSDOF 6
ENDMDL
