MODEL 1
REMARK VINA RESULT:      -7.4      0.000      0.000
REMARK  Name = 
REMARK  3 active torsions:
REMARK  status: ('A' for Active; 'I' for Inactive)
REMARK    1  A    between atoms: N_7  and  C_8
REMARK    2  A    between atoms: C_8  and  C_9
REMARK    3  A    between atoms: C_22  and  C_23
REMARK                            x       y       z     vdW  Elec       q    Type
REMARK                         _______ _______ _______ _____ _____    ______ ____
ROOT
ATOM      1  C   UNL     1      -1.621  12.942  21.022  0.00  0.00    +0.000 C 
ATOM      2  O   UNL     1      -2.352  13.776  20.463  0.00  0.00    +0.000 OA
ATOM      3  N   UNL     1      -1.382  11.671  20.465  0.00  0.00    +0.000 N 
ATOM      4  C   UNL     1      -0.471  10.662  20.949  0.00  0.00    +0.000 A 
ATOM      5  C   UNL     1      -0.382  10.351  22.314  0.00  0.00    +0.000 A 
ATOM      6  C   UNL     1       0.431   9.307  22.782  0.00  0.00    +0.000 A 
ATOM      7  C   UNL     1       1.169   8.536  21.892  0.00  0.00    +0.000 A 
ATOM      8  C   UNL     1       1.095   8.814  20.533  0.00  0.00    +0.000 A 
ATOM      9  C   UNL     1       0.283   9.858  20.064  0.00  0.00    +0.000 A 
ATOM     10  S   UNL     1       0.262  10.123  18.306  0.00  0.00    +0.000 S 
ATOM     11  C   UNL     1      -1.416  10.672  18.169  0.00  0.00    +0.000 A 
ATOM     12  C   UNL     1      -2.082  10.458  16.953  0.00  0.00    +0.000 A 
ATOM     13  C   UNL     1      -3.387  10.913  16.763  0.00  0.00    +0.000 A 
ATOM     14  C   UNL     1      -4.055  11.570  17.797  0.00  0.00    +0.000 A 
ATOM     15  C   UNL     1      -3.388  11.759  19.017  0.00  0.00    +0.000 A 
ATOM     16  C   UNL     1      -2.052  11.356  19.216  0.00  0.00    +0.000 A 
ENDROOT
BRANCH  14  17
ATOM     17  C   UNL     1      -5.457  12.102  17.631  0.00  0.00    +0.000 C 
ATOM     18  F   UNL     1      -5.640  12.785  16.465  0.00  0.00    +0.000 F 
ATOM     19  F   UNL     1      -6.393  11.113  17.631  0.00  0.00    +0.000 F 
ATOM     20  F   UNL     1      -5.814  12.962  18.623  0.00  0.00    +0.000 F 
ENDBRANCH  14  17
BRANCH   1  21
ATOM     21  C   UNL     1      -0.927  13.432  22.290  0.00  0.00    +0.000 C 
BRANCH  21  28
ATOM     22  O   UNL     1      -3.320  12.176  23.343  0.00  0.00    +0.000 OA
ATOM     23  C   UNL     1      -2.894  13.241  23.749  0.00  0.00    +0.000 C 
ATOM     24  C   UNL     1      -3.447  13.947  24.907  0.00  0.00    +0.000 C 
ATOM     25  C   UNL     1      -2.614  14.950  25.194  0.00  0.00    +0.000 C 
ATOM     26  C   UNL     1      -1.509  14.894  24.231  0.00  0.00    +0.000 C 
ATOM     27  O   UNL     1      -0.512  15.576  24.347  0.00  0.00    +0.000 OA
ATOM     28  N   UNL     1      -1.835  13.961  23.297  0.00  0.00    +0.000 N 
ENDBRANCH  21  28
ENDBRANCH   1  21
TORSDOF 3
ENDMDL
MODEL 2
REMARK VINA RESULT:      -7.4      0.404      1.389
REMARK  Name = 
REMARK  3 active torsions:
REMARK  status: ('A' for Active; 'I' for Inactive)
REMARK    1  A    between atoms: N_7  and  C_8
REMARK    2  A    between atoms: C_8  and  C_9
REMARK    3  A    between atoms: C_22  and  C_23
REMARK                            x       y       z     vdW  Elec       q    Type
REMARK                         _______ _______ _______ _____ _____    ______ ____
ROOT
ATOM      1  C   UNL     1      -1.640  12.975  21.000  0.00  0.00    +0.000 C 
ATOM      2  O   UNL     1      -2.374  13.801  20.431  0.00  0.00    +0.000 OA
ATOM      3  N   UNL     1      -1.400  11.697  20.458  0.00  0.00    +0.000 N 
ATOM      4  C   UNL     1      -0.488  10.695  20.953  0.00  0.00    +0.000 A 
ATOM      5  C   UNL     1      -0.396  10.401  22.322  0.00  0.00    +0.000 A 
ATOM      6  C   UNL     1       0.419   9.364  22.802  0.00  0.00    +0.000 A 
ATOM      7  C   UNL     1       1.157   8.583  21.920  0.00  0.00    +0.000 A 
ATOM      8  C   UNL     1       1.081   8.845  20.558  0.00  0.00    +0.000 A 
ATOM      9  C   UNL     1       0.266   9.882  20.077  0.00  0.00    +0.000 A 
ATOM     10  S   UNL     1       0.243  10.125  18.316  0.00  0.00    +0.000 S 
ATOM     11  C   UNL     1      -1.437  10.670  18.174  0.00  0.00    +0.000 A 
ATOM     12  C   UNL     1      -2.104  10.440  16.962  0.00  0.00    +0.000 A 
ATOM     13  C   UNL     1      -3.409  10.891  16.768  0.00  0.00    +0.000 A 
ATOM     14  C   UNL     1      -4.077  11.559  17.795  0.00  0.00    +0.000 A 
ATOM     15  C   UNL     1      -3.409  11.764  19.012  0.00  0.00    +0.000 A 
ATOM     16  C   UNL     1      -2.072  11.366  19.214  0.00  0.00    +0.000 A 
ENDROOT
BRANCH  14  17
ATOM     17  C   UNL     1      -5.480  12.088  17.624  0.00  0.00    +0.000 C 
ATOM     18  F   UNL     1      -5.669  12.744  16.444  0.00  0.00    +0.000 F 
ATOM     19  F   UNL     1      -6.415  11.099  17.651  0.00  0.00    +0.000 F 
ATOM     20  F   UNL     1      -5.832  12.969  18.598  0.00  0.00    +0.000 F 
ENDBRANCH  14  17
BRANCH   1  21
ATOM     21  C   UNL     1      -0.946  13.481  22.260  0.00  0.00    +0.000 C 
BRANCH  21  28
ATOM     22  O   UNL     1      -1.546  16.157  23.205  0.00  0.00    +0.000 OA
ATOM     23  C   UNL     1      -2.096  15.161  23.635  0.00  0.00    +0.000 C 
ATOM     24  C   UNL     1      -3.221  15.197  24.572  0.00  0.00    +0.000 C 
ATOM     25  C   UNL     1      -3.705  13.956  24.657  0.00  0.00    +0.000 C 
ATOM     26  C   UNL     1      -2.904  13.109  23.767  0.00  0.00    +0.000 C 
ATOM     27  O   UNL     1      -3.215  11.964  23.506  0.00  0.00    +0.000 OA
ATOM     28  N   UNL     1      -1.858  13.859  23.329  0.00  0.00    +0.000 N 
ENDBRANCH  21  28
ENDBRANCH   1  21
TORSDOF 3
ENDMDL
MODEL 3
REMARK VINA RESULT:      -7.2      3.305      5.376
REMARK  Name = 
REMARK  3 active torsions:
REMARK  status: ('A' for Active; 'I' for Inactive)
REMARK    1  A    between atoms: N_7  and  C_8
REMARK    2  A    between atoms: C_8  and  C_9
REMARK    3  A    between atoms: C_22  and  C_23
REMARK                            x       y       z     vdW  Elec       q    Type
REMARK                         _______ _______ _______ _____ _____    ______ ____
ROOT
ATOM      1  C   UNL     1      -2.794  12.773  20.341  0.00  0.00    +0.000 C 
ATOM      2  O   UNL     1      -3.119  13.448  21.332  0.00  0.00    +0.000 OA
ATOM      3  N   UNL     1      -3.754  12.179  19.500  0.00  0.00    +0.000 N 
ATOM      4  C   UNL     1      -3.516  11.474  18.263  0.00  0.00    +0.000 A 
ATOM      5  C   UNL     1      -2.473  10.543  18.141  0.00  0.00    +0.000 A 
ATOM      6  C   UNL     1      -2.293   9.785  16.973  0.00  0.00    +0.000 A 
ATOM      7  C   UNL     1      -3.163   9.930  15.899  0.00  0.00    +0.000 A 
ATOM      8  C   UNL     1      -4.209  10.838  15.993  0.00  0.00    +0.000 A 
ATOM      9  C   UNL     1      -4.391  11.597  17.160  0.00  0.00    +0.000 A 
ATOM     10  S   UNL     1      -5.765  12.725  17.172  0.00  0.00    +0.000 S 
ATOM     11  C   UNL     1      -6.145  12.616  18.898  0.00  0.00    +0.000 A 
ATOM     12  C   UNL     1      -7.468  12.858  19.298  0.00  0.00    +0.000 A 
ATOM     13  C   UNL     1      -7.822  12.839  20.647  0.00  0.00    +0.000 A 
ATOM     14  C   UNL     1      -6.860  12.556  21.617  0.00  0.00    +0.000 A 
ATOM     15  C   UNL     1      -5.545  12.293  21.206  0.00  0.00    +0.000 A 
ATOM     16  C   UNL     1      -5.151  12.358  19.854  0.00  0.00    +0.000 A 
ENDROOT
BRANCH  14  17
ATOM     17  C   UNL     1      -7.189  12.549  23.089  0.00  0.00    +0.000 C 
ATOM     18  F   UNL     1      -7.916  11.463  23.476  0.00  0.00    +0.000 F 
ATOM     19  F   UNL     1      -6.075  12.546  23.872  0.00  0.00    +0.000 F 
ATOM     20  F   UNL     1      -7.915  13.635  23.471  0.00  0.00    +0.000 F 
ENDBRANCH  14  17
BRANCH   1  21
ATOM     21  C   UNL     1      -1.297  12.727  20.049  0.00  0.00    +0.000 C 
BRANCH  21  28
ATOM     22  O   UNL     1       0.813  11.194  18.782  0.00  0.00    +0.000 OA
ATOM     23  C   UNL     1       0.394  10.951  19.898  0.00  0.00    +0.000 C 
ATOM     24  C   UNL     1       0.993   9.957  20.791  0.00  0.00    +0.000 C 
ATOM     25  C   UNL     1       0.425  10.108  21.988  0.00  0.00    +0.000 C 
ATOM     26  C   UNL     1      -0.539  11.209  21.884  0.00  0.00    +0.000 C 
ATOM     27  O   UNL     1      -1.085  11.688  22.857  0.00  0.00    +0.000 OA
ATOM     28  N   UNL     1      -0.628  11.544  20.569  0.00  0.00    +0.000 N 
ENDBRANCH  21  28
ENDBRANCH   1  21
TORSDOF 3
ENDMDL
MODEL 4
REMARK VINA RESULT:      -7.1      3.972      6.362
REMARK  Name = 
REMARK  3 active torsions:
REMARK  status: ('A' for Active; 'I' for Inactive)
REMARK    1  A    between atoms: N_7  and  C_8
REMARK    2  A    between atoms: C_8  and  C_9
REMARK    3  A    between atoms: C_22  and  C_23
REMARK                            x       y       z     vdW  Elec       q    Type
REMARK                         _______ _______ _______ _____ _____    ______ ____
ROOT
ATOM      1  C   UNL     1      -0.794  11.915  18.461  0.00  0.00    +0.000 C 
ATOM      2  O   UNL     1      -0.751  12.882  17.682  0.00  0.00    +0.000 OA
ATOM      3  N   UNL     1      -0.330  12.008  19.787  0.00  0.00    +0.000 N 
ATOM      4  C   UNL     1      -0.427  11.004  20.819  0.00  0.00    +0.000 A 
ATOM      5  C   UNL     1      -0.147   9.655  20.556  0.00  0.00    +0.000 A 
ATOM      6  C   UNL     1      -0.148   8.688  21.574  0.00  0.00    +0.000 A 
ATOM      7  C   UNL     1      -0.416   9.051  22.888  0.00  0.00    +0.000 A 
ATOM      8  C   UNL     1      -0.690  10.381  23.182  0.00  0.00    +0.000 A 
ATOM      9  C   UNL     1      -0.690  11.348  22.164  0.00  0.00    +0.000 A 
ATOM     10  S   UNL     1      -1.049  13.019  22.654  0.00  0.00    +0.000 S 
ATOM     11  C   UNL     1      -0.022  13.839  21.467  0.00  0.00    +0.000 A 
ATOM     12  C   UNL     1       0.485  15.105  21.796  0.00  0.00    +0.000 A 
ATOM     13  C   UNL     1       1.256  15.826  20.885  0.00  0.00    +0.000 A 
ATOM     14  C   UNL     1       1.553  15.280  19.635  0.00  0.00    +0.000 A 
ATOM     15  C   UNL     1       1.060  14.004  19.324  0.00  0.00    +0.000 A 
ATOM     16  C   UNL     1       0.234  13.278  20.207  0.00  0.00    +0.000 A 
ENDROOT
BRANCH  14  17
ATOM     17  C   UNL     1       2.361  16.032  18.607  0.00  0.00    +0.000 C 
ATOM     18  F   UNL     1       3.344  16.804  19.152  0.00  0.00    +0.000 F 
ATOM     19  F   UNL     1       2.987  15.201  17.729  0.00  0.00    +0.000 F 
ATOM     20  F   UNL     1       1.603  16.875  17.855  0.00  0.00    +0.000 F 
ENDBRANCH  14  17
BRANCH   1  21
ATOM     21  C   UNL     1      -1.474  10.666  17.909  0.00  0.00    +0.000 C 
BRANCH  21  28
ATOM     22  O   UNL     1      -3.626  11.876  19.431  0.00  0.00    +0.000 OA
ATOM     23  C   UNL     1      -3.750  11.515  18.276  0.00  0.00    +0.000 C 
ATOM     24  C   UNL     1      -4.945  11.774  17.470  0.00  0.00    +0.000 C 
ATOM     25  C   UNL     1      -4.654  11.437  16.212  0.00  0.00    +0.000 C 
ATOM     26  C   UNL     1      -3.264  10.968  16.192  0.00  0.00    +0.000 C 
ATOM     27  O   UNL     1      -2.666  10.754  15.156  0.00  0.00    +0.000 OA
ATOM     28  N   UNL     1      -2.850  10.878  17.484  0.00  0.00    +0.000 N 
ENDBRANCH  21  28
ENDBRANCH   1  21
TORSDOF 3
ENDMDL
MODEL 5
REMARK VINA RESULT:      -7.1      2.925      5.552
REMARK  Name = 
REMARK  3 active torsions:
REMARK  status: ('A' for Active; 'I' for Inactive)
REMARK    1  A    between atoms: N_7  and  C_8
REMARK    2  A    between atoms: C_8  and  C_9
REMARK    3  A    between atoms: C_22  and  C_23
REMARK                            x       y       z     vdW  Elec       q    Type
REMARK                         _______ _______ _______ _____ _____    ______ ____
ROOT
ATOM      1  C   UNL     1      -0.510  10.986  19.433  0.00  0.00    +0.000 C 
ATOM      2  O   UNL     1      -1.227  10.120  18.906  0.00  0.00    +0.000 OA
ATOM      3  N   UNL     1      -1.055  12.129  20.049  0.00  0.00    +0.000 N 
ATOM      4  C   UNL     1      -0.346  13.144  20.792  0.00  0.00    +0.000 A 
ATOM      5  C   UNL     1       0.871  13.670  20.333  0.00  0.00    +0.000 A 
ATOM      6  C   UNL     1       1.518  14.722  21.000  0.00  0.00    +0.000 A 
ATOM      7  C   UNL     1       0.956  15.286  22.139  0.00  0.00    +0.000 A 
ATOM      8  C   UNL     1      -0.253  14.791  22.613  0.00  0.00    +0.000 A 
ATOM      9  C   UNL     1      -0.901  13.739  21.948  0.00  0.00    +0.000 A 
ATOM     10  S   UNL     1      -2.443  13.188  22.640  0.00  0.00    +0.000 S 
ATOM     11  C   UNL     1      -3.235  12.734  21.122  0.00  0.00    +0.000 A 
ATOM     12  C   UNL     1      -4.636  12.786  21.069  0.00  0.00    +0.000 A 
ATOM     13  C   UNL     1      -5.322  12.391  19.921  0.00  0.00    +0.000 A 
ATOM     14  C   UNL     1      -4.616  11.960  18.798  0.00  0.00    +0.000 A 
ATOM     15  C   UNL     1      -3.214  11.933  18.853  0.00  0.00    +0.000 A 
ATOM     16  C   UNL     1      -2.499  12.276  20.019  0.00  0.00    +0.000 A 
ENDROOT
BRANCH  14  17
ATOM     17  C   UNL     1      -5.314  11.499  17.543  0.00  0.00    +0.000 C 
ATOM     18  F   UNL     1      -4.526  10.736  16.734  0.00  0.00    +0.000 F 
ATOM     19  F   UNL     1      -6.414  10.741  17.808  0.00  0.00    +0.000 F 
ATOM     20  F   UNL     1      -5.745  12.533  16.771  0.00  0.00    +0.000 F 
ENDBRANCH  14  17
BRANCH   1  21
ATOM     21  C   UNL     1       0.983  10.669  19.453  0.00  0.00    +0.000 C 
BRANCH  21  28
ATOM     22  O   UNL     1       2.228   9.233  17.263  0.00  0.00    +0.000 OA
ATOM     23  C   UNL     1       1.932   8.707  18.320  0.00  0.00    +0.000 C 
ATOM     24  C   UNL     1       2.295   7.333  18.671  0.00  0.00    +0.000 C 
ATOM     25  C   UNL     1       2.006   7.166  19.964  0.00  0.00    +0.000 C 
ATOM     26  C   UNL     1       1.466   8.435  20.462  0.00  0.00    +0.000 C 
ATOM     27  O   UNL     1       1.272   8.639  21.644  0.00  0.00    +0.000 OA
ATOM     28  N   UNL     1       1.289   9.248  19.387  0.00  0.00    +0.000 N 
ENDBRANCH  21  28
ENDBRANCH   1  21
TORSDOF 3
ENDMDL
MODEL 6
REMARK VINA RESULT:      -7.1      4.087      6.478
REMARK  Name = 
REMARK  3 active torsions:
REMARK  status: ('A' for Active; 'I' for Inactive)
REMARK    1  A    between atoms: N_7  and  C_8
REMARK    2  A    between atoms: C_8  and  C_9
REMARK    3  A    between atoms: C_22  and  C_23
REMARK                            x       y       z     vdW  Elec       q    Type
REMARK                         _______ _______ _______ _____ _____    ______ ____
ROOT
ATOM      1  C   UNL     1      -0.598  12.382  18.624  0.00  0.00    +0.000 C 
ATOM      2  O   UNL     1      -0.498  13.412  17.936  0.00  0.00    +0.000 OA
ATOM      3  N   UNL     1      -0.205  12.351  19.976  0.00  0.00    +0.000 N 
ATOM      4  C   UNL     1      -0.372  11.264  20.910  0.00  0.00    +0.000 A 
ATOM      5  C   UNL     1      -0.100   9.937  20.545  0.00  0.00    +0.000 A 
ATOM      6  C   UNL     1      -0.170   8.886  21.474  0.00  0.00    +0.000 A 
ATOM      7  C   UNL     1      -0.503   9.139  22.799  0.00  0.00    +0.000 A 
ATOM      8  C   UNL     1      -0.771  10.444  23.193  0.00  0.00    +0.000 A 
ATOM      9  C   UNL     1      -0.702  11.495  22.265  0.00  0.00    +0.000 A 
ATOM     10  S   UNL     1      -1.061  13.125  22.880  0.00  0.00    +0.000 S 
ATOM     11  C   UNL     1       0.041  14.024  21.823  0.00  0.00    +0.000 A 
ATOM     12  C   UNL     1       0.549  15.246  22.288  0.00  0.00    +0.000 A 
ATOM     13  C   UNL     1       1.379  16.027  21.484  0.00  0.00    +0.000 A 
ATOM     14  C   UNL     1       1.734  15.586  20.209  0.00  0.00    +0.000 A 
ATOM     15  C   UNL     1       1.239  14.351  19.762  0.00  0.00    +0.000 A 
ATOM     16  C   UNL     1       0.356  13.569  20.534  0.00  0.00    +0.000 A 
ENDROOT
BRANCH  14  17
ATOM     17  C   UNL     1       2.607  16.407  19.294  0.00  0.00    +0.000 C 
ATOM     18  F   UNL     1       3.895  16.512  19.729  0.00  0.00    +0.000 F 
ATOM     19  F   UNL     1       2.682  15.885  18.039  0.00  0.00    +0.000 F 
ATOM     20  F   UNL     1       2.161  17.684  19.147  0.00  0.00    +0.000 F 
ENDBRANCH  14  17
BRANCH   1  21
ATOM     21  C   UNL     1      -1.267  11.199  17.931  0.00  0.00    +0.000 C 
BRANCH  21  28
ATOM     22  O   UNL     1      -2.501  10.364  15.443  0.00  0.00    +0.000 OA
ATOM     23  C   UNL     1      -3.103  10.962  16.316  0.00  0.00    +0.000 C 
ATOM     24  C   UNL     1      -4.546  11.206  16.284  0.00  0.00    +0.000 C 
ATOM     25  C   UNL     1      -4.892  11.686  17.480  0.00  0.00    +0.000 C 
ATOM     26  C   UNL     1      -3.677  11.745  18.300  0.00  0.00    +0.000 C 
ATOM     27  O   UNL     1      -3.709  11.980  19.491  0.00  0.00    +0.000 OA
ATOM     28  N   UNL     1      -2.626  11.464  17.484  0.00  0.00    +0.000 N 
ENDBRANCH  21  28
ENDBRANCH   1  21
TORSDOF 3
ENDMDL
MODEL 7
REMARK VINA RESULT:      -7.0      3.247      5.751
REMARK  Name = 
REMARK  3 active torsions:
REMARK  status: ('A' for Active; 'I' for Inactive)
REMARK    1  A    between atoms: N_7  and  C_8
REMARK    2  A    between atoms: C_8  and  C_9
REMARK    3  A    between atoms: C_22  and  C_23
REMARK                            x       y       z     vdW  Elec       q    Type
REMARK                         _______ _______ _______ _____ _____    ______ ____
ROOT
ATOM      1  C   UNL     1       0.053  10.512  18.494  0.00  0.00    +0.000 C 
ATOM      2  O   UNL     1      -0.821   9.733  18.079  0.00  0.00    +0.000 OA
ATOM      3  N   UNL     1      -0.273  11.696  19.182  0.00  0.00    +0.000 N 
ATOM      4  C   UNL     1       0.639  12.622  19.810  0.00  0.00    +0.000 A 
ATOM      5  C   UNL     1       1.824  13.026  19.177  0.00  0.00    +0.000 A 
ATOM      6  C   UNL     1       2.668  13.996  19.739  0.00  0.00    +0.000 A 
ATOM      7  C   UNL     1       2.341  14.598  20.948  0.00  0.00    +0.000 A 
ATOM      8  C   UNL     1       1.171  14.225  21.596  0.00  0.00    +0.000 A 
ATOM      9  C   UNL     1       0.325  13.255  21.035  0.00  0.00    +0.000 A 
ATOM     10  S   UNL     1      -1.148  12.857  21.948  0.00  0.00    +0.000 S 
ATOM     11  C   UNL     1      -2.197  12.509  20.564  0.00  0.00    +0.000 A 
ATOM     12  C   UNL     1      -3.577  12.706  20.718  0.00  0.00    +0.000 A 
ATOM     13  C   UNL     1      -4.462  12.401  19.684  0.00  0.00    +0.000 A 
ATOM     14  C   UNL     1      -3.977  11.914  18.470  0.00  0.00    +0.000 A 
ATOM     15  C   UNL     1      -2.592  11.742  18.318  0.00  0.00    +0.000 A 
ATOM     16  C   UNL     1      -1.683  11.992  19.365  0.00  0.00    +0.000 A 
ENDROOT
BRANCH  14  17
ATOM     17  C   UNL     1      -4.897  11.546  17.332  0.00  0.00    +0.000 C 
ATOM     18  F   UNL     1      -4.289  10.802  16.365  0.00  0.00    +0.000 F 
ATOM     19  F   UNL     1      -5.967  10.813  17.745  0.00  0.00    +0.000 F 
ATOM     20  F   UNL     1      -5.407  12.635  16.695  0.00  0.00    +0.000 F 
ENDBRANCH  14  17
BRANCH   1  21
ATOM     21  C   UNL     1       1.491  10.042  18.294  0.00  0.00    +0.000 C 
BRANCH  21  28
ATOM     22  O   UNL     1       3.082   8.007  16.974  0.00  0.00    +0.000 OA
ATOM     23  C   UNL     1       2.557   7.841  18.060  0.00  0.00    +0.000 C 
ATOM     24  C   UNL     1       2.779   6.659  18.895  0.00  0.00    +0.000 C 
ATOM     25  C   UNL     1       2.231   6.908  20.086  0.00  0.00    +0.000 C 
ATOM     26  C   UNL     1       1.660   8.258  20.035  0.00  0.00    +0.000 C 
ATOM     27  O   UNL     1       1.244   8.825  21.025  0.00  0.00    +0.000 OA
ATOM     28  N   UNL     1       1.739   8.681  18.745  0.00  0.00    +0.000 N 
ENDBRANCH  21  28
ENDBRANCH   1  21
TORSDOF 3
ENDMDL
MODEL 8
REMARK VINA RESULT:      -7.0      2.438      5.071
REMARK  Name = 
REMARK  3 active torsions:
REMARK  status: ('A' for Active; 'I' for Inactive)
REMARK    1  A    between atoms: N_7  and  C_8
REMARK    2  A    between atoms: C_8  and  C_9
REMARK    3  A    between atoms: C_22  and  C_23
REMARK                            x       y       z     vdW  Elec       q    Type
REMARK                         _______ _______ _______ _____ _____    ______ ____
ROOT
ATOM      1  C   UNL     1      -1.377  12.001  20.158  0.00  0.00    +0.000 C 
ATOM      2  O   UNL     1      -1.851  11.219  19.317  0.00  0.00    +0.000 OA
ATOM      3  N   UNL     1      -2.198  12.806  20.970  0.00  0.00    +0.000 N 
ATOM      4  C   UNL     1      -1.784  13.664  22.054  0.00  0.00    +0.000 A 
ATOM      5  C   UNL     1      -0.662  14.498  21.939  0.00  0.00    +0.000 A 
ATOM      6  C   UNL     1      -0.308  15.403  22.952  0.00  0.00    +0.000 A 
ATOM      7  C   UNL     1      -1.078  15.507  24.104  0.00  0.00    +0.000 A 
ATOM      8  C   UNL     1      -2.199  14.699  24.244  0.00  0.00    +0.000 A 
ATOM      9  C   UNL     1      -2.554  13.793  23.232  0.00  0.00    +0.000 A 
ATOM     10  S   UNL     1      -4.010  12.813  23.516  0.00  0.00    +0.000 S 
ATOM     11  C   UNL     1      -4.547  12.695  21.832  0.00  0.00    +0.000 A 
ATOM     12  C   UNL     1      -5.918  12.523  21.588  0.00  0.00    +0.000 A 
ATOM     13  C   UNL     1      -6.399  12.371  20.287  0.00  0.00    +0.000 A 
ATOM     14  C   UNL     1      -5.517  12.411  19.207  0.00  0.00    +0.000 A 
ATOM     15  C   UNL     1      -4.150  12.606  19.460  0.00  0.00    +0.000 A 
ATOM     16  C   UNL     1      -3.633  12.709  20.768  0.00  0.00    +0.000 A 
ENDROOT
BRANCH  14  17
ATOM     17  C   UNL     1      -5.986  12.225  17.786  0.00  0.00    +0.000 C 
ATOM     18  F   UNL     1      -7.200  11.612  17.694  0.00  0.00    +0.000 F 
ATOM     19  F   UNL     1      -6.119  13.407  17.123  0.00  0.00    +0.000 F 
ATOM     20  F   UNL     1      -5.132  11.470  17.044  0.00  0.00    +0.000 F 
ENDBRANCH  14  17
BRANCH   1  21
ATOM     21  C   UNL     1       0.140  11.948  20.312  0.00  0.00    +0.000 C 
BRANCH  21  28
ATOM     22  O   UNL     1      -0.125  10.794  22.959  0.00  0.00    +0.000 OA
ATOM     23  C   UNL     1       0.400  10.211  22.029  0.00  0.00    +0.000 C 
ATOM     24  C   UNL     1       0.831   8.812  22.088  0.00  0.00    +0.000 C 
ATOM     25  C   UNL     1       1.156   8.446  20.846  0.00  0.00    +0.000 C 
ATOM     26  C   UNL     1       0.927   9.601  19.972  0.00  0.00    +0.000 C 
ATOM     27  O   UNL     1       0.973   9.518  18.761  0.00  0.00    +0.000 OA
ATOM     28  N   UNL     1       0.646  10.664  20.772  0.00  0.00    +0.000 N 
ENDBRANCH  21  28
ENDBRANCH   1  21
TORSDOF 3
ENDMDL
MODEL 9
REMARK VINA RESULT:      -7.0      3.734      5.107
REMARK  Name = 
REMARK  3 active torsions:
REMARK  status: ('A' for Active; 'I' for Inactive)
REMARK    1  A    between atoms: N_7  and  C_8
REMARK    2  A    between atoms: C_8  and  C_9
REMARK    3  A    between atoms: C_22  and  C_23
REMARK                            x       y       z     vdW  Elec       q    Type
REMARK                         _______ _______ _______ _____ _____    ______ ____
ROOT
ATOM      1  C   UNL     1      -2.687  13.161  20.206  0.00  0.00    +0.000 C 
ATOM      2  O   UNL     1      -3.030  13.887  21.154  0.00  0.00    +0.000 OA
ATOM      3  N   UNL     1      -3.616  12.379  19.495  0.00  0.00    +0.000 N 
ATOM      4  C   UNL     1      -3.371  11.590  18.312  0.00  0.00    +0.000 A 
ATOM      5  C   UNL     1      -2.231  10.780  18.196  0.00  0.00    +0.000 A 
ATOM      6  C   UNL     1      -2.033   9.938  17.090  0.00  0.00    +0.000 A 
ATOM      7  C   UNL     1      -2.979   9.874  16.075  0.00  0.00    +0.000 A 
ATOM      8  C   UNL     1      -4.122  10.658  16.165  0.00  0.00    +0.000 A 
ATOM      9  C   UNL     1      -4.322  11.501  17.270  0.00  0.00    +0.000 A 
ATOM     10  S   UNL     1      -5.822  12.456  17.283  0.00  0.00    +0.000 S 
ATOM     11  C   UNL     1      -6.077  12.472  19.036  0.00  0.00    +0.000 A 
ATOM     12  C   UNL     1      -7.391  12.595  19.509  0.00  0.00    +0.000 A 
ATOM     13  C   UNL     1      -7.654  12.667  20.877  0.00  0.00    +0.000 A 
ATOM     14  C   UNL     1      -6.606  12.594  21.795  0.00  0.00    +0.000 A 
ATOM     15  C   UNL     1      -5.297  12.449  21.312  0.00  0.00    +0.000 A 
ATOM     16  C   UNL     1      -5.000  12.427  19.934  0.00  0.00    +0.000 A 
ENDROOT
BRANCH  14  17
ATOM     17  C   UNL     1      -6.839  12.693  23.282  0.00  0.00    +0.000 C 
ATOM     18  F   UNL     1      -7.421  13.866  23.661  0.00  0.00    +0.000 F 
ATOM     19  F   UNL     1      -7.655  11.708  23.748  0.00  0.00    +0.000 F 
ATOM     20  F   UNL     1      -5.688  12.602  24.002  0.00  0.00    +0.000 F 
ENDBRANCH  14  17
BRANCH   1  21
ATOM     21  C   UNL     1      -1.217  13.262  19.809  0.00  0.00    +0.000 C 
BRANCH  21  28
ATOM     22  O   UNL     1       0.725  12.879  21.929  0.00  0.00    +0.000 OA
ATOM     23  C   UNL     1       0.454  13.971  21.464  0.00  0.00    +0.000 C 
ATOM     24  C   UNL     1       1.171  15.200  21.812  0.00  0.00    +0.000 C 
ATOM     25  C   UNL     1       0.760  16.148  20.968  0.00  0.00    +0.000 C 
ATOM     26  C   UNL     1      -0.217  15.538  20.060  0.00  0.00    +0.000 C 
ATOM     27  O   UNL     1      -0.637  16.114  19.077  0.00  0.00    +0.000 OA
ATOM     28  N   UNL     1      -0.477  14.288  20.528  0.00  0.00    +0.000 N 
ENDBRANCH  21  28
ENDBRANCH   1  21
TORSDOF 3
ENDMDL
