MODEL 1
REMARK VINA RESULT:      -6.9      0.000      0.000
REMARK  Name = 
REMARK  11 active torsions:
REMARK  status: ('A' for Active; 'I' for Inactive)
REMARK    1  A    between atoms: C_1  and  C_2
REMARK    2  A    between atoms: C_2  and  N_3
REMARK    3  A    between atoms: N_3  and  C_4
REMARK    4  A    between atoms: C_4  and  C_5
REMARK    5  A    between atoms: N_8  and  C_9
REMARK    6  A    between atoms: C_16  and  C_17
REMARK    7  A    between atoms: C_17  and  O_19
REMARK    8  A    between atoms: N_21  and  C_22
REMARK    9  A    between atoms: C_26  and  O_27
REMARK   10  A    between atoms: O_27  and  C_28
REMARK   11  A    between atoms: C_28  and  C_29
REMARK                            x       y       z     vdW  Elec       q    Type
REMARK                         _______ _______ _______ _____ _____    ______ ____
ROOT
ATOM      1  C   UNL     1       1.404   9.531  19.095  0.00  0.00    +0.000 A 
ATOM      2  C   UNL     1       2.227   9.792  17.961  0.00  0.00    +0.000 A 
ATOM      3  F   UNL     1       2.138  10.976  17.326  0.00  0.00    +0.000 F 
ATOM      4  C   UNL     1       3.113   8.869  17.419  0.00  0.00    +0.000 A 
ATOM      5  C   UNL     1       3.181   7.594  17.968  0.00  0.00    +0.000 A 
ATOM      6  C   UNL     1       4.117   6.613  17.354  0.00  0.00    +0.000 A 
ATOM      7  O   UNL     1       4.813   6.901  16.382  0.00  0.00    +0.000 OA
ATOM      8  C   UNL     1       4.228   5.274  17.957  0.00  0.00    +0.000 A 
ATOM      9  C   UNL     1       3.420   5.016  18.992  0.00  0.00    +0.000 A 
ATOM     10  N   UNL     1       2.482   5.870  19.546  0.00  0.00    +0.000 N 
ATOM     11  C   UNL     1       2.392   7.236  19.087  0.00  0.00    +0.000 A 
ATOM     12  C   UNL     1       1.558   8.245  19.691  0.00  0.00    +0.000 A 
ENDROOT
BRANCH   1  16
ATOM     13  C   UNL     1      -1.169  12.906  19.741  0.00  0.00    +0.000 C 
ATOM     14  C   UNL     1      -1.658  11.655  18.989  0.00  0.00    +0.000 C 
ATOM     15  C   UNL     1      -0.958  10.378  19.431  0.00  0.00    +0.000 C 
ATOM     16  N   UNL     1       0.494  10.526  19.474  0.00  0.00    +0.000 N 
ATOM     17  C   UNL     1       0.980  11.622  20.312  0.00  0.00    +0.000 C 
ATOM     18  C   UNL     1       0.375  12.927  19.802  0.00  0.00    +0.000 C 
BRANCH  13  19
ATOM     19  C   UNL     1      -1.856  13.075  21.120  0.00  0.00    +0.000 C 
BRANCH  19  20
ATOM     20  N   UNL     1      -3.260  12.700  20.979  0.00  0.00    +0.000 NA
ATOM     21  H   UNL     1      -3.715  13.300  20.295  0.00  0.00    +0.000 HD
BRANCH  20  23
ATOM     22  C   UNL     1      -3.100  12.270  23.320  0.00  0.00    +0.000 C 
ATOM     23  C   UNL     1      -4.034  12.738  22.210  0.00  0.00    +0.000 C 
ENDBRANCH  20  23
ENDBRANCH  19  20
ENDBRANCH  13  19
ENDBRANCH   1  16
BRANCH  10  24
ATOM     24  C   UNL     1       1.723   5.324  20.693  0.00  0.00    +0.000 C 
ATOM     25  C   UNL     1       0.998   3.999  20.678  0.00  0.00    +0.000 C 
ATOM     26  C   UNL     1       2.248   4.138  21.476  0.00  0.00    +0.000 C 
ENDBRANCH  10  24
BRANCH   8  27
ATOM     27  C   UNL     1       5.156   4.218  17.489  0.00  0.00    +0.000 C 
ATOM     28  O   UNL     1       5.068   3.695  16.384  0.00  0.00    +0.000 OA
BRANCH  27  29
ATOM     29  O   UNL     1       6.110   3.878  18.380  0.00  0.00    +0.000 OA
ATOM     30  H   UNL     1       5.764   3.493  19.218  0.00  0.00    +0.000 HD
ENDBRANCH  27  29
ENDBRANCH   8  27
BRANCH  12  31
ATOM     31  O   UNL     1       1.002   7.822  20.870  0.00  0.00    +0.000 OA
BRANCH  31  32
ATOM     32  C   UNL     1       1.098   8.536  22.082  0.00  0.00    +0.000 C 
ATOM     33  C   UNL     1      -0.264   8.922  22.612  0.00  0.00    +0.000 C 
ENDBRANCH  31  32
ENDBRANCH  12  31
TORSDOF 9
ENDMDL
MODEL 2
REMARK VINA RESULT:      -6.5      0.764      1.214
REMARK  Name = 
REMARK  11 active torsions:
REMARK  status: ('A' for Active; 'I' for Inactive)
REMARK    1  A    between atoms: C_1  and  C_2
REMARK    2  A    between atoms: C_2  and  N_3
REMARK    3  A    between atoms: N_3  and  C_4
REMARK    4  A    between atoms: C_4  and  C_5
REMARK    5  A    between atoms: N_8  and  C_9
REMARK    6  A    between atoms: C_16  and  C_17
REMARK    7  A    between atoms: C_17  and  O_19
REMARK    8  A    between atoms: N_21  and  C_22
REMARK    9  A    between atoms: C_26  and  O_27
REMARK   10  A    between atoms: O_27  and  C_28
REMARK   11  A    between atoms: C_28  and  C_29
REMARK                            x       y       z     vdW  Elec       q    Type
REMARK                         _______ _______ _______ _____ _____    ______ ____
ROOT
ATOM      1  C   UNL     1       1.542   9.509  19.077  0.00  0.00    +0.000 A 
ATOM      2  C   UNL     1       2.363   9.742  17.936  0.00  0.00    +0.000 A 
ATOM      3  F   UNL     1       2.328  10.936  17.316  0.00  0.00    +0.000 F 
ATOM      4  C   UNL     1       3.195   8.782  17.372  0.00  0.00    +0.000 A 
ATOM      5  C   UNL     1       3.205   7.498  17.905  0.00  0.00    +0.000 A 
ATOM      6  C   UNL     1       4.082   6.479  17.268  0.00  0.00    +0.000 A 
ATOM      7  O   UNL     1       4.780   6.743  16.291  0.00  0.00    +0.000 OA
ATOM      8  C   UNL     1       4.132   5.129  17.854  0.00  0.00    +0.000 A 
ATOM      9  C   UNL     1       3.325   4.899  18.896  0.00  0.00    +0.000 A 
ATOM     10  N   UNL     1       2.437   5.792  19.471  0.00  0.00    +0.000 N 
ATOM     11  C   UNL     1       2.412   7.167  19.030  0.00  0.00    +0.000 A 
ATOM     12  C   UNL     1       1.638   8.210  19.656  0.00  0.00    +0.000 A 
ENDROOT
BRANCH   1  16
ATOM     13  C   UNL     1      -1.338  12.243  20.708  0.00  0.00    +0.000 C 
ATOM     14  C   UNL     1       0.097  12.163  21.261  0.00  0.00    +0.000 C 
ATOM     15  C   UNL     1       1.117  11.728  20.218  0.00  0.00    +0.000 C 
ATOM     16  N   UNL     1       0.689  10.544  19.480  0.00  0.00    +0.000 N 
ATOM     17  C   UNL     1      -0.611  10.664  18.819  0.00  0.00    +0.000 C 
ATOM     18  C   UNL     1      -1.665  10.983  19.875  0.00  0.00    +0.000 C 
BRANCH  13  19
ATOM     19  C   UNL     1      -1.613  13.577  19.966  0.00  0.00    +0.000 C 
BRANCH  19  20
ATOM     20  N   UNL     1      -3.009  13.941  20.185  0.00  0.00    +0.000 NA
ATOM     21  H   UNL     1      -3.220  14.818  19.714  0.00  0.00    +0.000 HD
BRANCH  20  23
ATOM     22  C   UNL     1      -4.727  13.320  21.719  0.00  0.00    +0.000 C 
ATOM     23  C   UNL     1      -3.403  14.061  21.580  0.00  0.00    +0.000 C 
ENDBRANCH  20  23
ENDBRANCH  19  20
ENDBRANCH  13  19
ENDBRANCH   1  16
BRANCH  10  24
ATOM     24  C   UNL     1       1.666   5.271  20.621  0.00  0.00    +0.000 C 
ATOM     25  C   UNL     1       0.924   3.956  20.620  0.00  0.00    +0.000 C 
ATOM     26  C   UNL     1       2.171   4.089  21.423  0.00  0.00    +0.000 C 
ENDBRANCH  10  24
BRANCH   8  27
ATOM     27  C   UNL     1       5.000   4.033  17.362  0.00  0.00    +0.000 C 
ATOM     28  O   UNL     1       4.556   2.980  16.918  0.00  0.00    +0.000 OA
BRANCH  27  29
ATOM     29  O   UNL     1       6.322   4.288  17.441  0.00  0.00    +0.000 OA
ATOM     30  H   UNL     1       6.572   4.915  18.159  0.00  0.00    +0.000 HD
ENDBRANCH  27  29
ENDBRANCH   8  27
BRANCH  12  31
ATOM     31  O   UNL     1       1.075   7.801  20.837  0.00  0.00    +0.000 OA
BRANCH  31  32
ATOM     32  C   UNL     1       1.036   8.593  22.002  0.00  0.00    +0.000 C 
ATOM     33  C   UNL     1      -0.379   8.793  22.495  0.00  0.00    +0.000 C 
ENDBRANCH  31  32
ENDBRANCH  12  31
TORSDOF 9
ENDMDL
MODEL 3
REMARK VINA RESULT:      -6.4      1.056      1.888
REMARK  Name = 
REMARK  11 active torsions:
REMARK  status: ('A' for Active; 'I' for Inactive)
REMARK    1  A    between atoms: C_1  and  C_2
REMARK    2  A    between atoms: C_2  and  N_3
REMARK    3  A    between atoms: N_3  and  C_4
REMARK    4  A    between atoms: C_4  and  C_5
REMARK    5  A    between atoms: N_8  and  C_9
REMARK    6  A    between atoms: C_16  and  C_17
REMARK    7  A    between atoms: C_17  and  O_19
REMARK    8  A    between atoms: N_21  and  C_22
REMARK    9  A    between atoms: C_26  and  O_27
REMARK   10  A    between atoms: O_27  and  C_28
REMARK   11  A    between atoms: C_28  and  C_29
REMARK                            x       y       z     vdW  Elec       q    Type
REMARK                         _______ _______ _______ _____ _____    ______ ____
ROOT
ATOM      1  C   UNL     1       1.524   9.533  19.080  0.00  0.00    +0.000 A 
ATOM      2  C   UNL     1       2.359   9.779  17.952  0.00  0.00    +0.000 A 
ATOM      3  F   UNL     1       2.315  10.973  17.332  0.00  0.00    +0.000 F 
ATOM      4  C   UNL     1       3.213   8.831  17.400  0.00  0.00    +0.000 A 
ATOM      5  C   UNL     1       3.234   7.548  17.933  0.00  0.00    +0.000 A 
ATOM      6  C   UNL     1       4.135   6.542  17.309  0.00  0.00    +0.000 A 
ATOM      7  O   UNL     1       4.843   6.817  16.342  0.00  0.00    +0.000 OA
ATOM      8  C   UNL     1       4.197   5.192  17.895  0.00  0.00    +0.000 A 
ATOM      9  C   UNL     1       3.377   4.950  18.925  0.00  0.00    +0.000 A 
ATOM     10  N   UNL     1       2.469   5.830  19.487  0.00  0.00    +0.000 N 
ATOM     11  C   UNL     1       2.430   7.204  19.045  0.00  0.00    +0.000 A 
ATOM     12  C   UNL     1       1.631   8.235  19.660  0.00  0.00    +0.000 A 
ENDROOT
BRANCH   1  16
ATOM     13  C   UNL     1      -1.422  12.223  20.666  0.00  0.00    +0.000 C 
ATOM     14  C   UNL     1       0.003  12.159  21.246  0.00  0.00    +0.000 C 
ATOM     15  C   UNL     1       1.049  11.742  20.222  0.00  0.00    +0.000 C 
ATOM     16  N   UNL     1       0.650  10.555  19.470  0.00  0.00    +0.000 N 
ATOM     17  C   UNL     1      -0.638  10.661  18.785  0.00  0.00    +0.000 C 
ATOM     18  C   UNL     1      -1.716  10.962  19.822  0.00  0.00    +0.000 C 
BRANCH  13  19
ATOM     19  C   UNL     1      -1.700  13.556  19.924  0.00  0.00    +0.000 C 
BRANCH  19  20
ATOM     20  N   UNL     1      -0.927  14.610  20.575  0.00  0.00    +0.000 NA
ATOM     21  H   UNL     1      -1.486  15.055  21.301  0.00  0.00    +0.000 HD
BRANCH  20  23
ATOM     22  C   UNL     1       1.093  15.484  19.656  0.00  0.00    +0.000 C 
ATOM     23  C   UNL     1      -0.423  15.644  19.685  0.00  0.00    +0.000 C 
ENDBRANCH  20  23
ENDBRANCH  19  20
ENDBRANCH  13  19
ENDBRANCH   1  16
BRANCH  10  24
ATOM     24  C   UNL     1       1.688   5.298  20.626  0.00  0.00    +0.000 C 
ATOM     25  C   UNL     1       1.049   3.929  20.651  0.00  0.00    +0.000 C 
ATOM     26  C   UNL     1       2.245   4.192  21.500  0.00  0.00    +0.000 C 
ENDBRANCH  10  24
BRANCH   8  27
ATOM     27  C   UNL     1       5.087   4.109  17.416  0.00  0.00    +0.000 C 
ATOM     28  O   UNL     1       4.999   3.620  16.295  0.00  0.00    +0.000 OA
BRANCH  27  29
ATOM     29  O   UNL     1       6.007   3.704  18.315  0.00  0.00    +0.000 OA
ATOM     30  H   UNL     1       6.141   4.326  19.068  0.00  0.00    +0.000 HD
ENDBRANCH  27  29
ENDBRANCH   8  27
BRANCH  12  31
ATOM     31  O   UNL     1       1.057   7.818  20.833  0.00  0.00    +0.000 OA
BRANCH  31  32
ATOM     32  C   UNL     1       1.051   8.581  22.018  0.00  0.00    +0.000 C 
ATOM     33  C   UNL     1      -0.354   8.842  22.508  0.00  0.00    +0.000 C 
ENDBRANCH  31  32
ENDBRANCH  12  31
TORSDOF 9
ENDMDL
MODEL 4
REMARK VINA RESULT:      -6.1      9.043     11.875
REMARK  Name = 
REMARK  11 active torsions:
REMARK  status: ('A' for Active; 'I' for Inactive)
REMARK    1  A    between atoms: C_1  and  C_2
REMARK    2  A    between atoms: C_2  and  N_3
REMARK    3  A    between atoms: N_3  and  C_4
REMARK    4  A    between atoms: C_4  and  C_5
REMARK    5  A    between atoms: N_8  and  C_9
REMARK    6  A    between atoms: C_16  and  C_17
REMARK    7  A    between atoms: C_17  and  O_19
REMARK    8  A    between atoms: N_21  and  C_22
REMARK    9  A    between atoms: C_26  and  O_27
REMARK   10  A    between atoms: O_27  and  C_28
REMARK   11  A    between atoms: C_28  and  C_29
REMARK                            x       y       z     vdW  Elec       q    Type
REMARK                         _______ _______ _______ _____ _____    ______ ____
ROOT
ATOM      1  C   UNL     1       9.041  13.015  21.243  0.00  0.00    +0.000 A 
ATOM      2  C   UNL     1       8.816  11.734  21.824  0.00  0.00    +0.000 A 
ATOM      3  F   UNL     1       9.298  10.630  21.224  0.00  0.00    +0.000 F 
ATOM      4  C   UNL     1       8.076  11.529  22.983  0.00  0.00    +0.000 A 
ATOM      5  C   UNL     1       7.468  12.617  23.598  0.00  0.00    +0.000 A 
ATOM      6  C   UNL     1       6.657  12.371  24.821  0.00  0.00    +0.000 A 
ATOM      7  O   UNL     1       6.509  11.241  25.285  0.00  0.00    +0.000 OA
ATOM      8  C   UNL     1       6.047  13.523  25.505  0.00  0.00    +0.000 A 
ATOM      9  C   UNL     1       6.220  14.719  24.931  0.00  0.00    +0.000 A 
ATOM     10  N   UNL     1       6.900  14.984  23.754  0.00  0.00    +0.000 N 
ATOM     11  C   UNL     1       7.622  13.927  23.087  0.00  0.00    +0.000 A 
ATOM     12  C   UNL     1       8.480  14.122  21.944  0.00  0.00    +0.000 A 
ENDROOT
BRANCH   1  16
ATOM     13  C   UNL     1      11.116  12.501  17.521  0.00  0.00    +0.000 C 
ATOM     14  C   UNL     1       9.606  12.796  17.564  0.00  0.00    +0.000 C 
ATOM     15  C   UNL     1       9.188  13.603  18.785  0.00  0.00    +0.000 C 
ATOM     16  N   UNL     1       9.732  13.058  20.026  0.00  0.00    +0.000 N 
ATOM     17  C   UNL     1      11.188  12.917  20.053  0.00  0.00    +0.000 C 
ATOM     18  C   UNL     1      11.609  12.010  18.900  0.00  0.00    +0.000 C 
BRANCH  13  19
ATOM     19  C   UNL     1      11.934  13.686  16.945  0.00  0.00    +0.000 C 
BRANCH  19  20
ATOM     20  N   UNL     1      11.009  14.601  16.284  0.00  0.00    +0.000 NA
ATOM     21  H   UNL     1      11.121  14.543  15.274  0.00  0.00    +0.000 HD
BRANCH  20  23
ATOM     22  C   UNL     1      11.978  16.009  17.948  0.00  0.00    +0.000 C 
ATOM     23  C   UNL     1      11.132  15.995  16.680  0.00  0.00    +0.000 C 
ENDBRANCH  20  23
ENDBRANCH  19  20
ENDBRANCH  13  19
ENDBRANCH   1  16
BRANCH  10  24
ATOM     24  C   UNL     1       6.940  16.407  23.349  0.00  0.00    +0.000 C 
ATOM     25  C   UNL     1       6.087  17.490  23.967  0.00  0.00    +0.000 C 
ATOM     26  C   UNL     1       7.549  17.456  24.258  0.00  0.00    +0.000 C 
ENDBRANCH  10  24
BRANCH   8  27
ATOM     27  C   UNL     1       5.264  13.435  26.760  0.00  0.00    +0.000 C 
ATOM     28  O   UNL     1       4.358  14.214  27.035  0.00  0.00    +0.000 OA
BRANCH  27  29
ATOM     29  O   UNL     1       5.628  12.426  27.577  0.00  0.00    +0.000 OA
ATOM     30  H   UNL     1       4.912  11.777  27.765  0.00  0.00    +0.000 HD
ENDBRANCH  27  29
ENDBRANCH   8  27
BRANCH  12  31
ATOM     31  O   UNL     1       8.692  15.449  21.674  0.00  0.00    +0.000 OA
BRANCH  31  32
ATOM     32  C   UNL     1       9.971  16.028  21.546  0.00  0.00    +0.000 C 
ATOM     33  C   UNL     1      10.682  16.112  22.877  0.00  0.00    +0.000 C 
ENDBRANCH  31  32
ENDBRANCH  12  31
TORSDOF 9
ENDMDL
MODEL 5
REMARK VINA RESULT:      -5.8      1.809      2.913
REMARK  Name = 
REMARK  11 active torsions:
REMARK  status: ('A' for Active; 'I' for Inactive)
REMARK    1  A    between atoms: C_1  and  C_2
REMARK    2  A    between atoms: C_2  and  N_3
REMARK    3  A    between atoms: N_3  and  C_4
REMARK    4  A    between atoms: C_4  and  C_5
REMARK    5  A    between atoms: N_8  and  C_9
REMARK    6  A    between atoms: C_16  and  C_17
REMARK    7  A    between atoms: C_17  and  O_19
REMARK    8  A    between atoms: N_21  and  C_22
REMARK    9  A    between atoms: C_26  and  O_27
REMARK   10  A    between atoms: O_27  and  C_28
REMARK   11  A    between atoms: C_28  and  C_29
REMARK                            x       y       z     vdW  Elec       q    Type
REMARK                         _______ _______ _______ _____ _____    ______ ____
ROOT
ATOM      1  C   UNL     1       2.396   7.730  19.178  0.00  0.00    +0.000 A 
ATOM      2  C   UNL     1       2.928   8.525  18.123  0.00  0.00    +0.000 A 
ATOM      3  F   UNL     1       2.591   9.825  18.026  0.00  0.00    +0.000 F 
ATOM      4  C   UNL     1       3.765   8.032  17.129  0.00  0.00    +0.000 A 
ATOM      5  C   UNL     1       4.073   6.677  17.115  0.00  0.00    +0.000 A 
ATOM      6  C   UNL     1       4.949   6.166  16.025  0.00  0.00    +0.000 A 
ATOM      7  O   UNL     1       5.389   6.906  15.146  0.00  0.00    +0.000 OA
ATOM      8  C   UNL     1       5.317   4.741  16.028  0.00  0.00    +0.000 A 
ATOM      9  C   UNL     1       4.778   3.986  16.993  0.00  0.00    +0.000 A 
ATOM     10  N   UNL     1       3.900   4.403  17.979  0.00  0.00    +0.000 N 
ATOM     11  C   UNL     1       3.581   5.804  18.113  0.00  0.00    +0.000 A 
ATOM     12  C   UNL     1       2.799   6.362  19.189  0.00  0.00    +0.000 A 
ENDROOT
BRANCH   1  16
ATOM     13  C   UNL     1      -0.829   9.351  21.502  0.00  0.00    +0.000 C 
ATOM     14  C   UNL     1      -0.135   8.035  21.899  0.00  0.00    +0.000 C 
ATOM     15  C   UNL     1       1.320   7.968  21.458  0.00  0.00    +0.000 C 
ATOM     16  N   UNL     1       1.495   8.344  20.057  0.00  0.00    +0.000 N 
ATOM     17  C   UNL     1       0.973   9.663  19.701  0.00  0.00    +0.000 C 
ATOM     18  C   UNL     1      -0.516   9.701  20.030  0.00  0.00    +0.000 C 
BRANCH  13  19
ATOM     19  C   UNL     1      -0.533  10.501  22.500  0.00  0.00    +0.000 C 
BRANCH  19  20
ATOM     20  N   UNL     1      -1.237  11.695  22.040  0.00  0.00    +0.000 NA
ATOM     21  H   UNL     1      -0.608  12.284  21.498  0.00  0.00    +0.000 HD
BRANCH  20  23
ATOM     22  C   UNL     1      -3.338  12.458  22.873  0.00  0.00    +0.000 C 
ATOM     23  C   UNL     1      -1.831  12.503  23.094  0.00  0.00    +0.000 C 
ENDBRANCH  20  23
ENDBRANCH  19  20
ENDBRANCH  13  19
ENDBRANCH   1  16
BRANCH  10  24
ATOM     24  C   UNL     1       3.460   3.353  18.925  0.00  0.00    +0.000 C 
ATOM     25  C   UNL     1       3.640   1.871  18.691  0.00  0.00    +0.000 C 
ATOM     26  C   UNL     1       4.472   2.554  19.722  0.00  0.00    +0.000 C 
ENDBRANCH  10  24
BRANCH   8  27
ATOM     27  C   UNL     1       6.223   4.106  15.042  0.00  0.00    +0.000 C 
ATOM     28  O   UNL     1       5.858   3.224  14.273  0.00  0.00    +0.000 OA
BRANCH  27  29
ATOM     29  O   UNL     1       7.486   4.579  15.059  0.00  0.00    +0.000 OA
ATOM     30  H   UNL     1       8.091   4.144  14.415  0.00  0.00    +0.000 HD
ENDBRANCH  27  29
ENDBRANCH   8  27
BRANCH  12  31
ATOM     31  O   UNL     1       2.552   5.448  20.180  0.00  0.00    +0.000 OA
BRANCH  31  32
ATOM     32  C   UNL     1       1.292   4.860  20.407  0.00  0.00    +0.000 C 
ATOM     33  C   UNL     1       1.396   3.637  21.290  0.00  0.00    +0.000 C 
ENDBRANCH  31  32
ENDBRANCH  12  31
TORSDOF 9
ENDMDL
MODEL 6
REMARK VINA RESULT:      -5.8      1.950      3.496
REMARK  Name = 
REMARK  11 active torsions:
REMARK  status: ('A' for Active; 'I' for Inactive)
REMARK    1  A    between atoms: C_1  and  C_2
REMARK    2  A    between atoms: C_2  and  N_3
REMARK    3  A    between atoms: N_3  and  C_4
REMARK    4  A    between atoms: C_4  and  C_5
REMARK    5  A    between atoms: N_8  and  C_9
REMARK    6  A    between atoms: C_16  and  C_17
REMARK    7  A    between atoms: C_17  and  O_19
REMARK    8  A    between atoms: N_21  and  C_22
REMARK    9  A    between atoms: C_26  and  O_27
REMARK   10  A    between atoms: O_27  and  C_28
REMARK   11  A    between atoms: C_28  and  C_29
REMARK                            x       y       z     vdW  Elec       q    Type
REMARK                         _______ _______ _______ _____ _____    ______ ____
ROOT
ATOM      1  C   UNL     1       1.045   8.548  20.073  0.00  0.00    +0.000 A 
ATOM      2  C   UNL     1       0.558   7.576  20.994  0.00  0.00    +0.000 A 
ATOM      3  F   UNL     1      -0.405   7.907  21.874  0.00  0.00    +0.000 F 
ATOM      4  C   UNL     1       1.049   6.278  21.081  0.00  0.00    +0.000 A 
ATOM      5  C   UNL     1       2.111   5.902  20.268  0.00  0.00    +0.000 A 
ATOM      6  C   UNL     1       2.640   4.517  20.398  0.00  0.00    +0.000 A 
ATOM      7  O   UNL     1       2.169   3.716  21.204  0.00  0.00    +0.000 OA
ATOM      8  C   UNL     1       3.735   4.095  19.509  0.00  0.00    +0.000 A 
ATOM      9  C   UNL     1       4.222   5.024  18.678  0.00  0.00    +0.000 A 
ATOM     10  N   UNL     1       3.814   6.343  18.577  0.00  0.00    +0.000 N 
ATOM     11  C   UNL     1       2.672   6.802  19.331  0.00  0.00    +0.000 A 
ATOM     12  C   UNL     1       2.074   8.107  19.191  0.00  0.00    +0.000 A 
ENDROOT
BRANCH   1  16
ATOM     13  C   UNL     1      -0.078  12.690  19.976  0.00  0.00    +0.000 C 
ATOM     14  C   UNL     1      -0.678  11.672  18.989  0.00  0.00    +0.000 C 
ATOM     15  C   UNL     1      -0.747  10.260  19.554  0.00  0.00    +0.000 C 
ATOM     16  N   UNL     1       0.514   9.841  20.160  0.00  0.00    +0.000 N 
ATOM     17  C   UNL     1       1.018  10.725  21.212  0.00  0.00    +0.000 C 
ATOM     18  C   UNL     1       1.204  12.121  20.624  0.00  0.00    +0.000 C 
BRANCH  13  19
ATOM     19  C   UNL     1      -1.122  13.211  20.997  0.00  0.00    +0.000 C 
BRANCH  19  20
ATOM     20  N   UNL     1      -2.350  13.528  20.274  0.00  0.00    +0.000 NA
ATOM     21  H   UNL     1      -2.371  14.519  20.039  0.00  0.00    +0.000 HD
BRANCH  20  23
ATOM     22  C   UNL     1      -3.166  12.578  22.304  0.00  0.00    +0.000 C 
ATOM     23  C   UNL     1      -3.581  13.195  20.973  0.00  0.00    +0.000 C 
ENDBRANCH  20  23
ENDBRANCH  19  20
ENDBRANCH  13  19
ENDBRANCH   1  16
BRANCH  10  24
ATOM     24  C   UNL     1       4.526   7.154  17.565  0.00  0.00    +0.000 C 
ATOM     25  C   UNL     1       5.958   6.919  17.143  0.00  0.00    +0.000 C 
ATOM     26  C   UNL     1       4.854   6.581  16.201  0.00  0.00    +0.000 C 
ENDBRANCH  10  24
BRANCH   8  27
ATOM     27  C   UNL     1       4.321   2.734  19.487  0.00  0.00    +0.000 C 
ATOM     28  O   UNL     1       4.971   2.273  20.418  0.00  0.00    +0.000 OA
BRANCH  27  29
ATOM     29  O   UNL     1       4.080   2.040  18.355  0.00  0.00    +0.000 OA
ATOM     30  H   UNL     1       4.333   1.089  18.400  0.00  0.00    +0.000 HD
ENDBRANCH  27  29
ENDBRANCH   8  27
BRANCH  12  31
ATOM     31  O   UNL     1       2.586   8.801  18.125  0.00  0.00    +0.000 OA
BRANCH  31  32
ATOM     32  C   UNL     1       1.918   9.869  17.492  0.00  0.00    +0.000 C 
ATOM     33  C   UNL     1       2.656  11.175  17.673  0.00  0.00    +0.000 C 
ENDBRANCH  31  32
ENDBRANCH  12  31
TORSDOF 9
ENDMDL
MODEL 7
REMARK VINA RESULT:      -5.7      3.856      6.904
REMARK  Name = 
REMARK  11 active torsions:
REMARK  status: ('A' for Active; 'I' for Inactive)
REMARK    1  A    between atoms: C_1  and  C_2
REMARK    2  A    between atoms: C_2  and  N_3
REMARK    3  A    between atoms: N_3  and  C_4
REMARK    4  A    between atoms: C_4  and  C_5
REMARK    5  A    between atoms: N_8  and  C_9
REMARK    6  A    between atoms: C_16  and  C_17
REMARK    7  A    between atoms: C_17  and  O_19
REMARK    8  A    between atoms: N_21  and  C_22
REMARK    9  A    between atoms: C_26  and  O_27
REMARK   10  A    between atoms: O_27  and  C_28
REMARK   11  A    between atoms: C_28  and  C_29
REMARK                            x       y       z     vdW  Elec       q    Type
REMARK                         _______ _______ _______ _____ _____    ______ ____
ROOT
ATOM      1  C   UNL     1      -3.144  13.153  21.547  0.00  0.00    +0.000 A 
ATOM      2  C   UNL     1      -2.036  12.917  22.412  0.00  0.00    +0.000 A 
ATOM      3  F   UNL     1      -1.996  13.499  23.624  0.00  0.00    +0.000 F 
ATOM      4  C   UNL     1      -0.938  12.138  22.067  0.00  0.00    +0.000 A 
ATOM      5  C   UNL     1      -0.872  11.589  20.792  0.00  0.00    +0.000 A 
ATOM      6  C   UNL     1       0.327  10.782  20.435  0.00  0.00    +0.000 A 
ATOM      7  O   UNL     1       1.248  10.603  21.230  0.00  0.00    +0.000 OA
ATOM      8  C   UNL     1       0.384  10.159  19.102  0.00  0.00    +0.000 A 
ATOM      9  C   UNL     1      -0.635  10.420  18.275  0.00  0.00    +0.000 A 
ATOM     10  N   UNL     1      -1.730  11.226  18.537  0.00  0.00    +0.000 N 
ATOM     11  C   UNL     1      -1.917  11.779  19.858  0.00  0.00    +0.000 A 
ATOM     12  C   UNL     1      -3.090  12.505  20.278  0.00  0.00    +0.000 A 
ENDROOT
BRANCH   1  16
ATOM     13  C   UNL     1      -6.484  15.723  22.363  0.00  0.00    +0.000 C 
ATOM     14  C   UNL     1      -6.443  14.272  22.875  0.00  0.00    +0.000 C 
ATOM     15  C   UNL     1      -5.030  13.763  23.122  0.00  0.00    +0.000 C 
ATOM     16  N   UNL     1      -4.138  14.031  21.997  0.00  0.00    +0.000 N 
ATOM     17  C   UNL     1      -4.050  15.436  21.597  0.00  0.00    +0.000 C 
ATOM     18  C   UNL     1      -5.449  15.924  21.233  0.00  0.00    +0.000 C 
BRANCH  13  19
ATOM     19  C   UNL     1      -6.372  16.760  23.510  0.00  0.00    +0.000 C 
BRANCH  19  20
ATOM     20  N   UNL     1      -5.591  16.163  24.590  0.00  0.00    +0.000 NA
ATOM     21  H   UNL     1      -6.193  15.957  25.385  0.00  0.00    +0.000 HD
BRANCH  20  23
ATOM     22  C   UNL     1      -5.062  18.286  25.541  0.00  0.00    +0.000 C 
ATOM     23  C   UNL     1      -4.472  16.966  25.057  0.00  0.00    +0.000 C 
ENDBRANCH  20  23
ENDBRANCH  19  20
ENDBRANCH  13  19
ENDBRANCH   1  16
BRANCH  10  24
ATOM     24  C   UNL     1      -2.715  11.338  17.439  0.00  0.00    +0.000 C 
ATOM     25  C   UNL     1      -2.558  10.681  16.087  0.00  0.00    +0.000 C 
ATOM     26  C   UNL     1      -3.573  10.153  17.042  0.00  0.00    +0.000 C 
ENDBRANCH  10  24
BRANCH   8  27
ATOM     27  C   UNL     1       1.485   9.286  18.631  0.00  0.00    +0.000 C 
ATOM     28  O   UNL     1       2.022   9.421  17.537  0.00  0.00    +0.000 OA
BRANCH  27  29
ATOM     29  O   UNL     1       1.850   8.327  19.506  0.00  0.00    +0.000 OA
ATOM     30  H   UNL     1       2.685   7.859  19.271  0.00  0.00    +0.000 HD
ENDBRANCH  27  29
ENDBRANCH   8  27
BRANCH  12  31
ATOM     31  O   UNL     1      -4.096  12.449  19.349  0.00  0.00    +0.000 OA
BRANCH  31  32
ATOM     32  C   UNL     1      -5.440  12.164  19.665  0.00  0.00    +0.000 C 
ATOM     33  C   UNL     1      -6.369  12.513  18.524  0.00  0.00    +0.000 C 
ENDBRANCH  31  32
ENDBRANCH  12  31
TORSDOF 9
ENDMDL
MODEL 8
REMARK VINA RESULT:      -5.7      4.069      7.121
REMARK  Name = 
REMARK  11 active torsions:
REMARK  status: ('A' for Active; 'I' for Inactive)
REMARK    1  A    between atoms: C_1  and  C_2
REMARK    2  A    between atoms: C_2  and  N_3
REMARK    3  A    between atoms: N_3  and  C_4
REMARK    4  A    between atoms: C_4  and  C_5
REMARK    5  A    between atoms: N_8  and  C_9
REMARK    6  A    between atoms: C_16  and  C_17
REMARK    7  A    between atoms: C_17  and  O_19
REMARK    8  A    between atoms: N_21  and  C_22
REMARK    9  A    between atoms: C_26  and  O_27
REMARK   10  A    between atoms: O_27  and  C_28
REMARK   11  A    between atoms: C_28  and  C_29
REMARK                            x       y       z     vdW  Elec       q    Type
REMARK                         _______ _______ _______ _____ _____    ______ ____
ROOT
ATOM      1  C   UNL     1      -3.651  12.894  21.318  0.00  0.00    +0.000 A 
ATOM      2  C   UNL     1      -2.529  12.746  22.184  0.00  0.00    +0.000 A 
ATOM      3  F   UNL     1      -2.558  13.281  23.418  0.00  0.00    +0.000 F 
ATOM      4  C   UNL     1      -1.350  12.104  21.820  0.00  0.00    +0.000 A 
ATOM      5  C   UNL     1      -1.219  11.616  20.526  0.00  0.00    +0.000 A 
ATOM      6  C   UNL     1       0.062  10.957  20.149  0.00  0.00    +0.000 A 
ATOM      7  O   UNL     1       0.993  10.847  20.945  0.00  0.00    +0.000 OA
ATOM      8  C   UNL     1       0.194  10.396  18.794  0.00  0.00    +0.000 A 
ATOM      9  C   UNL     1      -0.844  10.578  17.969  0.00  0.00    +0.000 A 
ATOM     10  N   UNL     1      -2.021  11.251  18.251  0.00  0.00    +0.000 N 
ATOM     11  C   UNL     1      -2.274  11.728  19.590  0.00  0.00    +0.000 A 
ATOM     12  C   UNL     1      -3.521  12.306  20.026  0.00  0.00    +0.000 A 
ENDROOT
BRANCH   1  16
ATOM     13  C   UNL     1      -7.216  15.128  22.172  0.00  0.00    +0.000 C 
ATOM     14  C   UNL     1      -7.115  13.625  22.488  0.00  0.00    +0.000 C 
ATOM     15  C   UNL     1      -5.694  13.169  22.788  0.00  0.00    +0.000 C 
ATOM     16  N   UNL     1      -4.736  13.642  21.792  0.00  0.00    +0.000 N 
ATOM     17  C   UNL     1      -4.715  15.092  21.594  0.00  0.00    +0.000 C 
ATOM     18  C   UNL     1      -6.111  15.544  21.176  0.00  0.00    +0.000 C 
BRANCH  13  19
ATOM     19  C   UNL     1      -7.269  15.999  23.454  0.00  0.00    +0.000 C 
BRANCH  19  20
ATOM     20  N   UNL     1      -7.419  17.395  23.051  0.00  0.00    +0.000 NA
ATOM     21  H   UNL     1      -7.448  17.464  22.036  0.00  0.00    +0.000 HD
BRANCH  20  23
ATOM     22  C   UNL     1      -5.599  17.511  24.589  0.00  0.00    +0.000 C 
ATOM     23  C   UNL     1      -6.385  18.293  23.543  0.00  0.00    +0.000 C 
ENDBRANCH  20  23
ENDBRANCH  19  20
ENDBRANCH  13  19
ENDBRANCH   1  16
BRANCH  10  24
ATOM     24  C   UNL     1      -3.006  11.299  17.148  0.00  0.00    +0.000 C 
ATOM     25  C   UNL     1      -2.711  10.878  15.727  0.00  0.00    +0.000 C 
ATOM     26  C   UNL     1      -3.591  10.024  16.574  0.00  0.00    +0.000 C 
ENDBRANCH  10  24
BRANCH   8  27
ATOM     27  C   UNL     1       1.384   9.666  18.301  0.00  0.00    +0.000 C 
ATOM     28  O   UNL     1       1.676   8.535  18.676  0.00  0.00    +0.000 OA
BRANCH  27  29
ATOM     29  O   UNL     1       2.124  10.347  17.402  0.00  0.00    +0.000 OA
ATOM     30  H   UNL     1       3.097  10.232  17.507  0.00  0.00    +0.000 HD
ENDBRANCH  27  29
ENDBRANCH   8  27
BRANCH  12  31
ATOM     31  O   UNL     1      -4.510  12.179  19.086  0.00  0.00    +0.000 OA
BRANCH  31  32
ATOM     32  C   UNL     1      -5.866  11.958  19.400  0.00  0.00    +0.000 C 
ATOM     33  C   UNL     1      -6.368  10.654  18.823  0.00  0.00    +0.000 C 
ENDBRANCH  31  32
ENDBRANCH  12  31
TORSDOF 9
ENDMDL
MODEL 9
REMARK VINA RESULT:      -5.7      4.937      8.951
REMARK  Name = 
REMARK  11 active torsions:
REMARK  status: ('A' for Active; 'I' for Inactive)
REMARK    1  A    between atoms: C_1  and  C_2
REMARK    2  A    between atoms: C_2  and  N_3
REMARK    3  A    between atoms: N_3  and  C_4
REMARK    4  A    between atoms: C_4  and  C_5
REMARK    5  A    between atoms: N_8  and  C_9
REMARK    6  A    between atoms: C_16  and  C_17
REMARK    7  A    between atoms: C_17  and  O_19
REMARK    8  A    between atoms: N_21  and  C_22
REMARK    9  A    between atoms: C_26  and  O_27
REMARK   10  A    between atoms: O_27  and  C_28
REMARK   11  A    between atoms: C_28  and  C_29
REMARK                            x       y       z     vdW  Elec       q    Type
REMARK                         _______ _______ _______ _____ _____    ______ ____
ROOT
ATOM      1  C   UNL     1       1.526  14.402  20.392  0.00  0.00    +0.000 A 
ATOM      2  C   UNL     1       0.726  15.553  20.649  0.00  0.00    +0.000 A 
ATOM      3  F   UNL     1       1.128  16.761  20.215  0.00  0.00    +0.000 F 
ATOM      4  C   UNL     1      -0.459  15.524  21.376  0.00  0.00    +0.000 A 
ATOM      5  C   UNL     1      -0.879  14.324  21.937  0.00  0.00    +0.000 A 
ATOM      6  C   UNL     1      -2.135  14.323  22.735  0.00  0.00    +0.000 A 
ATOM      7  O   UNL     1      -2.792  15.347  22.913  0.00  0.00    +0.000 OA
ATOM      8  C   UNL     1      -2.612  13.047  23.294  0.00  0.00    +0.000 A 
ATOM      9  C   UNL     1      -1.834  11.977  23.091  0.00  0.00    +0.000 A 
ATOM     10  N   UNL     1      -0.622  11.947  22.423  0.00  0.00    +0.000 N 
ATOM     11  C   UNL     1      -0.143  13.130  21.748  0.00  0.00    +0.000 A 
ATOM     12  C   UNL     1       1.025  13.170  20.904  0.00  0.00    +0.000 A 
ENDROOT
BRANCH   1  16
ATOM     13  C   UNL     1       5.028  15.603  18.219  0.00  0.00    +0.000 C 
ATOM     14  C   UNL     1       4.974  15.670  19.756  0.00  0.00    +0.000 C 
ATOM     15  C   UNL     1       4.048  14.630  20.369  0.00  0.00    +0.000 C 
ATOM     16  N   UNL     1       2.740  14.598  19.721  0.00  0.00    +0.000 N 
ATOM     17  C   UNL     1       2.772  14.380  18.274  0.00  0.00    +0.000 C 
ATOM     18  C   UNL     1       3.602  15.489  17.635  0.00  0.00    +0.000 C 
BRANCH  13  19
ATOM     19  C   UNL     1       6.007  14.513  17.708  0.00  0.00    +0.000 C 
BRANCH  19  20
ATOM     20  N   UNL     1       7.321  15.126  17.534  0.00  0.00    +0.000 NA
ATOM     21  H   UNL     1       7.469  15.366  16.556  0.00  0.00    +0.000 HD
BRANCH  20  23
ATOM     22  C   UNL     1       8.273  14.144  19.488  0.00  0.00    +0.000 C 
ATOM     23  C   UNL     1       8.442  14.316  17.984  0.00  0.00    +0.000 C 
ENDBRANCH  20  23
ENDBRANCH  19  20
ENDBRANCH  13  19
ENDBRANCH   1  16
BRANCH  10  24
ATOM     24  C   UNL     1       0.028  10.620  22.343  0.00  0.00    +0.000 C 
ATOM     25  C   UNL     1      -0.360   9.433  23.193  0.00  0.00    +0.000 C 
ATOM     26  C   UNL     1      -0.700   9.435  21.742  0.00  0.00    +0.000 C 
ENDBRANCH  10  24
BRANCH   8  27
ATOM     27  C   UNL     1      -3.871  12.885  24.059  0.00  0.00    +0.000 C 
ATOM     28  O   UNL     1      -4.787  12.159  23.688  0.00  0.00    +0.000 OA
BRANCH  27  29
ATOM     29  O   UNL     1      -3.928  13.601  25.200  0.00  0.00    +0.000 OA
ATOM     30  H   UNL     1      -4.249  13.095  25.982  0.00  0.00    +0.000 HD
ENDBRANCH  27  29
ENDBRANCH   8  27
BRANCH  12  31
ATOM     31  O   UNL     1       1.527  11.919  20.653  0.00  0.00    +0.000 OA
BRANCH  31  32
ATOM     32  C   UNL     1       1.507  11.308  19.383  0.00  0.00    +0.000 C 
ATOM     33  C   UNL     1       0.153  11.431  18.724  0.00  0.00    +0.000 C 
ENDBRANCH  31  32
ENDBRANCH  12  31
TORSDOF 9
ENDMDL
