MODEL 1
REMARK VINA RESULT:      -9.1      0.000      0.000
REMARK  Name = 
REMARK  1 active torsions:
REMARK  status: ('A' for Active; 'I' for Inactive)
REMARK    1  A    between atoms: C_6  and  C_7
REMARK                            x       y       z     vdW  Elec       q    Type
REMARK                         _______ _______ _______ _____ _____    ______ ____
ROOT
ATOM      1  C   UNL     1       1.186   8.925  20.021  0.00  0.00    +0.000 C 
ATOM      2  O   UNL     1       0.972   8.655  21.202  0.00  0.00    +0.000 OA
ATOM      3  N   UNL     1       1.969   8.100  19.203  0.00  0.00    +0.000 N 
ATOM      4  C   UNL     1       2.542   8.497  17.903  0.00  0.00    +0.000 C 
ATOM      5  C   UNL     1       3.728   7.661  17.401  0.00  0.00    +0.000 C 
ATOM      6  C   UNL     1       3.533   6.142  17.532  0.00  0.00    +0.000 C 
ATOM      7  C   UNL     1       2.351   5.821  18.433  0.00  0.00    +0.000 C 
ATOM      8  C   UNL     1       2.259   4.467  19.052  0.00  0.00    +0.000 A 
ATOM      9  C   UNL     1       2.475   3.233  18.470  0.00  0.00    +0.000 A 
ATOM     10  C   UNL     1       2.176   2.092  19.215  0.00  0.00    +0.000 A 
ATOM     11  C   UNL     1       1.667   2.197  20.521  0.00  0.00    +0.000 A 
ATOM     12  C   UNL     1       1.447   3.448  21.097  0.00  0.00    +0.000 A 
ATOM     13  C   UNL     1       1.748   4.576  20.356  0.00  0.00    +0.000 A 
ATOM     14  C   UNL     1       1.505   6.016  20.721  0.00  0.00    +0.000 C 
ATOM     15  C   UNL     1       2.360   6.758  19.663  0.00  0.00    +0.000 C 
ENDROOT
BRANCH   1  21
ATOM     16  O   UNL     1      -0.153  15.984  18.665  0.00  0.00    +0.000 OA
ATOM     17  C   UNL     1      -0.062  14.773  18.784  0.00  0.00    +0.000 C 
ATOM     18  C   UNL     1       0.989  14.007  19.600  0.00  0.00    +0.000 C 
ATOM     19  C   UNL     1       0.596  12.580  19.355  0.00  0.00    +0.000 A 
ATOM     20  C   UNL     1       1.172  11.405  19.810  0.00  0.00    +0.000 A 
ATOM     21  C   UNL     1       0.551  10.182  19.495  0.00  0.00    +0.000 A 
ATOM     22  C   UNL     1      -0.673  10.205  18.787  0.00  0.00    +0.000 A 
ATOM     23  C   UNL     1      -1.204  11.386  18.260  0.00  0.00    +0.000 A 
ATOM     24  C   UNL     1      -0.548  12.551  18.565  0.00  0.00    +0.000 A 
ATOM     25  N   UNL     1      -0.913  13.835  18.213  0.00  0.00    +0.000 N 
ATOM     26  H   UNL     1      -1.704  14.094  17.641  0.00  0.00    +0.000 HD
ENDBRANCH   1  21
TORSDOF 1
ENDMDL
MODEL 2
REMARK VINA RESULT:      -8.5      2.743      4.234
REMARK  Name = 
REMARK  1 active torsions:
REMARK  status: ('A' for Active; 'I' for Inactive)
REMARK    1  A    between atoms: C_6  and  C_7
REMARK                            x       y       z     vdW  Elec       q    Type
REMARK                         _______ _______ _______ _____ _____    ______ ____
ROOT
ATOM      1  C   UNL     1       1.615   8.289  19.384  0.00  0.00    +0.000 C 
ATOM      2  O   UNL     1       1.765   8.896  18.324  0.00  0.00    +0.000 OA
ATOM      3  N   UNL     1       2.091   6.984  19.564  0.00  0.00    +0.000 N 
ATOM      4  C   UNL     1       1.680   6.077  20.652  0.00  0.00    +0.000 C 
ATOM      5  C   UNL     1       1.926   4.580  20.415  0.00  0.00    +0.000 C 
ATOM      6  C   UNL     1       3.315   4.247  19.849  0.00  0.00    +0.000 C 
ATOM      7  C   UNL     1       4.010   5.500  19.341  0.00  0.00    +0.000 C 
ATOM      8  C   UNL     1       5.131   5.362  18.367  0.00  0.00    +0.000 A 
ATOM      9  C   UNL     1       6.193   4.478  18.389  0.00  0.00    +0.000 A 
ATOM     10  C   UNL     1       7.207   4.643  17.447  0.00  0.00    +0.000 A 
ATOM     11  C   UNL     1       7.151   5.682  16.502  0.00  0.00    +0.000 A 
ATOM     12  C   UNL     1       6.078   6.574  16.492  0.00  0.00    +0.000 A 
ATOM     13  C   UNL     1       5.074   6.404  17.427  0.00  0.00    +0.000 A 
ATOM     14  C   UNL     1       3.881   7.288  17.676  0.00  0.00    +0.000 C 
ATOM     15  C   UNL     1       3.000   6.384  18.574  0.00  0.00    +0.000 C 
ENDROOT
BRANCH   1  21
ATOM     16  O   UNL     1      -2.650  13.066  22.911  0.00  0.00    +0.000 OA
ATOM     17  C   UNL     1      -1.909  12.199  22.478  0.00  0.00    +0.000 C 
ATOM     18  C   UNL     1      -1.549  11.949  21.007  0.00  0.00    +0.000 C 
ATOM     19  C   UNL     1      -0.629  10.769  21.107  0.00  0.00    +0.000 A 
ATOM     20  C   UNL     1       0.022  10.058  20.112  0.00  0.00    +0.000 A 
ATOM     21  C   UNL     1       0.906   9.028  20.485  0.00  0.00    +0.000 A 
ATOM     22  C   UNL     1       1.147   8.805  21.860  0.00  0.00    +0.000 A 
ATOM     23  C   UNL     1       0.425   9.468  22.857  0.00  0.00    +0.000 A 
ATOM     24  C   UNL     1      -0.448  10.442  22.447  0.00  0.00    +0.000 A 
ATOM     25  N   UNL     1      -1.220  11.265  23.243  0.00  0.00    +0.000 N 
ATOM     26  H   UNL     1      -1.276  11.237  24.250  0.00  0.00    +0.000 HD
ENDBRANCH   1  21
TORSDOF 1
ENDMDL
MODEL 3
REMARK VINA RESULT:      -8.2      3.699      5.884
REMARK  Name = 
REMARK  1 active torsions:
REMARK  status: ('A' for Active; 'I' for Inactive)
REMARK    1  A    between atoms: C_6  and  C_7
REMARK                            x       y       z     vdW  Elec       q    Type
REMARK                         _______ _______ _______ _____ _____    ______ ____
ROOT
ATOM      1  C   UNL     1       3.396   5.313  17.782  0.00  0.00    +0.000 C 
ATOM      2  O   UNL     1       2.719   4.397  17.316  0.00  0.00    +0.000 OA
ATOM      3  N   UNL     1       4.759   5.450  17.489  0.00  0.00    +0.000 N 
ATOM      4  C   UNL     1       5.705   6.295  18.241  0.00  0.00    +0.000 C 
ATOM      5  C   UNL     1       7.194   5.954  18.082  0.00  0.00    +0.000 C 
ATOM      6  C   UNL     1       7.635   5.704  16.631  0.00  0.00    +0.000 C 
ATOM      7  C   UNL     1       6.431   5.526  15.719  0.00  0.00    +0.000 C 
ATOM      8  C   UNL     1       6.613   4.842  14.406  0.00  0.00    +0.000 A 
ATOM      9  C   UNL     1       7.614   5.017  13.470  0.00  0.00    +0.000 A 
ATOM     10  C   UNL     1       7.485   4.372  12.241  0.00  0.00    +0.000 A 
ATOM     11  C   UNL     1       6.367   3.567  11.962  0.00  0.00    +0.000 A 
ATOM     12  C   UNL     1       5.358   3.403  12.912  0.00  0.00    +0.000 A 
ATOM     13  C   UNL     1       5.492   4.042  14.130  0.00  0.00    +0.000 A 
ATOM     14  C   UNL     1       4.500   4.096  15.261  0.00  0.00    +0.000 C 
ATOM     15  C   UNL     1       5.371   4.645  16.419  0.00  0.00    +0.000 C 
ENDROOT
BRANCH   1  21
ATOM     16  O   UNL     1       0.255  11.425  20.279  0.00  0.00    +0.000 OA
ATOM     17  C   UNL     1       0.727  10.332  20.011  0.00  0.00    +0.000 C 
ATOM     18  C   UNL     1       1.442   9.934  18.712  0.00  0.00    +0.000 C 
ATOM     19  C   UNL     1       1.776   8.494  18.967  0.00  0.00    +0.000 A 
ATOM     20  C   UNL     1       2.416   7.569  18.158  0.00  0.00    +0.000 A 
ATOM     21  C   UNL     1       2.681   6.287  18.675  0.00  0.00    +0.000 A 
ATOM     22  C   UNL     1       2.347   6.017  20.022  0.00  0.00    +0.000 A 
ATOM     23  C   UNL     1       1.628   6.925  20.805  0.00  0.00    +0.000 A 
ATOM     24  C   UNL     1       1.364   8.150  20.250  0.00  0.00    +0.000 A 
ATOM     25  N   UNL     1       0.727   9.221  20.845  0.00  0.00    +0.000 N 
ATOM     26  H   UNL     1       0.330   9.237  21.773  0.00  0.00    +0.000 HD
ENDBRANCH   1  21
TORSDOF 1
ENDMDL
MODEL 4
REMARK VINA RESULT:      -7.9      1.213      1.224
REMARK  Name = 
REMARK  1 active torsions:
REMARK  status: ('A' for Active; 'I' for Inactive)
REMARK    1  A    between atoms: C_6  and  C_7
REMARK                            x       y       z     vdW  Elec       q    Type
REMARK                         _______ _______ _______ _____ _____    ______ ____
ROOT
ATOM      1  C   UNL     1       1.112   8.859  20.364  0.00  0.00    +0.000 C 
ATOM      2  O   UNL     1       0.961   8.472  21.523  0.00  0.00    +0.000 OA
ATOM      3  N   UNL     1       1.864   8.131  19.432  0.00  0.00    +0.000 N 
ATOM      4  C   UNL     1       2.365   8.662  18.151  0.00  0.00    +0.000 C 
ATOM      5  C   UNL     1       3.535   7.900  17.513  0.00  0.00    +0.000 C 
ATOM      6  C   UNL     1       3.368   6.373  17.505  0.00  0.00    +0.000 C 
ATOM      7  C   UNL     1       2.236   5.944  18.426  0.00  0.00    +0.000 C 
ATOM      8  C   UNL     1       2.194   4.536  18.914  0.00  0.00    +0.000 A 
ATOM      9  C   UNL     1       2.396   3.367  18.205  0.00  0.00    +0.000 A 
ATOM     10  C   UNL     1       2.150   2.155  18.848  0.00  0.00    +0.000 A 
ATOM     11  C   UNL     1       1.706   2.124  20.182  0.00  0.00    +0.000 A 
ATOM     12  C   UNL     1       1.499   3.309  20.887  0.00  0.00    +0.000 A 
ATOM     13  C   UNL     1       1.747   4.509  20.245  0.00  0.00    +0.000 A 
ATOM     14  C   UNL     1       1.504   5.902  20.760  0.00  0.00    +0.000 C 
ATOM     15  C   UNL     1       2.295   6.758  19.740  0.00  0.00    +0.000 C 
ENDROOT
BRANCH   1  21
ATOM     16  O   UNL     1      -2.288  15.311  20.882  0.00  0.00    +0.000 OA
ATOM     17  C   UNL     1      -1.721  14.262  20.624  0.00  0.00    +0.000 C 
ATOM     18  C   UNL     1      -1.200  13.228  21.633  0.00  0.00    +0.000 C 
ATOM     19  C   UNL     1      -0.607  12.185  20.732  0.00  0.00    +0.000 A 
ATOM     20  C   UNL     1       0.038  10.999  21.044  0.00  0.00    +0.000 A 
ATOM     21  C   UNL     1       0.435  10.149  19.994  0.00  0.00    +0.000 A 
ATOM     22  C   UNL     1       0.097  10.505  18.668  0.00  0.00    +0.000 A 
ATOM     23  C   UNL     1      -0.478  11.740  18.355  0.00  0.00    +0.000 A 
ATOM     24  C   UNL     1      -0.819  12.551  19.407  0.00  0.00    +0.000 A 
ATOM     25  N   UNL     1      -1.448  13.779  19.350  0.00  0.00    +0.000 N 
ATOM     26  H   UNL     1      -1.714  14.273  18.511  0.00  0.00    +0.000 HD
ENDBRANCH   1  21
TORSDOF 1
ENDMDL
MODEL 5
REMARK VINA RESULT:      -7.9      1.730      2.456
REMARK  Name = 
REMARK  1 active torsions:
REMARK  status: ('A' for Active; 'I' for Inactive)
REMARK    1  A    between atoms: C_6  and  C_7
REMARK                            x       y       z     vdW  Elec       q    Type
REMARK                         _______ _______ _______ _____ _____    ______ ____
ROOT
ATOM      1  C   UNL     1       0.941   8.758  20.026  0.00  0.00    +0.000 C 
ATOM      2  O   UNL     1       0.846   8.590  21.242  0.00  0.00    +0.000 OA
ATOM      3  N   UNL     1       1.838   8.019  19.245  0.00  0.00    +0.000 N 
ATOM      4  C   UNL     1       2.251   8.369  17.873  0.00  0.00    +0.000 C 
ATOM      5  C   UNL     1       3.560   7.738  17.377  0.00  0.00    +0.000 C 
ATOM      6  C   UNL     1       3.695   6.237  17.680  0.00  0.00    +0.000 C 
ATOM      7  C   UNL     1       2.652   5.790  18.692  0.00  0.00    +0.000 C 
ATOM      8  C   UNL     1       2.876   4.528  19.454  0.00  0.00    +0.000 A 
ATOM      9  C   UNL     1       3.317   3.304  18.990  0.00  0.00    +0.000 A 
ATOM     10  C   UNL     1       3.301   2.222  19.869  0.00  0.00    +0.000 A 
ATOM     11  C   UNL     1       2.846   2.373  21.191  0.00  0.00    +0.000 A 
ATOM     12  C   UNL     1       2.396   3.612  21.647  0.00  0.00    +0.000 A 
ATOM     13  C   UNL     1       2.418   4.683  20.772  0.00  0.00    +0.000 A 
ATOM     14  C   UNL     1       1.896   6.076  21.001  0.00  0.00    +0.000 C 
ATOM     15  C   UNL     1       2.524   6.847  19.813  0.00  0.00    +0.000 C 
ENDROOT
BRANCH   1  21
ATOM     16  O   UNL     1      -4.731  11.867  16.616  0.00  0.00    +0.000 OA
ATOM     17  C   UNL     1      -3.727  11.509  17.210  0.00  0.00    +0.000 C 
ATOM     18  C   UNL     1      -3.335  10.069  17.568  0.00  0.00    +0.000 C 
ATOM     19  C   UNL     1      -2.033  10.268  18.286  0.00  0.00    +0.000 A 
ATOM     20  C   UNL     1      -1.186   9.341  18.872  0.00  0.00    +0.000 A 
ATOM     21  C   UNL     1       0.031   9.789  19.419  0.00  0.00    +0.000 A 
ATOM     22  C   UNL     1       0.372  11.155  19.288  0.00  0.00    +0.000 A 
ATOM     23  C   UNL     1      -0.522  12.097  18.772  0.00  0.00    +0.000 A 
ATOM     24  C   UNL     1      -1.710  11.621  18.279  0.00  0.00    +0.000 A 
ATOM     25  N   UNL     1      -2.716  12.345  17.672  0.00  0.00    +0.000 N 
ATOM     26  H   UNL     1      -2.733  13.345  17.538  0.00  0.00    +0.000 HD
ENDBRANCH   1  21
TORSDOF 1
ENDMDL
MODEL 6
REMARK VINA RESULT:      -7.8      3.391      7.763
REMARK  Name = 
REMARK  1 active torsions:
REMARK  status: ('A' for Active; 'I' for Inactive)
REMARK    1  A    between atoms: C_6  and  C_7
REMARK                            x       y       z     vdW  Elec       q    Type
REMARK                         _______ _______ _______ _____ _____    ______ ____
ROOT
ATOM      1  C   UNL     1       2.445   6.493  19.481  0.00  0.00    +0.000 C 
ATOM      2  O   UNL     1       1.848   5.790  20.296  0.00  0.00    +0.000 OA
ATOM      3  N   UNL     1       1.969   7.756  19.104  0.00  0.00    +0.000 N 
ATOM      4  C   UNL     1       2.422   8.511  17.922  0.00  0.00    +0.000 C 
ATOM      5  C   UNL     1       1.477   9.611  17.417  0.00  0.00    +0.000 C 
ATOM      6  C   UNL     1       0.907  10.513  18.522  0.00  0.00    +0.000 C 
ATOM      7  C   UNL     1       1.144   9.907  19.897  0.00  0.00    +0.000 C 
ATOM      8  C   UNL     1       0.305  10.359  21.043  0.00  0.00    +0.000 A 
ATOM      9  C   UNL     1      -0.059  11.645  21.395  0.00  0.00    +0.000 A 
ATOM     10  C   UNL     1      -0.725  11.832  22.605  0.00  0.00    +0.000 A 
ATOM     11  C   UNL     1      -1.017  10.743  23.444  0.00  0.00    +0.000 A 
ATOM     12  C   UNL     1      -0.640   9.450  23.082  0.00  0.00    +0.000 A 
ATOM     13  C   UNL     1       0.018   9.268  21.880  0.00  0.00    +0.000 A 
ATOM     14  C   UNL     1       0.606   7.997  21.328  0.00  0.00    +0.000 C 
ATOM     15  C   UNL     1       0.869   8.386  19.852  0.00  0.00    +0.000 C 
ENDROOT
BRANCH   1  21
ATOM     16  O   UNL     1       7.746   4.639  14.800  0.00  0.00    +0.000 OA
ATOM     17  C   UNL     1       6.964   4.882  15.704  0.00  0.00    +0.000 C 
ATOM     18  C   UNL     1       5.613   5.600  15.581  0.00  0.00    +0.000 C 
ATOM     19  C   UNL     1       5.133   5.609  17.003  0.00  0.00    +0.000 A 
ATOM     20  C   UNL     1       3.973   6.133  17.550  0.00  0.00    +0.000 A 
ATOM     21  C   UNL     1       3.722   5.933  18.921  0.00  0.00    +0.000 A 
ATOM     22  C   UNL     1       4.628   5.147  19.669  0.00  0.00    +0.000 A 
ATOM     23  C   UNL     1       5.836   4.693  19.131  0.00  0.00    +0.000 A 
ATOM     24  C   UNL     1       6.054   4.937  17.800  0.00  0.00    +0.000 A 
ATOM     25  N   UNL     1       7.135   4.538  17.040  0.00  0.00    +0.000 N 
ATOM     26  H   UNL     1       7.944   4.035  17.373  0.00  0.00    +0.000 HD
ENDBRANCH   1  21
TORSDOF 1
ENDMDL
MODEL 7
REMARK VINA RESULT:      -7.6      4.275      5.813
REMARK  Name = 
REMARK  1 active torsions:
REMARK  status: ('A' for Active; 'I' for Inactive)
REMARK    1  A    between atoms: C_6  and  C_7
REMARK                            x       y       z     vdW  Elec       q    Type
REMARK                         _______ _______ _______ _____ _____    ______ ____
ROOT
ATOM      1  C   UNL     1      -0.777  11.891  22.590  0.00  0.00    +0.000 C 
ATOM      2  O   UNL     1      -0.437  11.014  23.384  0.00  0.00    +0.000 OA
ATOM      3  N   UNL     1      -0.100  12.100  21.382  0.00  0.00    +0.000 N 
ATOM      4  C   UNL     1      -0.220  13.306  20.543  0.00  0.00    +0.000 C 
ATOM      5  C   UNL     1       0.922  13.557  19.547  0.00  0.00    +0.000 C 
ATOM      6  C   UNL     1       1.354  12.314  18.753  0.00  0.00    +0.000 C 
ATOM      7  C   UNL     1       0.780  11.047  19.369  0.00  0.00    +0.000 C 
ATOM      8  C   UNL     1       1.416   9.736  19.054  0.00  0.00    +0.000 A 
ATOM      9  C   UNL     1       1.841   9.251  17.831  0.00  0.00    +0.000 A 
ATOM     10  C   UNL     1       2.266   7.926  17.761  0.00  0.00    +0.000 A 
ATOM     11  C   UNL     1       2.262   7.105  18.902  0.00  0.00    +0.000 A 
ATOM     12  C   UNL     1       1.825   7.602  20.130  0.00  0.00    +0.000 A 
ATOM     13  C   UNL     1       1.407   8.919  20.196  0.00  0.00    +0.000 A 
ATOM     14  C   UNL     1       0.806   9.642  21.371  0.00  0.00    +0.000 C 
ATOM     15  C   UNL     1       0.890  11.118  20.909  0.00  0.00    +0.000 C 
ENDROOT
BRANCH   1  21
ATOM     16  O   UNL     1      -4.891  17.267  25.355  0.00  0.00    +0.000 OA
ATOM     17  C   UNL     1      -4.353  16.304  24.834  0.00  0.00    +0.000 C 
ATOM     18  C   UNL     1      -2.848  16.006  24.787  0.00  0.00    +0.000 C 
ATOM     19  C   UNL     1      -2.807  14.718  24.019  0.00  0.00    +0.000 A 
ATOM     20  C   UNL     1      -1.726  13.944  23.631  0.00  0.00    +0.000 A 
ATOM     21  C   UNL     1      -1.970  12.721  22.978  0.00  0.00    +0.000 A 
ATOM     22  C   UNL     1      -3.308  12.299  22.806  0.00  0.00    +0.000 A 
ATOM     23  C   UNL     1      -4.393  13.122  23.123  0.00  0.00    +0.000 A 
ATOM     24  C   UNL     1      -4.107  14.318  23.729  0.00  0.00    +0.000 A 
ATOM     25  N   UNL     1      -5.005  15.262  24.184  0.00  0.00    +0.000 N 
ATOM     26  H   UNL     1      -6.010  15.218  24.099  0.00  0.00    +0.000 HD
ENDBRANCH   1  21
TORSDOF 1
ENDMDL
MODEL 8
REMARK VINA RESULT:      -7.6      4.349      5.985
REMARK  Name = 
REMARK  1 active torsions:
REMARK  status: ('A' for Active; 'I' for Inactive)
REMARK    1  A    between atoms: C_6  and  C_7
REMARK                            x       y       z     vdW  Elec       q    Type
REMARK                         _______ _______ _______ _____ _____    ______ ____
ROOT
ATOM      1  C   UNL     1      -0.792  11.812  22.662  0.00  0.00    +0.000 C 
ATOM      2  O   UNL     1      -0.417  10.936  23.442  0.00  0.00    +0.000 OA
ATOM      3  N   UNL     1      -0.147  12.041  21.440  0.00  0.00    +0.000 N 
ATOM      4  C   UNL     1      -0.310  13.250  20.612  0.00  0.00    +0.000 C 
ATOM      5  C   UNL     1       0.803  13.528  19.591  0.00  0.00    +0.000 C 
ATOM      6  C   UNL     1       1.239  12.298  18.779  0.00  0.00    +0.000 C 
ATOM      7  C   UNL     1       0.703  11.017  19.399  0.00  0.00    +0.000 C 
ATOM      8  C   UNL     1       1.356   9.720  19.060  0.00  0.00    +0.000 A 
ATOM      9  C   UNL     1       1.760   9.251  17.825  0.00  0.00    +0.000 A 
ATOM     10  C   UNL     1       2.209   7.934  17.735  0.00  0.00    +0.000 A 
ATOM     11  C   UNL     1       2.247   7.106  18.871  0.00  0.00    +0.000 A 
ATOM     12  C   UNL     1       1.831   7.588  20.112  0.00  0.00    +0.000 A 
ATOM     13  C   UNL     1       1.390   8.896  20.196  0.00  0.00    +0.000 A 
ATOM     14  C   UNL     1       0.804   9.600  21.391  0.00  0.00    +0.000 C 
ATOM     15  C   UNL     1       0.849  11.081  20.937  0.00  0.00    +0.000 C 
ENDROOT
BRANCH   1  21
ATOM     16  O   UNL     1      -7.651  14.284  23.211  0.00  0.00    +0.000 OA
ATOM     17  C   UNL     1      -6.468  13.986  23.243  0.00  0.00    +0.000 C 
ATOM     18  C   UNL     1      -5.775  12.888  22.425  0.00  0.00    +0.000 C 
ATOM     19  C   UNL     1      -4.355  12.994  22.899  0.00  0.00    +0.000 A 
ATOM     20  C   UNL     1      -3.238  12.256  22.543  0.00  0.00    +0.000 A 
ATOM     21  C   UNL     1      -1.990  12.616  23.084  0.00  0.00    +0.000 A 
ATOM     22  C   UNL     1      -1.914  13.759  23.913  0.00  0.00    +0.000 A 
ATOM     23  C   UNL     1      -3.055  14.448  24.334  0.00  0.00    +0.000 A 
ATOM     24  C   UNL     1      -4.254  14.043  23.807  0.00  0.00    +0.000 A 
ATOM     25  N   UNL     1      -5.497  14.602  24.024  0.00  0.00    +0.000 N 
ATOM     26  H   UNL     1      -5.703  15.376  24.640  0.00  0.00    +0.000 HD
ENDBRANCH   1  21
TORSDOF 1
ENDMDL
MODEL 9
REMARK VINA RESULT:      -7.5      2.511      4.038
REMARK  Name = 
REMARK  1 active torsions:
REMARK  status: ('A' for Active; 'I' for Inactive)
REMARK    1  A    between atoms: C_6  and  C_7
REMARK                            x       y       z     vdW  Elec       q    Type
REMARK                         _______ _______ _______ _____ _____    ______ ____
ROOT
ATOM      1  C   UNL     1       1.815   8.818  18.429  0.00  0.00    +0.000 C 
ATOM      2  O   UNL     1       1.961   9.068  17.232  0.00  0.00    +0.000 OA
ATOM      3  N   UNL     1       2.215   7.596  18.984  0.00  0.00    +0.000 N 
ATOM      4  C   UNL     1       1.791   7.088  20.302  0.00  0.00    +0.000 C 
ATOM      5  C   UNL     1       1.933   5.575  20.523  0.00  0.00    +0.000 C 
ATOM      6  C   UNL     1       3.275   4.989  20.057  0.00  0.00    +0.000 C 
ATOM      7  C   UNL     1       4.027   5.980  19.181  0.00  0.00    +0.000 C 
ATOM      8  C   UNL     1       5.097   5.476  18.274  0.00  0.00    +0.000 A 
ATOM      9  C   UNL     1       6.101   4.565  18.541  0.00  0.00    +0.000 A 
ATOM     10  C   UNL     1       7.085   4.367  17.573  0.00  0.00    +0.000 A 
ATOM     11  C   UNL     1       7.057   5.077  16.360  0.00  0.00    +0.000 A 
ATOM     12  C   UNL     1       6.043   6.000  16.103  0.00  0.00    +0.000 A 
ATOM     13  C   UNL     1       5.068   6.191  17.065  0.00  0.00    +0.000 A 
ATOM     14  C   UNL     1       3.944   7.192  17.058  0.00  0.00    +0.000 C 
ATOM     15  C   UNL     1       3.044   6.664  18.203  0.00  0.00    +0.000 C 
ENDROOT
BRANCH   1  21
ATOM     16  O   UNL     1      -1.705  12.247  23.843  0.00  0.00    +0.000 OA
ATOM     17  C   UNL     1      -1.088  11.833  22.874  0.00  0.00    +0.000 C 
ATOM     18  C   UNL     1      -0.741  10.370  22.564  0.00  0.00    +0.000 C 
ATOM     19  C   UNL     1       0.016  10.496  21.275  0.00  0.00    +0.000 A 
ATOM     20  C   UNL     1       0.611   9.521  20.490  0.00  0.00    +0.000 A 
ATOM     21  C   UNL     1       1.198   9.901  19.269  0.00  0.00    +0.000 A 
ATOM     22  C   UNL     1       1.097  11.250  18.858  0.00  0.00    +0.000 A 
ATOM     23  C   UNL     1       0.570  12.242  19.691  0.00  0.00    +0.000 A 
ATOM     24  C   UNL     1       0.037  11.831  20.886  0.00  0.00    +0.000 A 
ATOM     25  N   UNL     1      -0.587  12.612  21.838  0.00  0.00    +0.000 N 
ATOM     26  H   UNL     1      -0.706  13.613  21.802  0.00  0.00    +0.000 HD
ENDBRANCH   1  21
TORSDOF 1
ENDMDL
