MODEL 1
REMARK VINA RESULT:      -7.6      0.000      0.000
REMARK  Name = 
REMARK  11 active torsions:
REMARK  status: ('A' for Active; 'I' for Inactive)
REMARK    1  A    between atoms: C_1  and  C_2
REMARK    2  A    between atoms: C_2  and  C_3
REMARK    3  A    between atoms: C_3  and  C_4
REMARK    4  A    between atoms: C_4  and  C_5
REMARK    5  A    between atoms: C_4  and  N_14
REMARK    6  A    between atoms: C_5  and  O_6
REMARK    7  A    between atoms: C_5  and  C_7
REMARK    8  A    between atoms: C_10  and  O_11
REMARK    9  A    between atoms: C_17  and  O_18
REMARK   10  A    between atoms: C_17  and  C_19
REMARK   11  A    between atoms: C_19  and  C_20
REMARK                            x       y       z     vdW  Elec       q    Type
REMARK                         _______ _______ _______ _____ _____    ______ ____
ROOT
ATOM      1  C   UNL     1       3.245   7.223  18.680  0.00  0.00    +0.000 C 
ENDROOT
BRANCH   1   2
ATOM      2  N   UNL     1       4.254   6.444  17.877  0.00  0.00    +0.000 NA
ATOM      3  C   UNL     1       5.442   6.079  18.666  0.00  0.00    +0.000 C 
ATOM      4  C   UNL     1       6.409   5.173  17.891  0.00  0.00    +0.000 C 
ATOM      5  C   UNL     1       6.835   5.802  16.557  0.00  0.00    +0.000 C 
ATOM      6  C   UNL     1       5.581   6.223  15.787  0.00  0.00    +0.000 C 
ATOM      7  C   UNL     1       4.639   7.087  16.617  0.00  0.00    +0.000 C 
BRANCH   5   8
ATOM      8  O   UNL     1       7.610   6.982  16.808  0.00  0.00    +0.000 OA
ATOM      9  H   UNL     1       7.049   7.750  16.590  0.00  0.00    +0.000 HD
ENDBRANCH   5   8
BRANCH   5  10
ATOM     10  C   UNL     1       7.635   4.848  15.638  0.00  0.00    +0.000 C 
BRANCH  10  11
ATOM     11  C   UNL     1       6.994   4.492  14.319  0.00  0.00    +0.000 A 
ATOM     12  C   UNL     1       7.611   4.849  13.112  0.00  0.00    +0.000 A 
ATOM     13  C   UNL     1       7.043   4.477  11.895  0.00  0.00    +0.000 A 
ATOM     14  C   UNL     1       5.855   3.747  11.871  0.00  0.00    +0.000 A 
ATOM     15  C   UNL     1       5.231   3.392  13.067  0.00  0.00    +0.000 A 
ATOM     16  C   UNL     1       5.797   3.765  14.285  0.00  0.00    +0.000 A 
ENDBRANCH  10  11
ENDBRANCH   5  10
ENDBRANCH   1   2
BRANCH   1  17
ATOM     17  C   UNL     1       2.148   7.891  17.802  0.00  0.00    +0.000 C 
BRANCH  17  19
ATOM     18  C   UNL     1       0.566   9.863  18.200  0.00  0.00    +0.000 C 
ATOM     19  C   UNL     1       1.994   9.412  17.934  0.00  0.00    +0.000 C 
ENDBRANCH  17  19
ENDBRANCH   1  17
BRANCH   1  20
ATOM     20  C   UNL     1       2.619   6.422  19.903  0.00  0.00    +0.000 C 
BRANCH  20  21
ATOM     21  C   UNL     1       2.009   5.054  19.578  0.00  0.00    +0.000 A 
ATOM     22  C   UNL     1       2.104   4.515  18.284  0.00  0.00    +0.000 A 
ATOM     23  C   UNL     1       1.537   3.274  17.969  0.00  0.00    +0.000 A 
ATOM     24  C   UNL     1       0.891   2.552  18.959  0.00  0.00    +0.000 A 
ATOM     25  C   UNL     1       0.831   3.027  20.261  0.00  0.00    +0.000 A 
ATOM     26  C   UNL     1       1.398   4.269  20.571  0.00  0.00    +0.000 A 
BRANCH  24  27
ATOM     27  O   UNL     1       0.296   1.353  18.685  0.00  0.00    +0.000 OA
ATOM     28  H   UNL     1       0.242   0.846  19.509  0.00  0.00    +0.000 HD
ENDBRANCH  24  27
ENDBRANCH  20  21
BRANCH  20  29
ATOM     29  O   UNL     1       1.696   7.256  20.618  0.00  0.00    +0.000 OA
ATOM     30  H   UNL     1       0.873   7.271  20.107  0.00  0.00    +0.000 HD
ENDBRANCH  20  29
ENDBRANCH   1  20
TORSDOF 10
ENDMDL
MODEL 2
REMARK VINA RESULT:      -7.5      2.066      7.597
REMARK  Name = 
REMARK  11 active torsions:
REMARK  status: ('A' for Active; 'I' for Inactive)
REMARK    1  A    between atoms: C_1  and  C_2
REMARK    2  A    between atoms: C_2  and  C_3
REMARK    3  A    between atoms: C_3  and  C_4
REMARK    4  A    between atoms: C_4  and  C_5
REMARK    5  A    between atoms: C_4  and  N_14
REMARK    6  A    between atoms: C_5  and  O_6
REMARK    7  A    between atoms: C_5  and  C_7
REMARK    8  A    between atoms: C_10  and  O_11
REMARK    9  A    between atoms: C_17  and  O_18
REMARK   10  A    between atoms: C_17  and  C_19
REMARK   11  A    between atoms: C_19  and  C_20
REMARK                            x       y       z     vdW  Elec       q    Type
REMARK                         _______ _______ _______ _____ _____    ______ ____
ROOT
ATOM      1  C   UNL     1       3.312   4.580  19.402  0.00  0.00    +0.000 C 
ENDROOT
BRANCH   1   2
ATOM      2  N   UNL     1       3.145   6.064  19.204  0.00  0.00    +0.000 NA
ATOM      3  C   UNL     1       1.969   6.598  19.908  0.00  0.00    +0.000 C 
ATOM      4  C   UNL     1       1.871   8.128  19.819  0.00  0.00    +0.000 C 
ATOM      5  C   UNL     1       1.882   8.616  18.364  0.00  0.00    +0.000 C 
ATOM      6  C   UNL     1       3.082   7.998  17.643  0.00  0.00    +0.000 C 
ATOM      7  C   UNL     1       3.150   6.483  17.799  0.00  0.00    +0.000 C 
BRANCH   5   8
ATOM      8  O   UNL     1       0.693   8.165  17.698  0.00  0.00    +0.000 OA
ATOM      9  H   UNL     1       0.068   7.873  18.387  0.00  0.00    +0.000 HD
ENDBRANCH   5   8
BRANCH   5  10
ATOM     10  C   UNL     1       2.002  10.152  18.215  0.00  0.00    +0.000 C 
BRANCH  10  11
ATOM     11  C   UNL     1       0.956  10.978  18.922  0.00  0.00    +0.000 A 
ATOM     12  C   UNL     1      -0.398  10.845  18.587  0.00  0.00    +0.000 A 
ATOM     13  C   UNL     1      -1.368  11.573  19.274  0.00  0.00    +0.000 A 
ATOM     14  C   UNL     1      -0.996  12.441  20.300  0.00  0.00    +0.000 A 
ATOM     15  C   UNL     1       0.350  12.585  20.637  0.00  0.00    +0.000 A 
ATOM     16  C   UNL     1       1.321  11.858  19.950  0.00  0.00    +0.000 A 
ENDBRANCH  10  11
ENDBRANCH   5  10
ENDBRANCH   1   2
BRANCH   1  17
ATOM     17  C   UNL     1       2.341   3.733  18.528  0.00  0.00    +0.000 C 
BRANCH  17  19
ATOM     18  C   UNL     1       1.325   3.084  20.786  0.00  0.00    +0.000 C 
ATOM     19  C   UNL     1       1.311   2.879  19.279  0.00  0.00    +0.000 C 
ENDBRANCH  17  19
ENDBRANCH   1  17
BRANCH   1  20
ATOM     20  C   UNL     1       4.813   4.066  19.286  0.00  0.00    +0.000 C 
BRANCH  20  21
ATOM     21  C   UNL     1       5.563   4.441  18.003  0.00  0.00    +0.000 A 
ATOM     22  C   UNL     1       5.254   3.816  16.783  0.00  0.00    +0.000 A 
ATOM     23  C   UNL     1       5.942   4.137  15.607  0.00  0.00    +0.000 A 
ATOM     24  C   UNL     1       6.930   5.108  15.640  0.00  0.00    +0.000 A 
ATOM     25  C   UNL     1       7.218   5.787  16.816  0.00  0.00    +0.000 A 
ATOM     26  C   UNL     1       6.528   5.461  17.990  0.00  0.00    +0.000 A 
BRANCH  24  27
ATOM     27  O   UNL     1       7.647   5.426  14.522  0.00  0.00    +0.000 OA
ATOM     28  H   UNL     1       8.493   5.807  14.803  0.00  0.00    +0.000 HD
ENDBRANCH  24  27
ENDBRANCH  20  21
BRANCH  20  29
ATOM     29  O   UNL     1       4.872   2.655  19.540  0.00  0.00    +0.000 OA
ATOM     30  H   UNL     1       5.737   2.475  19.938  0.00  0.00    +0.000 HD
ENDBRANCH  20  29
ENDBRANCH   1  20
TORSDOF 10
ENDMDL
MODEL 3
REMARK VINA RESULT:      -7.4      3.380      6.305
REMARK  Name = 
REMARK  11 active torsions:
REMARK  status: ('A' for Active; 'I' for Inactive)
REMARK    1  A    between atoms: C_1  and  C_2
REMARK    2  A    between atoms: C_2  and  C_3
REMARK    3  A    between atoms: C_3  and  C_4
REMARK    4  A    between atoms: C_4  and  C_5
REMARK    5  A    between atoms: C_4  and  N_14
REMARK    6  A    between atoms: C_5  and  O_6
REMARK    7  A    between atoms: C_5  and  C_7
REMARK    8  A    between atoms: C_10  and  O_11
REMARK    9  A    between atoms: C_17  and  O_18
REMARK   10  A    between atoms: C_17  and  C_19
REMARK   11  A    between atoms: C_19  and  C_20
REMARK                            x       y       z     vdW  Elec       q    Type
REMARK                         _______ _______ _______ _____ _____    ______ ____
ROOT
ATOM      1  C   UNL     1       0.610  10.440  18.886  0.00  0.00    +0.000 C 
ENDROOT
BRANCH   1   2
ATOM      2  N   UNL     1       1.628   9.334  18.987  0.00  0.00    +0.000 NA
ATOM      3  C   UNL     1       2.047   8.831  17.669  0.00  0.00    +0.000 C 
ATOM      4  C   UNL     1       3.180   7.799  17.764  0.00  0.00    +0.000 C 
ATOM      5  C   UNL     1       2.808   6.627  18.683  0.00  0.00    +0.000 C 
ATOM      6  C   UNL     1       2.322   7.184  20.023  0.00  0.00    +0.000 C 
ATOM      7  C   UNL     1       1.226   8.232  19.866  0.00  0.00    +0.000 C 
BRANCH   5   8
ATOM      8  O   UNL     1       1.727   5.885  18.101  0.00  0.00    +0.000 OA
ATOM      9  H   UNL     1       1.412   5.254  18.775  0.00  0.00    +0.000 HD
ENDBRANCH   5   8
BRANCH   5  10
ATOM     10  C   UNL     1       3.984   5.668  18.987  0.00  0.00    +0.000 C 
BRANCH  10  11
ATOM     11  C   UNL     1       4.954   5.416  17.859  0.00  0.00    +0.000 A 
ATOM     12  C   UNL     1       6.213   6.029  17.858  0.00  0.00    +0.000 A 
ATOM     13  C   UNL     1       7.127   5.758  16.841  0.00  0.00    +0.000 A 
ATOM     14  C   UNL     1       6.791   4.873  15.816  0.00  0.00    +0.000 A 
ATOM     15  C   UNL     1       5.538   4.261  15.806  0.00  0.00    +0.000 A 
ATOM     16  C   UNL     1       4.623   4.533  16.822  0.00  0.00    +0.000 A 
ENDBRANCH  10  11
ENDBRANCH   5  10
ENDBRANCH   1   2
BRANCH   1  17
ATOM     17  C   UNL     1      -0.855   9.918  18.809  0.00  0.00    +0.000 C 
BRANCH  17  19
ATOM     18  C   UNL     1      -3.066   9.906  17.521  0.00  0.00    +0.000 C 
ATOM     19  C   UNL     1      -1.552  10.030  17.447  0.00  0.00    +0.000 C 
ENDBRANCH  17  19
ENDBRANCH   1  17
BRANCH   1  20
ATOM     20  C   UNL     1       0.773  11.586  19.977  0.00  0.00    +0.000 C 
BRANCH  20  21
ATOM     21  C   UNL     1      -0.337  11.687  21.028  0.00  0.00    +0.000 A 
ATOM     22  C   UNL     1      -0.301  10.896  22.189  0.00  0.00    +0.000 A 
ATOM     23  C   UNL     1      -1.316  10.965  23.149  0.00  0.00    +0.000 A 
ATOM     24  C   UNL     1      -2.366  11.851  22.965  0.00  0.00    +0.000 A 
ATOM     25  C   UNL     1      -2.402  12.690  21.861  0.00  0.00    +0.000 A 
ATOM     26  C   UNL     1      -1.384  12.615  20.902  0.00  0.00    +0.000 A 
BRANCH  24  27
ATOM     27  O   UNL     1      -3.393  11.925  23.862  0.00  0.00    +0.000 OA
ATOM     28  H   UNL     1      -3.363  12.797  24.286  0.00  0.00    +0.000 HD
ENDBRANCH  24  27
ENDBRANCH  20  21
BRANCH  20  29
ATOM     29  O   UNL     1       1.010  12.847  19.335  0.00  0.00    +0.000 OA
ATOM     30  H   UNL     1       0.373  12.919  18.608  0.00  0.00    +0.000 HD
ENDBRANCH  20  29
ENDBRANCH   1  20
TORSDOF 10
ENDMDL
MODEL 4
REMARK VINA RESULT:      -7.4      3.369      6.756
REMARK  Name = 
REMARK  11 active torsions:
REMARK  status: ('A' for Active; 'I' for Inactive)
REMARK    1  A    between atoms: C_1  and  C_2
REMARK    2  A    between atoms: C_2  and  C_3
REMARK    3  A    between atoms: C_3  and  C_4
REMARK    4  A    between atoms: C_4  and  C_5
REMARK    5  A    between atoms: C_4  and  N_14
REMARK    6  A    between atoms: C_5  and  O_6
REMARK    7  A    between atoms: C_5  and  C_7
REMARK    8  A    between atoms: C_10  and  O_11
REMARK    9  A    between atoms: C_17  and  O_18
REMARK   10  A    between atoms: C_17  and  C_19
REMARK   11  A    between atoms: C_19  and  C_20
REMARK                            x       y       z     vdW  Elec       q    Type
REMARK                         _______ _______ _______ _____ _____    ______ ____
ROOT
ATOM      1  C   UNL     1       0.815   9.117  20.165  0.00  0.00    +0.000 C 
ENDROOT
BRANCH   1   2
ATOM      2  N   UNL     1       1.881   8.209  19.610  0.00  0.00    +0.000 NA
ATOM      3  C   UNL     1       1.855   8.141  18.140  0.00  0.00    +0.000 C 
ATOM      4  C   UNL     1       3.022   7.324  17.566  0.00  0.00    +0.000 C 
ATOM      5  C   UNL     1       3.072   5.909  18.159  0.00  0.00    +0.000 C 
ATOM      6  C   UNL     1       3.039   6.011  19.686  0.00  0.00    +0.000 C 
ATOM      7  C   UNL     1       1.885   6.866  20.197  0.00  0.00    +0.000 C 
BRANCH   5   8
ATOM      8  O   UNL     1       1.912   5.173  17.745  0.00  0.00    +0.000 OA
ATOM      9  H   UNL     1       1.968   4.289  18.154  0.00  0.00    +0.000 HD
ENDBRANCH   5   8
BRANCH   5  10
ATOM     10  C   UNL     1       4.345   5.114  17.783  0.00  0.00    +0.000 C 
BRANCH  10  11
ATOM     11  C   UNL     1       5.665   5.784  18.073  0.00  0.00    +0.000 A 
ATOM     12  C   UNL     1       6.458   5.353  19.146  0.00  0.00    +0.000 A 
ATOM     13  C   UNL     1       7.699   5.940  19.384  0.00  0.00    +0.000 A 
ATOM     14  C   UNL     1       8.161   6.963  18.555  0.00  0.00    +0.000 A 
ATOM     15  C   UNL     1       7.377   7.402  17.488  0.00  0.00    +0.000 A 
ATOM     16  C   UNL     1       6.134   6.817  17.250  0.00  0.00    +0.000 A 
ENDBRANCH  10  11
ENDBRANCH   5  10
ENDBRANCH   1   2
BRANCH   1  17
ATOM     17  C   UNL     1       1.232   9.810  21.495  0.00  0.00    +0.000 C 
BRANCH  17  19
ATOM     18  C   UNL     1      -0.741  10.591  22.926  0.00  0.00    +0.000 C 
ATOM     19  C   UNL     1       0.342   9.544  22.716  0.00  0.00    +0.000 C 
ENDBRANCH  17  19
ENDBRANCH   1  17
BRANCH   1  20
ATOM     20  C   UNL     1       0.226  10.158  19.115  0.00  0.00    +0.000 C 
BRANCH  20  21
ATOM     21  C   UNL     1       0.840  11.562  19.133  0.00  0.00    +0.000 A 
ATOM     22  C   UNL     1       2.043  11.828  18.458  0.00  0.00    +0.000 A 
ATOM     23  C   UNL     1       2.623  13.102  18.479  0.00  0.00    +0.000 A 
ATOM     24  C   UNL     1       1.985  14.128  19.159  0.00  0.00    +0.000 A 
ATOM     25  C   UNL     1       0.767  13.914  19.786  0.00  0.00    +0.000 A 
ATOM     26  C   UNL     1       0.191  12.637  19.763  0.00  0.00    +0.000 A 
BRANCH  24  27
ATOM     27  O   UNL     1       2.535  15.376  19.232  0.00  0.00    +0.000 OA
ATOM     28  H   UNL     1       2.175  15.820  20.014  0.00  0.00    +0.000 HD
ENDBRANCH  24  27
ENDBRANCH  20  21
BRANCH  20  29
ATOM     29  O   UNL     1      -1.204  10.205  19.217  0.00  0.00    +0.000 OA
ATOM     30  H   UNL     1      -1.497  10.988  18.728  0.00  0.00    +0.000 HD
ENDBRANCH  20  29
ENDBRANCH   1  20
TORSDOF 10
ENDMDL
MODEL 5
REMARK VINA RESULT:      -7.4      2.940      8.588
REMARK  Name = 
REMARK  11 active torsions:
REMARK  status: ('A' for Active; 'I' for Inactive)
REMARK    1  A    between atoms: C_1  and  C_2
REMARK    2  A    between atoms: C_2  and  C_3
REMARK    3  A    between atoms: C_3  and  C_4
REMARK    4  A    between atoms: C_4  and  C_5
REMARK    5  A    between atoms: C_4  and  N_14
REMARK    6  A    between atoms: C_5  and  O_6
REMARK    7  A    between atoms: C_5  and  C_7
REMARK    8  A    between atoms: C_10  and  O_11
REMARK    9  A    between atoms: C_17  and  O_18
REMARK   10  A    between atoms: C_17  and  C_19
REMARK   11  A    between atoms: C_19  and  C_20
REMARK                            x       y       z     vdW  Elec       q    Type
REMARK                         _______ _______ _______ _____ _____    ______ ____
ROOT
ATOM      1  C   UNL     1       2.593   5.643  19.337  0.00  0.00    +0.000 C 
ENDROOT
BRANCH   1   2
ATOM      2  N   UNL     1       2.330   7.075  19.725  0.00  0.00    +0.000 NA
ATOM      3  C   UNL     1       1.431   7.190  20.885  0.00  0.00    +0.000 C 
ATOM      4  C   UNL     1       1.268   8.640  21.364  0.00  0.00    +0.000 C 
ATOM      5  C   UNL     1       0.792   9.564  20.235  0.00  0.00    +0.000 C 
ATOM      6  C   UNL     1       1.711   9.379  19.024  0.00  0.00    +0.000 C 
ATOM      7  C   UNL     1       1.867   7.917  18.618  0.00  0.00    +0.000 C 
BRANCH   5   8
ATOM      8  O   UNL     1      -0.535   9.191  19.837  0.00  0.00    +0.000 OA
ATOM      9  H   UNL     1      -0.681   8.275  20.138  0.00  0.00    +0.000 HD
ENDBRANCH   5   8
BRANCH   5  10
ATOM     10  C   UNL     1       0.816  11.067  20.599  0.00  0.00    +0.000 C 
BRANCH  10  11
ATOM     11  C   UNL     1      -0.439  11.626  21.224  0.00  0.00    +0.000 A 
ATOM     12  C   UNL     1      -1.328  12.396  20.462  0.00  0.00    +0.000 A 
ATOM     13  C   UNL     1      -2.510  12.871  21.026  0.00  0.00    +0.000 A 
ATOM     14  C   UNL     1      -2.816  12.582  22.356  0.00  0.00    +0.000 A 
ATOM     15  C   UNL     1      -1.936  11.820  23.124  0.00  0.00    +0.000 A 
ATOM     16  C   UNL     1      -0.752  11.347  22.561  0.00  0.00    +0.000 A 
ENDBRANCH  10  11
ENDBRANCH   5  10
ENDBRANCH   1   2
BRANCH   1  17
ATOM     17  C   UNL     1       1.852   5.215  18.037  0.00  0.00    +0.000 C 
BRANCH  17  19
ATOM     18  C   UNL     1       0.981   3.061  19.110  0.00  0.00    +0.000 C 
ATOM     19  C   UNL     1       1.569   3.717  17.870  0.00  0.00    +0.000 C 
ENDBRANCH  17  19
ENDBRANCH   1  17
BRANCH   1  20
ATOM     20  C   UNL     1       4.132   5.244  19.301  0.00  0.00    +0.000 C 
BRANCH  20  21
ATOM     21  C   UNL     1       4.810   5.278  17.927  0.00  0.00    +0.000 A 
ATOM     22  C   UNL     1       5.216   4.089  17.297  0.00  0.00    +0.000 A 
ATOM     23  C   UNL     1       5.851   4.107  16.050  0.00  0.00    +0.000 A 
ATOM     24  C   UNL     1       6.061   5.318  15.411  0.00  0.00    +0.000 A 
ATOM     25  C   UNL     1       5.620   6.505  15.977  0.00  0.00    +0.000 A 
ATOM     26  C   UNL     1       4.986   6.483  17.226  0.00  0.00    +0.000 A 
BRANCH  24  27
ATOM     27  O   UNL     1       6.707   5.380  14.210  0.00  0.00    +0.000 OA
ATOM     28  H   UNL     1       7.320   6.132  14.233  0.00  0.00    +0.000 HD
ENDBRANCH  24  27
ENDBRANCH  20  21
BRANCH  20  29
ATOM     29  O   UNL     1       4.330   3.984  19.957  0.00  0.00    +0.000 OA
ATOM     30  H   UNL     1       4.301   4.154  20.910  0.00  0.00    +0.000 HD
ENDBRANCH  20  29
ENDBRANCH   1  20
TORSDOF 10
ENDMDL
MODEL 6
REMARK VINA RESULT:      -7.3      2.812      5.679
REMARK  Name = 
REMARK  11 active torsions:
REMARK  status: ('A' for Active; 'I' for Inactive)
REMARK    1  A    between atoms: C_1  and  C_2
REMARK    2  A    between atoms: C_2  and  C_3
REMARK    3  A    between atoms: C_3  and  C_4
REMARK    4  A    between atoms: C_4  and  C_5
REMARK    5  A    between atoms: C_4  and  N_14
REMARK    6  A    between atoms: C_5  and  O_6
REMARK    7  A    between atoms: C_5  and  C_7
REMARK    8  A    between atoms: C_10  and  O_11
REMARK    9  A    between atoms: C_17  and  O_18
REMARK   10  A    between atoms: C_17  and  C_19
REMARK   11  A    between atoms: C_19  and  C_20
REMARK                            x       y       z     vdW  Elec       q    Type
REMARK                         _______ _______ _______ _____ _____    ______ ____
ROOT
ATOM      1  C   UNL     1       1.377   9.808  19.539  0.00  0.00    +0.000 C 
ENDROOT
BRANCH   1   2
ATOM      2  N   UNL     1       2.165   8.531  19.409  0.00  0.00    +0.000 NA
ATOM      3  C   UNL     1       2.484   8.204  18.010  0.00  0.00    +0.000 C 
ATOM      4  C   UNL     1       3.398   6.978  17.883  0.00  0.00    +0.000 C 
ATOM      5  C   UNL     1       2.807   5.750  18.589  0.00  0.00    +0.000 C 
ATOM      6  C   UNL     1       2.432   6.136  20.022  0.00  0.00    +0.000 C 
ATOM      7  C   UNL     1       1.557   7.383  20.090  0.00  0.00    +0.000 C 
BRANCH   5   8
ATOM      8  O   UNL     1       1.605   5.343  17.919  0.00  0.00    +0.000 OA
ATOM      9  H   UNL     1       1.750   5.469  16.963  0.00  0.00    +0.000 HD
ENDBRANCH   5   8
BRANCH   5  10
ATOM     10  C   UNL     1       3.776   4.547  18.680  0.00  0.00    +0.000 C 
BRANCH  10  11
ATOM     11  C   UNL     1       4.914   4.527  17.690  0.00  0.00    +0.000 A 
ATOM     12  C   UNL     1       6.220   4.823  18.104  0.00  0.00    +0.000 A 
ATOM     13  C   UNL     1       7.277   4.756  17.199  0.00  0.00    +0.000 A 
ATOM     14  C   UNL     1       7.042   4.394  15.872  0.00  0.00    +0.000 A 
ATOM     15  C   UNL     1       5.745   4.102  15.449  0.00  0.00    +0.000 A 
ATOM     16  C   UNL     1       4.686   4.171  16.353  0.00  0.00    +0.000 A 
ENDBRANCH  10  11
ENDBRANCH   5  10
ENDBRANCH   1   2
BRANCH   1  17
ATOM     17  C   UNL     1       1.574  10.774  18.335  0.00  0.00    +0.000 C 
BRANCH  17  19
ATOM     18  C   UNL     1       0.964  13.256  18.470  0.00  0.00    +0.000 C 
ATOM     19  C   UNL     1       2.039  12.198  18.666  0.00  0.00    +0.000 C 
ENDBRANCH  17  19
ENDBRANCH   1  17
BRANCH   1  20
ATOM     20  C   UNL     1      -0.161   9.599  19.885  0.00  0.00    +0.000 C 
BRANCH  20  21
ATOM     21  C   UNL     1      -1.167  10.213  18.906  0.00  0.00    +0.000 A 
ATOM     22  C   UNL     1      -1.333   9.679  17.617  0.00  0.00    +0.000 A 
ATOM     23  C   UNL     1      -2.236  10.240  16.707  0.00  0.00    +0.000 A 
ATOM     24  C   UNL     1      -3.002  11.328  17.092  0.00  0.00    +0.000 A 
ATOM     25  C   UNL     1      -2.907  11.843  18.377  0.00  0.00    +0.000 A 
ATOM     26  C   UNL     1      -2.001  11.279  19.284  0.00  0.00    +0.000 A 
BRANCH  24  27
ATOM     27  O   UNL     1      -3.870  11.925  16.223  0.00  0.00    +0.000 OA
ATOM     28  H   UNL     1      -3.370  12.555  15.681  0.00  0.00    +0.000 HD
ENDBRANCH  24  27
ENDBRANCH  20  21
BRANCH  20  29
ATOM     29  O   UNL     1      -0.423  10.006  21.236  0.00  0.00    +0.000 OA
ATOM     30  H   UNL     1      -0.659   9.208  21.732  0.00  0.00    +0.000 HD
ENDBRANCH  20  29
ENDBRANCH   1  20
TORSDOF 10
ENDMDL
MODEL 7
REMARK VINA RESULT:      -7.3      2.909      8.520
REMARK  Name = 
REMARK  11 active torsions:
REMARK  status: ('A' for Active; 'I' for Inactive)
REMARK    1  A    between atoms: C_1  and  C_2
REMARK    2  A    between atoms: C_2  and  C_3
REMARK    3  A    between atoms: C_3  and  C_4
REMARK    4  A    between atoms: C_4  and  C_5
REMARK    5  A    between atoms: C_4  and  N_14
REMARK    6  A    between atoms: C_5  and  O_6
REMARK    7  A    between atoms: C_5  and  C_7
REMARK    8  A    between atoms: C_10  and  O_11
REMARK    9  A    between atoms: C_17  and  O_18
REMARK   10  A    between atoms: C_17  and  C_19
REMARK   11  A    between atoms: C_19  and  C_20
REMARK                            x       y       z     vdW  Elec       q    Type
REMARK                         _______ _______ _______ _____ _____    ______ ____
ROOT
ATOM      1  C   UNL     1       2.972   6.094  19.039  0.00  0.00    +0.000 C 
ENDROOT
BRANCH   1   2
ATOM      2  N   UNL     1       2.539   7.506  19.335  0.00  0.00    +0.000 NA
ATOM      3  C   UNL     1       1.570   7.579  20.440  0.00  0.00    +0.000 C 
ATOM      4  C   UNL     1       1.229   9.024  20.832  0.00  0.00    +0.000 C 
ATOM      5  C   UNL     1       0.723   9.836  19.631  0.00  0.00    +0.000 C 
ATOM      6  C   UNL     1       1.722   9.693  18.481  0.00  0.00    +0.000 C 
ATOM      7  C   UNL     1       2.054   8.239  18.162  0.00  0.00    +0.000 C 
BRANCH   5   8
ATOM      8  O   UNL     1      -0.533   9.304  19.187  0.00  0.00    +0.000 OA
ATOM      9  H   UNL     1      -0.337   8.573  18.573  0.00  0.00    +0.000 HD
ENDBRANCH   5   8
BRANCH   5  10
ATOM     10  C   UNL     1       0.568  11.350  19.915  0.00  0.00    +0.000 C 
BRANCH  10  11
ATOM     11  C   UNL     1      -0.594  11.753  20.789  0.00  0.00    +0.000 A 
ATOM     12  C   UNL     1      -1.724  12.364  20.229  0.00  0.00    +0.000 A 
ATOM     13  C   UNL     1      -2.816  12.692  21.029  0.00  0.00    +0.000 A 
ATOM     14  C   UNL     1      -2.791  12.414  22.396  0.00  0.00    +0.000 A 
ATOM     15  C   UNL     1      -1.669  11.811  22.964  0.00  0.00    +0.000 A 
ATOM     16  C   UNL     1      -0.575  11.484  22.164  0.00  0.00    +0.000 A 
ENDBRANCH  10  11
ENDBRANCH   5  10
ENDBRANCH   1   2
BRANCH   1  17
ATOM     17  C   UNL     1       2.138   5.422  17.909  0.00  0.00    +0.000 C 
BRANCH  17  19
ATOM     18  C   UNL     1       2.178   2.870  17.721  0.00  0.00    +0.000 C 
ATOM     19  C   UNL     1       1.454   4.094  18.258  0.00  0.00    +0.000 C 
ENDBRANCH  17  19
ENDBRANCH   1  17
BRANCH   1  20
ATOM     20  C   UNL     1       4.536   5.921  18.804  0.00  0.00    +0.000 C 
BRANCH  20  21
ATOM     21  C   UNL     1       4.965   5.458  17.408  0.00  0.00    +0.000 A 
ATOM     22  C   UNL     1       5.006   6.361  16.332  0.00  0.00    +0.000 A 
ATOM     23  C   UNL     1       5.381   5.949  15.048  0.00  0.00    +0.000 A 
ATOM     24  C   UNL     1       5.744   4.628  14.838  0.00  0.00    +0.000 A 
ATOM     25  C   UNL     1       5.772   3.723  15.889  0.00  0.00    +0.000 A 
ATOM     26  C   UNL     1       5.395   4.141  17.172  0.00  0.00    +0.000 A 
BRANCH  24  27
ATOM     27  O   UNL     1       6.083   4.178  13.594  0.00  0.00    +0.000 OA
ATOM     28  H   UNL     1       6.486   4.912  13.105  0.00  0.00    +0.000 HD
ENDBRANCH  24  27
ENDBRANCH  20  21
BRANCH  20  29
ATOM     29  O   UNL     1       5.101   5.095  19.831  0.00  0.00    +0.000 OA
ATOM     30  H   UNL     1       5.280   4.230  19.433  0.00  0.00    +0.000 HD
ENDBRANCH  20  29
ENDBRANCH   1  20
TORSDOF 10
ENDMDL
MODEL 8
REMARK VINA RESULT:      -7.2      3.201      6.384
REMARK  Name = 
REMARK  11 active torsions:
REMARK  status: ('A' for Active; 'I' for Inactive)
REMARK    1  A    between atoms: C_1  and  C_2
REMARK    2  A    between atoms: C_2  and  C_3
REMARK    3  A    between atoms: C_3  and  C_4
REMARK    4  A    between atoms: C_4  and  C_5
REMARK    5  A    between atoms: C_4  and  N_14
REMARK    6  A    between atoms: C_5  and  O_6
REMARK    7  A    between atoms: C_5  and  C_7
REMARK    8  A    between atoms: C_10  and  O_11
REMARK    9  A    between atoms: C_17  and  O_18
REMARK   10  A    between atoms: C_17  and  C_19
REMARK   11  A    between atoms: C_19  and  C_20
REMARK                            x       y       z     vdW  Elec       q    Type
REMARK                         _______ _______ _______ _____ _____    ______ ____
ROOT
ATOM      1  C   UNL     1       0.996   8.881  20.162  0.00  0.00    +0.000 C 
ENDROOT
BRANCH   1   2
ATOM      2  N   UNL     1       1.949   7.747  19.894  0.00  0.00    +0.000 NA
ATOM      3  C   UNL     1       2.302   7.631  18.469  0.00  0.00    +0.000 C 
ATOM      4  C   UNL     1       3.375   6.563  18.211  0.00  0.00    +0.000 C 
ATOM      5  C   UNL     1       2.959   5.193  18.764  0.00  0.00    +0.000 C 
ATOM      6  C   UNL     1       2.543   5.356  20.228  0.00  0.00    +0.000 C 
ATOM      7  C   UNL     1       1.507   6.456  20.430  0.00  0.00    +0.000 C 
BRANCH   5   8
ATOM      8  O   UNL     1       1.821   4.707  18.039  0.00  0.00    +0.000 OA
ATOM      9  H   UNL     1       1.889   3.735  18.009  0.00  0.00    +0.000 HD
ENDBRANCH   5   8
BRANCH   5  10
ATOM     10  C   UNL     1       4.084   4.131  18.726  0.00  0.00    +0.000 C 
BRANCH  10  11
ATOM     11  C   UNL     1       5.125   4.295  17.647  0.00  0.00    +0.000 A 
ATOM     12  C   UNL     1       6.432   4.680  17.976  0.00  0.00    +0.000 A 
ATOM     13  C   UNL     1       7.405   4.784  16.984  0.00  0.00    +0.000 A 
ATOM     14  C   UNL     1       7.084   4.507  15.655  0.00  0.00    +0.000 A 
ATOM     15  C   UNL     1       5.785   4.129  15.317  0.00  0.00    +0.000 A 
ATOM     16  C   UNL     1       4.810   4.026  16.308  0.00  0.00    +0.000 A 
ENDBRANCH  10  11
ENDBRANCH   5  10
ENDBRANCH   1   2
BRANCH   1  17
ATOM     17  C   UNL     1       0.985   9.332  21.652  0.00  0.00    +0.000 C 
BRANCH  17  19
ATOM     18  C   UNL     1      -0.838  10.436  23.069  0.00  0.00    +0.000 C 
ATOM     19  C   UNL     1      -0.337   9.160  22.411  0.00  0.00    +0.000 C 
ENDBRANCH  17  19
ENDBRANCH   1  17
BRANCH   1  20
ATOM     20  C   UNL     1       1.148  10.116  19.171  0.00  0.00    +0.000 C 
BRANCH  20  21
ATOM     21  C   UNL     1       0.662  11.472  19.695  0.00  0.00    +0.000 A 
ATOM     22  C   UNL     1       1.572  12.415  20.200  0.00  0.00    +0.000 A 
ATOM     23  C   UNL     1       1.140  13.651  20.697  0.00  0.00    +0.000 A 
ATOM     24  C   UNL     1      -0.210  13.960  20.667  0.00  0.00    +0.000 A 
ATOM     25  C   UNL     1      -1.129  13.077  20.121  0.00  0.00    +0.000 A 
ATOM     26  C   UNL     1      -0.692  11.841  19.626  0.00  0.00    +0.000 A 
BRANCH  24  27
ATOM     27  O   UNL     1      -0.675  15.141  21.172  0.00  0.00    +0.000 OA
ATOM     28  H   UNL     1      -0.557  15.126  22.134  0.00  0.00    +0.000 HD
ENDBRANCH  24  27
ENDBRANCH  20  21
BRANCH  20  29
ATOM     29  O   UNL     1       0.567   9.802  17.898  0.00  0.00    +0.000 OA
ATOM     30  H   UNL     1      -0.360  10.082  17.934  0.00  0.00    +0.000 HD
ENDBRANCH  20  29
ENDBRANCH   1  20
TORSDOF 10
ENDMDL
MODEL 9
REMARK VINA RESULT:      -7.2      2.826      5.661
REMARK  Name = 
REMARK  11 active torsions:
REMARK  status: ('A' for Active; 'I' for Inactive)
REMARK    1  A    between atoms: C_1  and  C_2
REMARK    2  A    between atoms: C_2  and  C_3
REMARK    3  A    between atoms: C_3  and  C_4
REMARK    4  A    between atoms: C_4  and  C_5
REMARK    5  A    between atoms: C_4  and  N_14
REMARK    6  A    between atoms: C_5  and  O_6
REMARK    7  A    between atoms: C_5  and  C_7
REMARK    8  A    between atoms: C_10  and  O_11
REMARK    9  A    between atoms: C_17  and  O_18
REMARK   10  A    between atoms: C_17  and  C_19
REMARK   11  A    between atoms: C_19  and  C_20
REMARK                            x       y       z     vdW  Elec       q    Type
REMARK                         _______ _______ _______ _____ _____    ______ ____
ROOT
ATOM      1  C   UNL     1       1.221   8.654  19.890  0.00  0.00    +0.000 C 
ENDROOT
BRANCH   1   2
ATOM      2  N   UNL     1       2.144   7.510  19.560  0.00  0.00    +0.000 NA
ATOM      3  C   UNL     1       2.071   7.118  18.142  0.00  0.00    +0.000 C 
ATOM      4  C   UNL     1       3.105   6.045  17.773  0.00  0.00    +0.000 C 
ATOM      5  C   UNL     1       2.984   4.804  18.669  0.00  0.00    +0.000 C 
ATOM      6  C   UNL     1       3.004   5.249  20.134  0.00  0.00    +0.000 C 
ATOM      7  C   UNL     1       1.986   6.344  20.434  0.00  0.00    +0.000 C 
BRANCH   5   8
ATOM      8  O   UNL     1       1.726   4.157  18.427  0.00  0.00    +0.000 OA
ATOM      9  H   UNL     1       1.196   4.241  19.241  0.00  0.00    +0.000 HD
ENDBRANCH   5   8
BRANCH   5  10
ATOM     10  C   UNL     1       4.131   3.782  18.488  0.00  0.00    +0.000 C 
BRANCH  10  11
ATOM     11  C   UNL     1       5.170   4.117  17.447  0.00  0.00    +0.000 A 
ATOM     12  C   UNL     1       6.416   4.631  17.829  0.00  0.00    +0.000 A 
ATOM     13  C   UNL     1       7.393   4.895  16.870  0.00  0.00    +0.000 A 
ATOM     14  C   UNL     1       7.135   4.648  15.522  0.00  0.00    +0.000 A 
ATOM     15  C   UNL     1       5.895   4.142  15.131  0.00  0.00    +0.000 A 
ATOM     16  C   UNL     1       4.917   3.879  16.089  0.00  0.00    +0.000 A 
ENDBRANCH  10  11
ENDBRANCH   5  10
ENDBRANCH   1   2
BRANCH   1  17
ATOM     17  C   UNL     1       1.346   9.134  21.366  0.00  0.00    +0.000 C 
BRANCH  17  19
ATOM     18  C   UNL     1      -0.074   9.522  23.459  0.00  0.00    +0.000 C 
ATOM     19  C   UNL     1       0.108   9.805  21.976  0.00  0.00    +0.000 C 
ENDBRANCH  17  19
ENDBRANCH   1  17
BRANCH   1  20
ATOM     20  C   UNL     1       1.286   9.868  18.865  0.00  0.00    +0.000 C 
BRANCH  20  21
ATOM     21  C   UNL     1      -0.058  10.417  18.376  0.00  0.00    +0.000 A 
ATOM     22  C   UNL     1      -0.898   9.639  17.562  0.00  0.00    +0.000 A 
ATOM     23  C   UNL     1      -2.121  10.133  17.094  0.00  0.00    +0.000 A 
ATOM     24  C   UNL     1      -2.524  11.407  17.462  0.00  0.00    +0.000 A 
ATOM     25  C   UNL     1      -1.747  12.180  18.312  0.00  0.00    +0.000 A 
ATOM     26  C   UNL     1      -0.523  11.681  18.777  0.00  0.00    +0.000 A 
BRANCH  24  27
ATOM     27  O   UNL     1      -3.694  11.939  16.999  0.00  0.00    +0.000 OA
ATOM     28  H   UNL     1      -4.312  11.211  16.831  0.00  0.00    +0.000 HD
ENDBRANCH  24  27
ENDBRANCH  20  21
BRANCH  20  29
ATOM     29  O   UNL     1       2.155   9.544  17.770  0.00  0.00    +0.000 OA
ATOM     30  H   UNL     1       2.909  10.149  17.818  0.00  0.00    +0.000 HD
ENDBRANCH  20  29
ENDBRANCH   1  20
TORSDOF 10
ENDMDL
