MODEL 1
REMARK VINA RESULT:      -6.0      0.000      0.000
REMARK  Name = 
REMARK  2 active torsions:
REMARK  status: ('A' for Active; 'I' for Inactive)
REMARK    1  A    between atoms: O_1  and  C_2
REMARK    2  A    between atoms: C_5  and  C_6
REMARK                            x       y       z     vdW  Elec       q    Type
REMARK                         _______ _______ _______ _____ _____    ______ ____
ROOT
ATOM      1  C   UNL     1       6.831   4.998  15.547  0.00  0.00    +0.000 A 
ATOM      2  C   UNL     1       5.559   4.478  15.321  0.00  0.00    +0.000 A 
ATOM      3  C   UNL     1       4.806   4.013  16.403  0.00  0.00    +0.000 A 
ATOM      4  C   UNL     1       5.320   4.084  17.707  0.00  0.00    +0.000 A 
ATOM      5  C   UNL     1       6.605   4.603  17.915  0.00  0.00    +0.000 A 
ATOM      6  C   UNL     1       7.358   5.059  16.832  0.00  0.00    +0.000 A 
ENDROOT
BRANCH   4   7
ATOM      7  C   UNL     1       4.492   3.580  18.823  0.00  0.00    +0.000 A 
ATOM      8  N   UNL     1       4.912   2.718  19.700  0.00  0.00    +0.000 NA
ATOM      9  N   UNL     1       3.911   2.459  20.592  0.00  0.00    +0.000 N 
ATOM     10  C   UNL     1       2.712   3.093  20.409  0.00  0.00    +0.000 A 
ATOM     11  S   UNL     1       1.391   2.898  21.386  0.00  0.00    +0.000 S 
ATOM     12  S   UNL     1       2.833   4.113  19.006  0.00  0.00    +0.000 S 
ATOM     13  H   UNL     1       4.083   1.823  21.362  0.00  0.00    +0.000 HD
ENDBRANCH   4   7
BRANCH   1  14
ATOM     14  O   UNL     1       7.604   5.460  14.526  0.00  0.00    +0.000 OA
ATOM     15  H   UNL     1       7.438   4.919  13.736  0.00  0.00    +0.000 HD
ENDBRANCH   1  14
TORSDOF 2
ENDMDL
MODEL 2
REMARK VINA RESULT:      -6.0      0.056      1.344
REMARK  Name = 
REMARK  2 active torsions:
REMARK  status: ('A' for Active; 'I' for Inactive)
REMARK    1  A    between atoms: O_1  and  C_2
REMARK    2  A    between atoms: C_5  and  C_6
REMARK                            x       y       z     vdW  Elec       q    Type
REMARK                         _______ _______ _______ _____ _____    ______ ____
ROOT
ATOM      1  C   UNL     1       6.854   5.053  15.587  0.00  0.00    +0.000 A 
ATOM      2  C   UNL     1       7.335   5.093  16.893  0.00  0.00    +0.000 A 
ATOM      3  C   UNL     1       6.537   4.609  17.934  0.00  0.00    +0.000 A 
ATOM      4  C   UNL     1       5.269   4.072  17.663  0.00  0.00    +0.000 A 
ATOM      5  C   UNL     1       4.798   4.046  16.343  0.00  0.00    +0.000 A 
ATOM      6  C   UNL     1       5.593   4.538  15.307  0.00  0.00    +0.000 A 
ENDROOT
BRANCH   4   7
ATOM      7  C   UNL     1       4.456   3.572  18.792  0.00  0.00    +0.000 A 
ATOM      8  N   UNL     1       4.884   2.703  19.658  0.00  0.00    +0.000 NA
ATOM      9  N   UNL     1       3.896   2.449  20.567  0.00  0.00    +0.000 N 
ATOM     10  C   UNL     1       2.701   3.096  20.408  0.00  0.00    +0.000 A 
ATOM     11  S   UNL     1       1.396   2.909  21.408  0.00  0.00    +0.000 S 
ATOM     12  S   UNL     1       2.806   4.120  19.006  0.00  0.00    +0.000 S 
ATOM     13  H   UNL     1       4.076   1.809  21.332  0.00  0.00    +0.000 HD
ENDBRANCH   4   7
BRANCH   1  14
ATOM     14  O   UNL     1       7.592   5.515  14.541  0.00  0.00    +0.000 OA
ATOM     15  H   UNL     1       7.909   4.758  14.020  0.00  0.00    +0.000 HD
ENDBRANCH   1  14
TORSDOF 2
ENDMDL
MODEL 3
REMARK VINA RESULT:      -6.0      1.332      1.332
REMARK  Name = 
REMARK  2 active torsions:
REMARK  status: ('A' for Active; 'I' for Inactive)
REMARK    1  A    between atoms: O_1  and  C_2
REMARK    2  A    between atoms: C_5  and  C_6
REMARK                            x       y       z     vdW  Elec       q    Type
REMARK                         _______ _______ _______ _____ _____    ______ ____
ROOT
ATOM      1  C   UNL     1       6.819   5.147  15.516  0.00  0.00    +0.000 A 
ATOM      2  C   UNL     1       5.747   4.267  15.400  0.00  0.00    +0.000 A 
ATOM      3  C   UNL     1       4.883   4.090  16.486  0.00  0.00    +0.000 A 
ATOM      4  C   UNL     1       5.086   4.805  17.676  0.00  0.00    +0.000 A 
ATOM      5  C   UNL     1       6.174   5.682  17.777  0.00  0.00    +0.000 A 
ATOM      6  C   UNL     1       7.039   5.850  16.695  0.00  0.00    +0.000 A 
ENDROOT
BRANCH   4   7
ATOM      7  C   UNL     1       4.151   4.588  18.800  0.00  0.00    +0.000 A 
ATOM      8  N   UNL     1       3.747   5.535  19.593  0.00  0.00    +0.000 NA
ATOM      9  N   UNL     1       2.897   5.010  20.525  0.00  0.00    +0.000 N 
ATOM     10  C   UNL     1       2.650   3.665  20.477  0.00  0.00    +0.000 A 
ATOM     11  S   UNL     1       1.652   2.859  21.523  0.00  0.00    +0.000 S 
ATOM     12  S   UNL     1       3.546   2.982  19.152  0.00  0.00    +0.000 S 
ATOM     13  H   UNL     1       2.467   5.622  21.209  0.00  0.00    +0.000 HD
ENDBRANCH   4   7
BRANCH   1  14
ATOM     14  O   UNL     1       7.688   5.351  14.489  0.00  0.00    +0.000 OA
ATOM     15  H   UNL     1       7.712   4.554  13.933  0.00  0.00    +0.000 HD
ENDBRANCH   1  14
TORSDOF 2
ENDMDL
MODEL 4
REMARK VINA RESULT:      -6.0      1.322      1.835
REMARK  Name = 
REMARK  2 active torsions:
REMARK  status: ('A' for Active; 'I' for Inactive)
REMARK    1  A    between atoms: O_1  and  C_2
REMARK    2  A    between atoms: C_5  and  C_6
REMARK                            x       y       z     vdW  Elec       q    Type
REMARK                         _______ _______ _______ _____ _____    ______ ____
ROOT
ATOM      1  C   UNL     1       6.864   5.195  15.569  0.00  0.00    +0.000 A 
ATOM      2  C   UNL     1       7.053   5.852  16.782  0.00  0.00    +0.000 A 
ATOM      3  C   UNL     1       6.153   5.634  17.829  0.00  0.00    +0.000 A 
ATOM      4  C   UNL     1       5.076   4.749  17.665  0.00  0.00    +0.000 A 
ATOM      5  C   UNL     1       4.897   4.101  16.435  0.00  0.00    +0.000 A 
ATOM      6  C   UNL     1       5.793   4.327  15.389  0.00  0.00    +0.000 A 
ENDROOT
BRANCH   4   7
ATOM      7  C   UNL     1       4.146   4.548  18.796  0.00  0.00    +0.000 A 
ATOM      8  N   UNL     1       3.734   5.508  19.569  0.00  0.00    +0.000 NA
ATOM      9  N   UNL     1       2.892   4.994  20.514  0.00  0.00    +0.000 N 
ATOM     10  C   UNL     1       2.657   3.646  20.496  0.00  0.00    +0.000 A 
ATOM     11  S   UNL     1       1.671   2.854  21.562  0.00  0.00    +0.000 S 
ATOM     12  S   UNL     1       3.558   2.944  19.184  0.00  0.00    +0.000 S 
ATOM     13  H   UNL     1       2.457   5.618  21.185  0.00  0.00    +0.000 HD
ENDBRANCH   4   7
BRANCH   1  14
ATOM     14  O   UNL     1       7.711   5.376  14.520  0.00  0.00    +0.000 OA
ATOM     15  H   UNL     1       7.939   6.319  14.458  0.00  0.00    +0.000 HD
ENDBRANCH   1  14
TORSDOF 2
ENDMDL
MODEL 5
REMARK VINA RESULT:      -5.9      3.789      5.336
REMARK  Name = 
REMARK  2 active torsions:
REMARK  status: ('A' for Active; 'I' for Inactive)
REMARK    1  A    between atoms: O_1  and  C_2
REMARK    2  A    between atoms: C_5  and  C_6
REMARK                            x       y       z     vdW  Elec       q    Type
REMARK                         _______ _______ _______ _____ _____    ______ ____
ROOT
ATOM      1  C   UNL     1       1.446   2.471  18.414  0.00  0.00    +0.000 A 
ATOM      2  C   UNL     1       2.662   1.863  18.716  0.00  0.00    +0.000 A 
ATOM      3  C   UNL     1       3.832   2.629  18.713  0.00  0.00    +0.000 A 
ATOM      4  C   UNL     1       3.779   4.001  18.423  0.00  0.00    +0.000 A 
ATOM      5  C   UNL     1       2.548   4.594  18.114  0.00  0.00    +0.000 A 
ATOM      6  C   UNL     1       1.383   3.825  18.110  0.00  0.00    +0.000 A 
ENDROOT
BRANCH   4   7
ATOM      7  C   UNL     1       5.039   4.774  18.428  0.00  0.00    +0.000 A 
ATOM      8  N   UNL     1       6.090   4.435  19.114  0.00  0.00    +0.000 NA
ATOM      9  N   UNL     1       7.078   5.354  18.907  0.00  0.00    +0.000 N 
ATOM     10  C   UNL     1       6.804   6.413  18.084  0.00  0.00    +0.000 A 
ATOM     11  S   UNL     1       7.877   7.620  17.723  0.00  0.00    +0.000 S 
ATOM     12  S   UNL     1       5.172   6.257  17.505  0.00  0.00    +0.000 S 
ATOM     13  H   UNL     1       7.981   5.223  19.350  0.00  0.00    +0.000 HD
ENDBRANCH   4   7
BRANCH   1  14
ATOM     14  O   UNL     1       0.281   1.767  18.401  0.00  0.00    +0.000 OA
ATOM     15  H   UNL     1      -0.411   2.296  18.833  0.00  0.00    +0.000 HD
ENDBRANCH   1  14
TORSDOF 2
ENDMDL
MODEL 6
REMARK VINA RESULT:      -5.8      1.898      1.952
REMARK  Name = 
REMARK  2 active torsions:
REMARK  status: ('A' for Active; 'I' for Inactive)
REMARK    1  A    between atoms: O_1  and  C_2
REMARK    2  A    between atoms: C_5  and  C_6
REMARK                            x       y       z     vdW  Elec       q    Type
REMARK                         _______ _______ _______ _____ _____    ______ ____
ROOT
ATOM      1  C   UNL     1       7.207   7.130  17.512  0.00  0.00    +0.000 A 
ATOM      2  C   UNL     1       5.896   6.970  17.072  0.00  0.00    +0.000 A 
ATOM      3  C   UNL     1       5.064   6.047  17.714  0.00  0.00    +0.000 A 
ATOM      4  C   UNL     1       5.541   5.301  18.803  0.00  0.00    +0.000 A 
ATOM      5  C   UNL     1       6.866   5.471  19.228  0.00  0.00    +0.000 A 
ATOM      6  C   UNL     1       7.696   6.386  18.580  0.00  0.00    +0.000 A 
ENDROOT
BRANCH   4   7
ATOM      7  C   UNL     1       4.630   4.336  19.453  0.00  0.00    +0.000 A 
ATOM      8  N   UNL     1       4.908   3.075  19.608  0.00  0.00    +0.000 NA
ATOM      9  N   UNL     1       3.864   2.459  20.237  0.00  0.00    +0.000 N 
ATOM     10  C   UNL     1       2.772   3.219  20.557  0.00  0.00    +0.000 A 
ATOM     11  S   UNL     1       1.420   2.642  21.317  0.00  0.00    +0.000 S 
ATOM     12  S   UNL     1       3.062   4.853  20.037  0.00  0.00    +0.000 S 
ATOM     13  H   UNL     1       3.930   1.472  20.460  0.00  0.00    +0.000 HD
ENDBRANCH   4   7
BRANCH   1  14
ATOM     14  O   UNL     1       8.056   8.013  16.918  0.00  0.00    +0.000 OA
ATOM     15  H   UNL     1       7.567   8.826  16.707  0.00  0.00    +0.000 HD
ENDBRANCH   1  14
TORSDOF 2
ENDMDL
MODEL 7
REMARK VINA RESULT:      -5.8      3.768      5.278
REMARK  Name = 
REMARK  2 active torsions:
REMARK  status: ('A' for Active; 'I' for Inactive)
REMARK    1  A    between atoms: O_1  and  C_2
REMARK    2  A    between atoms: C_5  and  C_6
REMARK                            x       y       z     vdW  Elec       q    Type
REMARK                         _______ _______ _______ _____ _____    ______ ____
ROOT
ATOM      1  C   UNL     1       1.399   2.558  18.503  0.00  0.00    +0.000 A 
ATOM      2  C   UNL     1       1.475   3.794  17.867  0.00  0.00    +0.000 A 
ATOM      3  C   UNL     1       2.687   4.491  17.863  0.00  0.00    +0.000 A 
ATOM      4  C   UNL     1       3.822   3.943  18.482  0.00  0.00    +0.000 A 
ATOM      5  C   UNL     1       3.725   2.700  19.123  0.00  0.00    +0.000 A 
ATOM      6  C   UNL     1       2.511   2.011  19.132  0.00  0.00    +0.000 A 
ENDROOT
BRANCH   4   7
ATOM      7  C   UNL     1       5.083   4.712  18.457  0.00  0.00    +0.000 A 
ATOM      8  N   UNL     1       6.184   4.309  19.019  0.00  0.00    +0.000 NA
ATOM      9  N   UNL     1       7.159   5.244  18.819  0.00  0.00    +0.000 N 
ATOM     10  C   UNL     1       6.828   6.376  18.125  0.00  0.00    +0.000 A 
ATOM     11  S   UNL     1       7.877   7.611  17.792  0.00  0.00    +0.000 S 
ATOM     12  S   UNL     1       5.152   6.275  17.669  0.00  0.00    +0.000 S 
ATOM     13  H   UNL     1       8.094   5.072  19.173  0.00  0.00    +0.000 HD
ENDBRANCH   4   7
BRANCH   1  14
ATOM     14  O   UNL     1       0.241   1.843  18.536  0.00  0.00    +0.000 OA
ATOM     15  H   UNL     1      -0.342   2.221  19.216  0.00  0.00    +0.000 HD
ENDBRANCH   1  14
TORSDOF 2
ENDMDL
MODEL 8
REMARK VINA RESULT:      -5.7      3.727      5.866
REMARK  Name = 
REMARK  2 active torsions:
REMARK  status: ('A' for Active; 'I' for Inactive)
REMARK    1  A    between atoms: O_1  and  C_2
REMARK    2  A    between atoms: C_5  and  C_6
REMARK                            x       y       z     vdW  Elec       q    Type
REMARK                         _______ _______ _______ _____ _____    ______ ____
ROOT
ATOM      1  C   UNL     1       1.886   2.971  21.351  0.00  0.00    +0.000 A 
ATOM      2  C   UNL     1       3.052   2.213  21.274  0.00  0.00    +0.000 A 
ATOM      3  C   UNL     1       4.025   2.545  20.326  0.00  0.00    +0.000 A 
ATOM      4  C   UNL     1       3.837   3.641  19.471  0.00  0.00    +0.000 A 
ATOM      5  C   UNL     1       2.654   4.388  19.558  0.00  0.00    +0.000 A 
ATOM      6  C   UNL     1       1.681   4.050  20.498  0.00  0.00    +0.000 A 
ENDROOT
BRANCH   4   7
ATOM      7  C   UNL     1       4.889   3.957  18.482  0.00  0.00    +0.000 A 
ATOM      8  N   UNL     1       6.126   4.198  18.799  0.00  0.00    +0.000 NA
ATOM      9  N   UNL     1       6.839   4.457  17.663  0.00  0.00    +0.000 N 
ATOM     10  C   UNL     1       6.170   4.438  16.470  0.00  0.00    +0.000 A 
ATOM     11  S   UNL     1       6.870   4.730  14.999  0.00  0.00    +0.000 S 
ATOM     12  S   UNL     1       4.500   4.058  16.777  0.00  0.00    +0.000 S 
ATOM     13  H   UNL     1       7.834   4.640  17.731  0.00  0.00    +0.000 HD
ENDBRANCH   4   7
BRANCH   1  14
ATOM     14  O   UNL     1       0.909   2.686  22.254  0.00  0.00    +0.000 OA
ATOM     15  H   UNL     1       0.718   1.734  22.222  0.00  0.00    +0.000 HD
ENDBRANCH   1  14
TORSDOF 2
ENDMDL
MODEL 9
REMARK VINA RESULT:      -5.7      4.123      5.571
REMARK  Name = 
REMARK  2 active torsions:
REMARK  status: ('A' for Active; 'I' for Inactive)
REMARK    1  A    between atoms: O_1  and  C_2
REMARK    2  A    between atoms: C_5  and  C_6
REMARK                            x       y       z     vdW  Elec       q    Type
REMARK                         _______ _______ _______ _____ _____    ______ ____
ROOT
ATOM      1  C   UNL     1       1.746   2.456  18.253  0.00  0.00    +0.000 A 
ATOM      2  C   UNL     1       3.042   2.058  17.934  0.00  0.00    +0.000 A 
ATOM      3  C   UNL     1       4.004   3.028  17.635  0.00  0.00    +0.000 A 
ATOM      4  C   UNL     1       3.671   4.391  17.671  0.00  0.00    +0.000 A 
ATOM      5  C   UNL     1       2.360   4.772  17.987  0.00  0.00    +0.000 A 
ATOM      6  C   UNL     1       1.400   3.802  18.277  0.00  0.00    +0.000 A 
ENDROOT
BRANCH   4   7
ATOM      7  C   UNL     1       4.716   5.384  17.346  0.00  0.00    +0.000 A 
ATOM      8  N   UNL     1       4.880   5.896  16.163  0.00  0.00    +0.000 NA
ATOM      9  N   UNL     1       5.927   6.774  16.194  0.00  0.00    +0.000 N 
ATOM     10  C   UNL     1       6.589   6.937  17.381  0.00  0.00    +0.000 A 
ATOM     11  S   UNL     1       7.877   7.952  17.602  0.00  0.00    +0.000 S 
ATOM     12  S   UNL     1       5.846   5.914  18.576  0.00  0.00    +0.000 S 
ATOM     13  H   UNL     1       6.174   7.284  15.354  0.00  0.00    +0.000 HD
ENDBRANCH   4   7
BRANCH   1  14
ATOM     14  O   UNL     1       0.775   1.550  18.549  0.00  0.00    +0.000 OA
ATOM     15  H   UNL     1       0.404   1.203  17.720  0.00  0.00    +0.000 HD
ENDBRANCH   1  14
TORSDOF 2
ENDMDL
