MODEL 1
REMARK VINA RESULT:      -8.0      0.000      0.000
REMARK  Name = 
REMARK  9 active torsions:
REMARK  status: ('A' for Active; 'I' for Inactive)
REMARK    1  A    between atoms: C_1  and  O_2
REMARK    2  A    between atoms: O_2  and  C_3
REMARK    3  A    between atoms: C_9  and  N_10
REMARK    4  A    between atoms: C_11  and  C_12
REMARK    5  A    between atoms: C_12  and  C_13
REMARK    6  A    between atoms: C_13  and  C_14
REMARK    7  A    between atoms: C_14  and  O_16
REMARK    8  A    between atoms: C_19  and  C_20
REMARK    9  A    between atoms: C_23  and  C_24
REMARK                            x       y       z     vdW  Elec       q    Type
REMARK                         _______ _______ _______ _____ _____    ______ ____
ROOT
ATOM      1  N   UNL     1       4.396   5.262  16.949  0.00  0.00    +0.000 N 
ATOM      2  C   UNL     1       5.177   5.151  15.781  0.00  0.00    +0.000 A 
ATOM      3  C   UNL     1       5.358   6.413  15.253  0.00  0.00    +0.000 A 
ATOM      4  C   UNL     1       4.622   7.313  16.042  0.00  0.00    +0.000 A 
ATOM      5  C   UNL     1       4.009   6.627  17.071  0.00  0.00    +0.000 A 
ENDROOT
BRANCH   1  12
ATOM      6  C   UNL     1       4.872   3.576  18.751  0.00  0.00    +0.000 A 
ATOM      7  C   UNL     1       4.387   2.577  19.612  0.00  0.00    +0.000 A 
ATOM      8  C   UNL     1       3.043   2.207  19.595  0.00  0.00    +0.000 A 
ATOM      9  C   UNL     1       2.180   2.800  18.683  0.00  0.00    +0.000 A 
ATOM     10 CL   UNL     1       0.501   2.429  18.740  0.00  0.00    +0.000 Cl
ATOM     11  C   UNL     1       2.657   3.734  17.764  0.00  0.00    +0.000 A 
ATOM     12  C   UNL     1       3.994   4.173  17.813  0.00  0.00    +0.000 A 
BRANCH   6  14
ATOM     13  C   UNL     1       6.279   5.355  19.511  0.00  0.00    +0.000 C 
ATOM     14  O   UNL     1       6.139   4.075  18.890  0.00  0.00    +0.000 OA
ENDBRANCH   6  14
ENDBRANCH   1  12
BRANCH   5  15
ATOM     15  C   UNL     1       3.156   7.249  18.117  0.00  0.00    +0.000 A 
ATOM     16  C   UNL     1       2.497   8.459  17.853  0.00  0.00    +0.000 A 
ATOM     17  C   UNL     1       1.615   9.031  18.780  0.00  0.00    +0.000 A 
ATOM     18  C   UNL     1       1.352   8.386  19.990  0.00  0.00    +0.000 A 
ATOM     19  C   UNL     1       0.345   8.922  20.961  0.00  0.00    +0.000 C 
ATOM     20  C   UNL     1       2.037   7.204  20.283  0.00  0.00    +0.000 A 
ATOM     21  C   UNL     1       2.970   6.676  19.382  0.00  0.00    +0.000 A 
ENDBRANCH   5  15
BRANCH   2  22
ATOM     22  C   UNL     1       5.712   3.846  15.235  0.00  0.00    +0.000 C 
BRANCH  22  23
ATOM     23  C   UNL     1       6.611   3.965  14.012  0.00  0.00    +0.000 C 
BRANCH  23  24
ATOM     24  C   UNL     1       5.882   3.433  12.797  0.00  0.00    +0.000 C 
ATOM     25  O   UNL     1       4.727   3.691  12.494  0.00  0.00    +0.000 OA
BRANCH  24  26
ATOM     26  O   UNL     1       6.650   2.607  12.051  0.00  0.00    +0.000 OA
ATOM     27  H   UNL     1       6.149   2.075  11.407  0.00  0.00    +0.000 HD
ENDBRANCH  24  26
ENDBRANCH  23  24
ENDBRANCH  22  23
ENDBRANCH   2  22
TORSDOF 7
ENDMDL
MODEL 2
REMARK VINA RESULT:      -7.3      1.691      2.033
REMARK  Name = 
REMARK  9 active torsions:
REMARK  status: ('A' for Active; 'I' for Inactive)
REMARK    1  A    between atoms: C_1  and  O_2
REMARK    2  A    between atoms: O_2  and  C_3
REMARK    3  A    between atoms: C_9  and  N_10
REMARK    4  A    between atoms: C_11  and  C_12
REMARK    5  A    between atoms: C_12  and  C_13
REMARK    6  A    between atoms: C_13  and  C_14
REMARK    7  A    between atoms: C_14  and  O_16
REMARK    8  A    between atoms: C_19  and  C_20
REMARK    9  A    between atoms: C_23  and  C_24
REMARK                            x       y       z     vdW  Elec       q    Type
REMARK                         _______ _______ _______ _____ _____    ______ ____
ROOT
ATOM      1  N   UNL     1       4.012   5.451  17.201  0.00  0.00    +0.000 N 
ATOM      2  C   UNL     1       4.789   5.472  16.024  0.00  0.00    +0.000 A 
ATOM      3  C   UNL     1       4.905   6.780  15.599  0.00  0.00    +0.000 A 
ATOM      4  C   UNL     1       4.133   7.577  16.460  0.00  0.00    +0.000 A 
ATOM      5  C   UNL     1       3.561   6.782  17.433  0.00  0.00    +0.000 A 
ENDROOT
BRANCH   1  12
ATOM      6  C   UNL     1       4.604   3.608  18.803  0.00  0.00    +0.000 A 
ATOM      7  C   UNL     1       4.178   2.524  19.589  0.00  0.00    +0.000 A 
ATOM      8  C   UNL     1       2.839   2.136  19.608  0.00  0.00    +0.000 A 
ATOM      9  C   UNL     1       1.921   2.800  18.805  0.00  0.00    +0.000 A 
ATOM     10 CL   UNL     1       0.252   2.399  18.915  0.00  0.00    +0.000 Cl
ATOM     11  C   UNL     1       2.337   3.825  17.956  0.00  0.00    +0.000 A 
ATOM     12  C   UNL     1       3.670   4.279  17.975  0.00  0.00    +0.000 A 
BRANCH   6  14
ATOM     13  C   UNL     1       6.022   5.371  19.581  0.00  0.00    +0.000 C 
ATOM     14  O   UNL     1       5.872   4.111  18.921  0.00  0.00    +0.000 OA
ENDBRANCH   6  14
ENDBRANCH   1  12
BRANCH   5  15
ATOM     15  C   UNL     1       2.687   7.276  18.529  0.00  0.00    +0.000 A 
ATOM     16  C   UNL     1       2.548   6.524  19.705  0.00  0.00    +0.000 A 
ATOM     17  C   UNL     1       1.805   6.998  20.795  0.00  0.00    +0.000 A 
ATOM     18  C   UNL     1       1.202   8.256  20.740  0.00  0.00    +0.000 A 
ATOM     19  C   UNL     1       0.480   8.832  21.921  0.00  0.00    +0.000 C 
ATOM     20  C   UNL     1       1.296   8.994  19.557  0.00  0.00    +0.000 A 
ATOM     21  C   UNL     1       1.981   8.483  18.448  0.00  0.00    +0.000 A 
ENDBRANCH   5  15
BRANCH   2  22
ATOM     22  C   UNL     1       5.381   4.243  15.373  0.00  0.00    +0.000 C 
BRANCH  22  23
ATOM     23  C   UNL     1       6.864   4.328  15.034  0.00  0.00    +0.000 C 
BRANCH  23  24
ATOM     24  C   UNL     1       7.608   4.968  16.185  0.00  0.00    +0.000 C 
ATOM     25  O   UNL     1       7.817   6.166  16.316  0.00  0.00    +0.000 OA
BRANCH  24  26
ATOM     26  O   UNL     1       8.044   4.063  17.089  0.00  0.00    +0.000 OA
ATOM     27  H   UNL     1       7.577   3.209  17.052  0.00  0.00    +0.000 HD
ENDBRANCH  24  26
ENDBRANCH  23  24
ENDBRANCH  22  23
ENDBRANCH   2  22
TORSDOF 7
ENDMDL
MODEL 3
REMARK VINA RESULT:      -7.3      1.003      1.460
REMARK  Name = 
REMARK  9 active torsions:
REMARK  status: ('A' for Active; 'I' for Inactive)
REMARK    1  A    between atoms: C_1  and  O_2
REMARK    2  A    between atoms: O_2  and  C_3
REMARK    3  A    between atoms: C_9  and  N_10
REMARK    4  A    between atoms: C_11  and  C_12
REMARK    5  A    between atoms: C_12  and  C_13
REMARK    6  A    between atoms: C_13  and  C_14
REMARK    7  A    between atoms: C_14  and  O_16
REMARK    8  A    between atoms: C_19  and  C_20
REMARK    9  A    between atoms: C_23  and  C_24
REMARK                            x       y       z     vdW  Elec       q    Type
REMARK                         _______ _______ _______ _____ _____    ______ ____
ROOT
ATOM      1  N   UNL     1       4.211   5.315  17.157  0.00  0.00    +0.000 N 
ATOM      2  C   UNL     1       5.032   5.285  16.011  0.00  0.00    +0.000 A 
ATOM      3  C   UNL     1       5.177   6.575  15.543  0.00  0.00    +0.000 A 
ATOM      4  C   UNL     1       4.382   7.410  16.344  0.00  0.00    +0.000 A 
ATOM      5  C   UNL     1       3.766   6.657  17.324  0.00  0.00    +0.000 A 
ENDROOT
BRANCH   1  12
ATOM      6  C   UNL     1       4.724   3.525  18.846  0.00  0.00    +0.000 A 
ATOM      7  C   UNL     1       4.258   2.475  19.654  0.00  0.00    +0.000 A 
ATOM      8  C   UNL     1       2.915   2.102  19.638  0.00  0.00    +0.000 A 
ATOM      9  C   UNL     1       2.034   2.744  18.778  0.00  0.00    +0.000 A 
ATOM     10 CL   UNL     1       0.358   2.364  18.842  0.00  0.00    +0.000 Cl
ATOM     11  C   UNL     1       2.492   3.734  17.909  0.00  0.00    +0.000 A 
ATOM     12  C   UNL     1       3.829   4.175  17.961  0.00  0.00    +0.000 A 
BRANCH   6  14
ATOM     13  C   UNL     1       6.128   5.331  19.548  0.00  0.00    +0.000 C 
ATOM     14  O   UNL     1       5.992   4.020  18.992  0.00  0.00    +0.000 OA
ENDBRANCH   6  14
ENDBRANCH   1  12
BRANCH   5  15
ATOM     15  C   UNL     1       2.857   7.199  18.367  0.00  0.00    +0.000 A 
ATOM     16  C   UNL     1       2.699   6.514  19.581  0.00  0.00    +0.000 A 
ATOM     17  C   UNL     1       1.921   7.038  20.623  0.00  0.00    +0.000 A 
ATOM     18  C   UNL     1       1.301   8.281  20.480  0.00  0.00    +0.000 A 
ATOM     19  C   UNL     1       0.541   8.912  21.607  0.00  0.00    +0.000 C 
ATOM     20  C   UNL     1       1.415   8.951  19.259  0.00  0.00    +0.000 A 
ATOM     21  C   UNL     1       2.135   8.388  18.199  0.00  0.00    +0.000 A 
ENDBRANCH   5  15
BRANCH   2  22
ATOM     22  C   UNL     1       5.635   4.027  15.428  0.00  0.00    +0.000 C 
BRANCH  22  23
ATOM     23  C   UNL     1       5.915   4.064  13.931  0.00  0.00    +0.000 C 
BRANCH  23  24
ATOM     24  C   UNL     1       7.260   4.710  13.686  0.00  0.00    +0.000 C 
ATOM     25  O   UNL     1       7.668   5.112  12.605  0.00  0.00    +0.000 OA
BRANCH  24  26
ATOM     26  O   UNL     1       8.005   4.803  14.810  0.00  0.00    +0.000 OA
ATOM     27  H   UNL     1       7.674   5.457  15.452  0.00  0.00    +0.000 HD
ENDBRANCH  24  26
ENDBRANCH  23  24
ENDBRANCH  22  23
ENDBRANCH   2  22
TORSDOF 7
ENDMDL
MODEL 4
REMARK VINA RESULT:      -7.3      3.000      5.260
REMARK  Name = 
REMARK  9 active torsions:
REMARK  status: ('A' for Active; 'I' for Inactive)
REMARK    1  A    between atoms: C_1  and  O_2
REMARK    2  A    between atoms: O_2  and  C_3
REMARK    3  A    between atoms: C_9  and  N_10
REMARK    4  A    between atoms: C_11  and  C_12
REMARK    5  A    between atoms: C_12  and  C_13
REMARK    6  A    between atoms: C_13  and  C_14
REMARK    7  A    between atoms: C_14  and  O_16
REMARK    8  A    between atoms: C_19  and  C_20
REMARK    9  A    between atoms: C_23  and  C_24
REMARK                            x       y       z     vdW  Elec       q    Type
REMARK                         _______ _______ _______ _____ _____    ______ ____
ROOT
ATOM      1  N   UNL     1       4.730   5.125  17.358  0.00  0.00    +0.000 N 
ATOM      2  C   UNL     1       4.460   3.943  16.640  0.00  0.00    +0.000 A 
ATOM      3  C   UNL     1       5.637   3.494  16.076  0.00  0.00    +0.000 A 
ATOM      4  C   UNL     1       6.635   4.438  16.368  0.00  0.00    +0.000 A 
ATOM      5  C   UNL     1       6.097   5.454  17.133  0.00  0.00    +0.000 A 
ENDROOT
BRANCH   1  12
ATOM      6  C   UNL     1       3.349   5.541  19.416  0.00  0.00    +0.000 A 
ATOM      7  C   UNL     1       2.476   6.389  20.119  0.00  0.00    +0.000 A 
ATOM      8  C   UNL     1       2.066   7.605  19.575  0.00  0.00    +0.000 A 
ATOM      9  C   UNL     1       2.488   7.964  18.302  0.00  0.00    +0.000 A 
ATOM     10 CL   UNL     1       2.078   9.514  17.679  0.00  0.00    +0.000 Cl
ATOM     11  C   UNL     1       3.289   7.102  17.554  0.00  0.00    +0.000 A 
ATOM     12  C   UNL     1       3.771   5.902  18.113  0.00  0.00    +0.000 A 
BRANCH   6  14
ATOM     13  C   UNL     1       3.121   3.768  21.005  0.00  0.00    +0.000 C 
ATOM     14  O   UNL     1       3.902   4.442  20.016  0.00  0.00    +0.000 OA
ENDBRANCH   6  14
ENDBRANCH   1  12
BRANCH   5  15
ATOM     15  C   UNL     1       6.856   6.625  17.645  0.00  0.00    +0.000 A 
ATOM     16  C   UNL     1       7.775   6.458  18.692  0.00  0.00    +0.000 A 
ATOM     17  C   UNL     1       8.573   7.519  19.142  0.00  0.00    +0.000 A 
ATOM     18  C   UNL     1       8.487   8.772  18.532  0.00  0.00    +0.000 A 
ATOM     19  C   UNL     1       9.391   9.900  18.926  0.00  0.00    +0.000 C 
ATOM     20  C   UNL     1       7.543   8.961  17.519  0.00  0.00    +0.000 A 
ATOM     21  C   UNL     1       6.700   7.915  17.122  0.00  0.00    +0.000 A 
ENDBRANCH   5  15
BRANCH   2  22
ATOM     22  C   UNL     1       3.094   3.302  16.536  0.00  0.00    +0.000 C 
BRANCH  22  23
ATOM     23  C   UNL     1       2.751   2.302  17.632  0.00  0.00    +0.000 C 
BRANCH  23  24
ATOM     24  C   UNL     1       1.394   2.637  18.211  0.00  0.00    +0.000 C 
ATOM     25  O   UNL     1       0.774   1.949  19.010  0.00  0.00    +0.000 OA
BRANCH  24  26
ATOM     26  O   UNL     1       0.904   3.807  17.745  0.00  0.00    +0.000 OA
ATOM     27  H   UNL     1       0.044   3.726  17.295  0.00  0.00    +0.000 HD
ENDBRANCH  24  26
ENDBRANCH  23  24
ENDBRANCH  22  23
ENDBRANCH   2  22
TORSDOF 7
ENDMDL
MODEL 5
REMARK VINA RESULT:      -7.2      2.875      5.586
REMARK  Name = 
REMARK  9 active torsions:
REMARK  status: ('A' for Active; 'I' for Inactive)
REMARK    1  A    between atoms: C_1  and  O_2
REMARK    2  A    between atoms: O_2  and  C_3
REMARK    3  A    between atoms: C_9  and  N_10
REMARK    4  A    between atoms: C_11  and  C_12
REMARK    5  A    between atoms: C_12  and  C_13
REMARK    6  A    between atoms: C_13  and  C_14
REMARK    7  A    between atoms: C_14  and  O_16
REMARK    8  A    between atoms: C_19  and  C_20
REMARK    9  A    between atoms: C_23  and  C_24
REMARK                            x       y       z     vdW  Elec       q    Type
REMARK                         _______ _______ _______ _____ _____    ______ ____
ROOT
ATOM      1  N   UNL     1       3.671   4.093  19.795  0.00  0.00    +0.000 N 
ATOM      2  C   UNL     1       3.611   2.941  20.606  0.00  0.00    +0.000 A 
ATOM      3  C   UNL     1       2.488   3.025  21.404  0.00  0.00    +0.000 A 
ATOM      4  C   UNL     1       1.882   4.268  21.156  0.00  0.00    +0.000 A 
ATOM      5  C   UNL     1       2.601   4.945  20.191  0.00  0.00    +0.000 A 
ENDROOT
BRANCH   1  12
ATOM      6  C   UNL     1       4.534   4.053  17.435  0.00  0.00    +0.000 A 
ATOM      7  C   UNL     1       5.525   4.442  16.518  0.00  0.00    +0.000 A 
ATOM      8  C   UNL     1       6.622   5.198  16.926  0.00  0.00    +0.000 A 
ATOM      9  C   UNL     1       6.763   5.533  18.266  0.00  0.00    +0.000 A 
ATOM     10 CL   UNL     1       8.053   6.563  18.752  0.00  0.00    +0.000 Cl
ATOM     11  C   UNL     1       5.835   5.089  19.207  0.00  0.00    +0.000 A 
ATOM     12  C   UNL     1       4.683   4.385  18.804  0.00  0.00    +0.000 A 
BRANCH   6  14
ATOM     13  C   UNL     1       3.191   2.080  17.268  0.00  0.00    +0.000 C 
ATOM     14  O   UNL     1       3.367   3.476  17.013  0.00  0.00    +0.000 OA
ENDBRANCH   6  14
ENDBRANCH   1  12
BRANCH   5  15
ATOM     15  C   UNL     1       2.255   6.289  19.661  0.00  0.00    +0.000 A 
ATOM     16  C   UNL     1       1.716   7.261  20.518  0.00  0.00    +0.000 A 
ATOM     17  C   UNL     1       1.460   8.566  20.076  0.00  0.00    +0.000 A 
ATOM     18  C   UNL     1       1.763   8.937  18.765  0.00  0.00    +0.000 A 
ATOM     19  C   UNL     1       1.588  10.347  18.288  0.00  0.00    +0.000 C 
ATOM     20  C   UNL     1       2.257   7.966  17.890  0.00  0.00    +0.000 A 
ATOM     21  C   UNL     1       2.445   6.646  18.319  0.00  0.00    +0.000 A 
ENDBRANCH   5  15
BRANCH   2  22
ATOM     22  C   UNL     1       4.627   1.822  20.573  0.00  0.00    +0.000 C 
BRANCH  22  23
ATOM     23  C   UNL     1       4.667   0.933  21.809  0.00  0.00    +0.000 C 
BRANCH  23  24
ATOM     24  C   UNL     1       6.046   0.325  21.946  0.00  0.00    +0.000 C 
ATOM     25  O   UNL     1       6.416  -0.719  21.429  0.00  0.00    +0.000 OA
BRANCH  24  26
ATOM     26  O   UNL     1       6.864   1.064  22.729  0.00  0.00    +0.000 OA
ATOM     27  H   UNL     1       6.395   1.629  23.369  0.00  0.00    +0.000 HD
ENDBRANCH  24  26
ENDBRANCH  23  24
ENDBRANCH  22  23
ENDBRANCH   2  22
TORSDOF 7
ENDMDL
MODEL 6
REMARK VINA RESULT:      -7.1      6.444     10.868
REMARK  Name = 
REMARK  9 active torsions:
REMARK  status: ('A' for Active; 'I' for Inactive)
REMARK    1  A    between atoms: C_1  and  O_2
REMARK    2  A    between atoms: O_2  and  C_3
REMARK    3  A    between atoms: C_9  and  N_10
REMARK    4  A    between atoms: C_11  and  C_12
REMARK    5  A    between atoms: C_12  and  C_13
REMARK    6  A    between atoms: C_13  and  C_14
REMARK    7  A    between atoms: C_14  and  O_16
REMARK    8  A    between atoms: C_19  and  C_20
REMARK    9  A    between atoms: C_23  and  C_24
REMARK                            x       y       z     vdW  Elec       q    Type
REMARK                         _______ _______ _______ _____ _____    ______ ____
ROOT
ATOM      1  N   UNL     1      -0.117  11.328  21.478  0.00  0.00    +0.000 N 
ATOM      2  C   UNL     1      -0.900  11.553  22.629  0.00  0.00    +0.000 A 
ATOM      3  C   UNL     1      -1.049  10.356  23.299  0.00  0.00    +0.000 A 
ATOM      4  C   UNL     1      -0.430   9.358  22.528  0.00  0.00    +0.000 A 
ATOM      5  C   UNL     1       0.127   9.928  21.400  0.00  0.00    +0.000 A 
ENDROOT
BRANCH   1  12
ATOM      6  C   UNL     1      -0.572  12.798  19.491  0.00  0.00    +0.000 A 
ATOM      7  C   UNL     1      -0.137  13.829  18.642  0.00  0.00    +0.000 A 
ATOM      8  C   UNL     1       1.105  14.433  18.828  0.00  0.00    +0.000 A 
ATOM      9  C   UNL     1       1.944  13.980  19.837  0.00  0.00    +0.000 A 
ATOM     10 CL   UNL     1       3.425  14.801  20.141  0.00  0.00    +0.000 Cl
ATOM     11  C   UNL     1       1.566  12.904  20.640  0.00  0.00    +0.000 A 
ATOM     12  C   UNL     1       0.287  12.328  20.514  0.00  0.00    +0.000 A 
BRANCH   6  14
ATOM     13  C   UNL     1      -2.233  11.571  18.282  0.00  0.00    +0.000 C 
ATOM     14  O   UNL     1      -1.858  12.331  19.434  0.00  0.00    +0.000 OA
ENDBRANCH   6  14
ENDBRANCH   1  12
BRANCH   5  15
ATOM     15  C   UNL     1       0.877   9.184  20.355  0.00  0.00    +0.000 A 
ATOM     16  C   UNL     1       0.953   9.697  19.051  0.00  0.00    +0.000 A 
ATOM     17  C   UNL     1       1.724   9.071  18.061  0.00  0.00    +0.000 A 
ATOM     18  C   UNL     1       2.461   7.925  18.364  0.00  0.00    +0.000 A 
ATOM     19  C   UNL     1       3.367   7.286  17.356  0.00  0.00    +0.000 C 
ATOM     20  C   UNL     1       2.357   7.380  19.647  0.00  0.00    +0.000 A 
ATOM     21  C   UNL     1       1.530   7.971  20.610  0.00  0.00    +0.000 A 
ENDBRANCH   5  15
BRANCH   2  22
ATOM     22  C   UNL     1      -1.459  12.900  23.029  0.00  0.00    +0.000 C 
BRANCH  22  23
ATOM     23  C   UNL     1      -2.943  13.104  22.755  0.00  0.00    +0.000 C 
BRANCH  23  24
ATOM     24  C   UNL     1      -3.726  12.884  24.031  0.00  0.00    +0.000 C 
ATOM     25  O   UNL     1      -4.210  11.821  24.392  0.00  0.00    +0.000 OA
BRANCH  24  26
ATOM     26  O   UNL     1      -3.852  14.013  24.764  0.00  0.00    +0.000 OA
ATOM     27  H   UNL     1      -4.679  14.062  25.277  0.00  0.00    +0.000 HD
ENDBRANCH  24  26
ENDBRANCH  23  24
ENDBRANCH  22  23
ENDBRANCH   2  22
TORSDOF 7
ENDMDL
MODEL 7
REMARK VINA RESULT:      -7.1      6.101     10.370
REMARK  Name = 
REMARK  9 active torsions:
REMARK  status: ('A' for Active; 'I' for Inactive)
REMARK    1  A    between atoms: C_1  and  O_2
REMARK    2  A    between atoms: O_2  and  C_3
REMARK    3  A    between atoms: C_9  and  N_10
REMARK    4  A    between atoms: C_11  and  C_12
REMARK    5  A    between atoms: C_12  and  C_13
REMARK    6  A    between atoms: C_13  and  C_14
REMARK    7  A    between atoms: C_14  and  O_16
REMARK    8  A    between atoms: C_19  and  C_20
REMARK    9  A    between atoms: C_23  and  C_24
REMARK                            x       y       z     vdW  Elec       q    Type
REMARK                         _______ _______ _______ _____ _____    ______ ____
ROOT
ATOM      1  N   UNL     1       0.023  10.970  21.356  0.00  0.00    +0.000 N 
ATOM      2  C   UNL     1      -0.744  11.195  22.518  0.00  0.00    +0.000 A 
ATOM      3  C   UNL     1      -0.815  10.015  23.230  0.00  0.00    +0.000 A 
ATOM      4  C   UNL     1      -0.164   9.024  22.478  0.00  0.00    +0.000 A 
ATOM      5  C   UNL     1       0.337   9.582  21.318  0.00  0.00    +0.000 A 
ENDROOT
BRANCH   1  12
ATOM      6  C   UNL     1      -0.521  12.286  19.285  0.00  0.00    +0.000 A 
ATOM      7  C   UNL     1      -0.166  13.312  18.393  0.00  0.00    +0.000 A 
ATOM      8  C   UNL     1       1.005  14.045  18.574  0.00  0.00    +0.000 A 
ATOM      9  C   UNL     1       1.858  13.728  19.623  0.00  0.00    +0.000 A 
ATOM     10 CL   UNL     1       3.243  14.706  19.916  0.00  0.00    +0.000 Cl
ATOM     11  C   UNL     1       1.566  12.662  20.473  0.00  0.00    +0.000 A 
ATOM     12  C   UNL     1       0.353  11.955  20.350  0.00  0.00    +0.000 A 
BRANCH   6  14
ATOM     13  C   UNL     1      -2.385  11.613  17.945  0.00  0.00    +0.000 C 
ATOM     14  O   UNL     1      -1.753  11.691  19.225  0.00  0.00    +0.000 OA
ENDBRANCH   6  14
ENDBRANCH   1  12
BRANCH   5  15
ATOM     15  C   UNL     1       1.100   8.842  20.280  0.00  0.00    +0.000 A 
ATOM     16  C   UNL     1       1.238   9.385  18.994  0.00  0.00    +0.000 A 
ATOM     17  C   UNL     1       2.023   8.762  18.015  0.00  0.00    +0.000 A 
ATOM     18  C   UNL     1       2.714   7.585  18.312  0.00  0.00    +0.000 A 
ATOM     19  C   UNL     1       3.634   6.944  17.318  0.00  0.00    +0.000 C 
ATOM     20  C   UNL     1       2.548   7.011  19.575  0.00  0.00    +0.000 A 
ATOM     21  C   UNL     1       1.706   7.602  20.525  0.00  0.00    +0.000 A 
ENDBRANCH   5  15
BRANCH   2  22
ATOM     22  C   UNL     1      -1.362  12.524  22.888  0.00  0.00    +0.000 C 
BRANCH  22  23
ATOM     23  C   UNL     1      -2.806  12.467  23.368  0.00  0.00    +0.000 C 
BRANCH  23  24
ATOM     24  C   UNL     1      -3.735  12.738  22.205  0.00  0.00    +0.000 C 
ATOM     25  O   UNL     1      -4.894  12.360  22.120  0.00  0.00    +0.000 OA
BRANCH  24  26
ATOM     26  O   UNL     1      -3.144  13.459  21.226  0.00  0.00    +0.000 OA
ATOM     27  H   UNL     1      -2.185  13.581  21.347  0.00  0.00    +0.000 HD
ENDBRANCH  24  26
ENDBRANCH  23  24
ENDBRANCH  22  23
ENDBRANCH   2  22
TORSDOF 7
ENDMDL
MODEL 8
REMARK VINA RESULT:      -7.0      6.277     10.711
REMARK  Name = 
REMARK  9 active torsions:
REMARK  status: ('A' for Active; 'I' for Inactive)
REMARK    1  A    between atoms: C_1  and  O_2
REMARK    2  A    between atoms: O_2  and  C_3
REMARK    3  A    between atoms: C_9  and  N_10
REMARK    4  A    between atoms: C_11  and  C_12
REMARK    5  A    between atoms: C_12  and  C_13
REMARK    6  A    between atoms: C_13  and  C_14
REMARK    7  A    between atoms: C_14  and  O_16
REMARK    8  A    between atoms: C_19  and  C_20
REMARK    9  A    between atoms: C_23  and  C_24
REMARK                            x       y       z     vdW  Elec       q    Type
REMARK                         _______ _______ _______ _____ _____    ______ ____
ROOT
ATOM      1  N   UNL     1      -0.059  11.084  21.388  0.00  0.00    +0.000 N 
ATOM      2  C   UNL     1      -0.897  11.348  22.491  0.00  0.00    +0.000 A 
ATOM      3  C   UNL     1      -1.017  10.192  23.235  0.00  0.00    +0.000 A 
ATOM      4  C   UNL     1      -0.323   9.176  22.559  0.00  0.00    +0.000 A 
ATOM      5  C   UNL     1       0.252   9.695  21.416  0.00  0.00    +0.000 A 
ENDROOT
BRANCH   1  12
ATOM      6  C   UNL     1      -0.502  12.397  19.291  0.00  0.00    +0.000 A 
ATOM      7  C   UNL     1      -0.080  13.388  18.389  0.00  0.00    +0.000 A 
ATOM      8  C   UNL     1       1.126  14.059  18.577  0.00  0.00    +0.000 A 
ATOM      9  C   UNL     1       1.946  13.713  19.643  0.00  0.00    +0.000 A 
ATOM     10 CL   UNL     1       3.378  14.619  19.942  0.00  0.00    +0.000 Cl
ATOM     11  C   UNL     1       1.585  12.676  20.503  0.00  0.00    +0.000 A 
ATOM     12  C   UNL     1       0.337  12.035  20.373  0.00  0.00    +0.000 A 
BRANCH   6  14
ATOM     13  C   UNL     1      -1.986  10.816  18.279  0.00  0.00    +0.000 C 
ATOM     14  O   UNL     1      -1.764  11.868  19.221  0.00  0.00    +0.000 OA
ENDBRANCH   6  14
ENDBRANCH   1  12
BRANCH   5  15
ATOM     15  C   UNL     1       1.076   8.920  20.452  0.00  0.00    +0.000 A 
ATOM     16  C   UNL     1       1.644   7.698  20.843  0.00  0.00    +0.000 A 
ATOM     17  C   UNL     1       2.353   6.896  19.938  0.00  0.00    +0.000 A 
ATOM     18  C   UNL     1       2.487   7.290  18.605  0.00  0.00    +0.000 A 
ATOM     19  C   UNL     1       3.157   6.413  17.592  0.00  0.00    +0.000 C 
ATOM     20  C   UNL     1       1.964   8.526  18.216  0.00  0.00    +0.000 A 
ATOM     21  C   UNL     1       1.319   9.354  19.142  0.00  0.00    +0.000 A 
ENDBRANCH   5  15
BRANCH   2  22
ATOM     22  C   UNL     1      -1.533  12.689  22.777  0.00  0.00    +0.000 C 
BRANCH  22  23
ATOM     23  C   UNL     1      -3.049  12.741  22.644  0.00  0.00    +0.000 C 
BRANCH  23  24
ATOM     24  C   UNL     1      -3.673  12.791  24.022  0.00  0.00    +0.000 C 
ATOM     25  O   UNL     1      -4.417  11.944  24.494  0.00  0.00    +0.000 OA
BRANCH  24  26
ATOM     26  O   UNL     1      -3.326  13.902  24.709  0.00  0.00    +0.000 OA
ATOM     27  H   UNL     1      -2.522  13.799  25.249  0.00  0.00    +0.000 HD
ENDBRANCH  24  26
ENDBRANCH  23  24
ENDBRANCH  22  23
ENDBRANCH   2  22
TORSDOF 7
ENDMDL
MODEL 9
REMARK VINA RESULT:      -7.0      2.878      5.560
REMARK  Name = 
REMARK  9 active torsions:
REMARK  status: ('A' for Active; 'I' for Inactive)
REMARK    1  A    between atoms: C_1  and  O_2
REMARK    2  A    between atoms: O_2  and  C_3
REMARK    3  A    between atoms: C_9  and  N_10
REMARK    4  A    between atoms: C_11  and  C_12
REMARK    5  A    between atoms: C_12  and  C_13
REMARK    6  A    between atoms: C_13  and  C_14
REMARK    7  A    between atoms: C_14  and  O_16
REMARK    8  A    between atoms: C_19  and  C_20
REMARK    9  A    between atoms: C_23  and  C_24
REMARK                            x       y       z     vdW  Elec       q    Type
REMARK                         _______ _______ _______ _____ _____    ______ ____
ROOT
ATOM      1  N   UNL     1       3.791   4.145  19.815  0.00  0.00    +0.000 N 
ATOM      2  C   UNL     1       3.725   2.972  20.593  0.00  0.00    +0.000 A 
ATOM      3  C   UNL     1       2.608   3.043  21.400  0.00  0.00    +0.000 A 
ATOM      4  C   UNL     1       2.012   4.298  21.191  0.00  0.00    +0.000 A 
ATOM      5  C   UNL     1       2.732   4.996  20.241  0.00  0.00    +0.000 A 
ENDROOT
BRANCH   1  12
ATOM      6  C   UNL     1       4.662   4.118  17.457  0.00  0.00    +0.000 A 
ATOM      7  C   UNL     1       5.646   4.525  16.542  0.00  0.00    +0.000 A 
ATOM      8  C   UNL     1       6.727   5.304  16.952  0.00  0.00    +0.000 A 
ATOM      9  C   UNL     1       6.858   5.645  18.292  0.00  0.00    +0.000 A 
ATOM     10 CL   UNL     1       8.125   6.701  18.778  0.00  0.00    +0.000 Cl
ATOM     11  C   UNL     1       5.936   5.184  19.231  0.00  0.00    +0.000 A 
ATOM     12  C   UNL     1       4.800   4.456  18.826  0.00  0.00    +0.000 A 
BRANCH   6  14
ATOM     13  C   UNL     1       3.377   2.110  17.252  0.00  0.00    +0.000 C 
ATOM     14  O   UNL     1       3.507   3.517  17.033  0.00  0.00    +0.000 OA
ENDBRANCH   6  14
ENDBRANCH   1  12
BRANCH   5  15
ATOM     15  C   UNL     1       2.394   6.357  19.751  0.00  0.00    +0.000 A 
ATOM     16  C   UNL     1       2.605   6.687  18.404  0.00  0.00    +0.000 A 
ATOM     17  C   UNL     1       2.217   7.930  17.885  0.00  0.00    +0.000 A 
ATOM     18  C   UNL     1       1.583   8.867  18.703  0.00  0.00    +0.000 A 
ATOM     19  C   UNL     1       1.072  10.166  18.157  0.00  0.00    +0.000 C 
ATOM     20  C   UNL     1       1.409   8.567  20.056  0.00  0.00    +0.000 A 
ATOM     21  C   UNL     1       1.862   7.351  20.583  0.00  0.00    +0.000 A 
ENDBRANCH   5  15
BRANCH   2  22
ATOM     22  C   UNL     1       4.730   1.844  20.522  0.00  0.00    +0.000 C 
BRANCH  22  23
ATOM     23  C   UNL     1       4.662   0.829  21.655  0.00  0.00    +0.000 C 
BRANCH  23  24
ATOM     24  C   UNL     1       6.063   0.420  22.050  0.00  0.00    +0.000 C 
ATOM     25  O   UNL     1       6.857   1.115  22.669  0.00  0.00    +0.000 OA
BRANCH  24  26
ATOM     26  O   UNL     1       6.377  -0.828  21.637  0.00  0.00    +0.000 OA
ATOM     27  H   UNL     1       6.612  -1.438  22.360  0.00  0.00    +0.000 HD
ENDBRANCH  24  26
ENDBRANCH  23  24
ENDBRANCH  22  23
ENDBRANCH   2  22
TORSDOF 7
ENDMDL
