MODEL 1
REMARK VINA RESULT:      -7.0      0.000      0.000
REMARK  Name = 
REMARK  6 active torsions:
REMARK  status: ('A' for Active; 'I' for Inactive)
REMARK    1  A    between atoms: C_1  and  O_2
REMARK    2  A    between atoms: O_2  and  C_3
REMARK    3  A    between atoms: C_6  and  O_7
REMARK    4  A    between atoms: C_8  and  C_9
REMARK    5  A    between atoms: C_10  and  C_11
REMARK    6  A    between atoms: C_11  and  C_13
REMARK                            x       y       z     vdW  Elec       q    Type
REMARK                         _______ _______ _______ _____ _____    ______ ____
ROOT
ATOM      1  C   UNL     1       2.249   6.743  17.875  0.00  0.00    +0.000 C 
ATOM      2  C   UNL     1       2.702   7.929  18.309  0.00  0.00    +0.000 C 
ENDROOT
BRANCH   1   7
ATOM      3  C   UNL     1       5.191   4.393  18.361  0.00  0.00    +0.000 A 
ATOM      4  C   UNL     1       4.592   3.160  18.103  0.00  0.00    +0.000 A 
ATOM      5  C   UNL     1       3.243   3.085  17.757  0.00  0.00    +0.000 A 
ATOM      6  C   UNL     1       2.482   4.253  17.681  0.00  0.00    +0.000 A 
ATOM      7  C   UNL     1       3.053   5.506  17.951  0.00  0.00    +0.000 A 
ATOM      8  C   UNL     1       4.422   5.556  18.272  0.00  0.00    +0.000 A 
BRANCH   3  10
ATOM      9  C   UNL     1       7.445   4.632  17.645  0.00  0.00    +0.000 C 
ATOM     10  O   UNL     1       6.519   4.339  18.686  0.00  0.00    +0.000 OA
ENDBRANCH   3  10
BRANCH   6  11
ATOM     11  O   UNL     1       1.156   4.175  17.354  0.00  0.00    +0.000 OA
ATOM     12  H   UNL     1       0.624   4.454  18.117  0.00  0.00    +0.000 HD
ENDBRANCH   6  11
ENDBRANCH   1   7
BRANCH   2  13
ATOM     13  C   UNL     1       1.860   9.153  18.278  0.00  0.00    +0.000 C 
ATOM     14  O   UNL     1       1.813   9.903  17.312  0.00  0.00    +0.000 OA
BRANCH  13  15
ATOM     15  C   UNL     1       1.106   9.457  19.528  0.00  0.00    +0.000 A 
ATOM     16  C   UNL     1       0.236  10.554  19.551  0.00  0.00    +0.000 A 
ATOM     17  C   UNL     1      -0.468  10.862  20.720  0.00  0.00    +0.000 A 
ATOM     18  C   UNL     1      -0.310  10.070  21.858  0.00  0.00    +0.000 A 
ATOM     19 CL   UNL     1      -1.171  10.451  23.297  0.00  0.00    +0.000 Cl
ATOM     20  C   UNL     1       0.539   8.967  21.838  0.00  0.00    +0.000 A 
ATOM     21  C   UNL     1       1.240   8.654  20.671  0.00  0.00    +0.000 A 
ENDBRANCH  13  15
ENDBRANCH   2  13
TORSDOF 5
ENDMDL
MODEL 2
REMARK VINA RESULT:      -7.0      4.325      6.731
REMARK  Name = 
REMARK  6 active torsions:
REMARK  status: ('A' for Active; 'I' for Inactive)
REMARK    1  A    between atoms: C_1  and  O_2
REMARK    2  A    between atoms: O_2  and  C_3
REMARK    3  A    between atoms: C_6  and  O_7
REMARK    4  A    between atoms: C_8  and  C_9
REMARK    5  A    between atoms: C_10  and  C_11
REMARK    6  A    between atoms: C_11  and  C_13
REMARK                            x       y       z     vdW  Elec       q    Type
REMARK                         _______ _______ _______ _____ _____    ______ ____
ROOT
ATOM      1  C   UNL     1       5.986   4.843  15.779  0.00  0.00    +0.000 C 
ATOM      2  C   UNL     1       6.784   4.434  16.778  0.00  0.00    +0.000 C 
ENDROOT
BRANCH   1   7
ATOM      3  C   UNL     1       5.578   3.348  12.314  0.00  0.00    +0.000 A 
ATOM      4  C   UNL     1       6.713   3.845  11.674  0.00  0.00    +0.000 A 
ATOM      5  C   UNL     1       7.619   4.652  12.362  0.00  0.00    +0.000 A 
ATOM      6  C   UNL     1       7.382   4.973  13.700  0.00  0.00    +0.000 A 
ATOM      7  C   UNL     1       6.240   4.501  14.365  0.00  0.00    +0.000 A 
ATOM      8  C   UNL     1       5.356   3.667  13.655  0.00  0.00    +0.000 A 
BRANCH   3  10
ATOM      9  C   UNL     1       3.685   3.219  10.880  0.00  0.00    +0.000 C 
ATOM     10  O   UNL     1       4.767   2.566  11.537  0.00  0.00    +0.000 OA
ENDBRANCH   3  10
BRANCH   6  11
ATOM     11  O   UNL     1       8.266   5.775  14.369  0.00  0.00    +0.000 OA
ATOM     12  H   UNL     1       7.863   6.067  15.202  0.00  0.00    +0.000 HD
ENDBRANCH   6  11
ENDBRANCH   1   7
BRANCH   2  13
ATOM     13  C   UNL     1       6.482   4.737  18.201  0.00  0.00    +0.000 C 
ATOM     14  O   UNL     1       7.337   5.103  18.998  0.00  0.00    +0.000 OA
BRANCH  13  15
ATOM     15  C   UNL     1       5.072   4.514  18.631  0.00  0.00    +0.000 A 
ATOM     16  C   UNL     1       4.605   3.204  18.790  0.00  0.00    +0.000 A 
ATOM     17  C   UNL     1       3.280   2.977  19.179  0.00  0.00    +0.000 A 
ATOM     18  C   UNL     1       2.429   4.057  19.415  0.00  0.00    +0.000 A 
ATOM     19 CL   UNL     1       0.799   3.780  19.887  0.00  0.00    +0.000 Cl
ATOM     20  C   UNL     1       2.890   5.363  19.277  0.00  0.00    +0.000 A 
ATOM     21  C   UNL     1       4.214   5.593  18.893  0.00  0.00    +0.000 A 
ENDBRANCH  13  15
ENDBRANCH   2  13
TORSDOF 5
ENDMDL
MODEL 3
REMARK VINA RESULT:      -7.0      4.506      6.816
REMARK  Name = 
REMARK  6 active torsions:
REMARK  status: ('A' for Active; 'I' for Inactive)
REMARK    1  A    between atoms: C_1  and  O_2
REMARK    2  A    between atoms: O_2  and  C_3
REMARK    3  A    between atoms: C_6  and  O_7
REMARK    4  A    between atoms: C_8  and  C_9
REMARK    5  A    between atoms: C_10  and  C_11
REMARK    6  A    between atoms: C_11  and  C_13
REMARK                            x       y       z     vdW  Elec       q    Type
REMARK                         _______ _______ _______ _____ _____    ______ ____
ROOT
ATOM      1  C   UNL     1       6.566   4.836  15.482  0.00  0.00    +0.000 C 
ATOM      2  C   UNL     1       6.089   3.985  16.404  0.00  0.00    +0.000 C 
ENDROOT
BRANCH   1   7
ATOM      3  C   UNL     1       5.683   3.338  12.107  0.00  0.00    +0.000 A 
ATOM      4  C   UNL     1       6.688   3.878  11.305  0.00  0.00    +0.000 A 
ATOM      5  C   UNL     1       7.661   4.714  11.853  0.00  0.00    +0.000 A 
ATOM      6  C   UNL     1       7.620   5.023  13.215  0.00  0.00    +0.000 A 
ATOM      7  C   UNL     1       6.612   4.508  14.043  0.00  0.00    +0.000 A 
ATOM      8  C   UNL     1       5.659   3.645  13.470  0.00  0.00    +0.000 A 
BRANCH   3  10
ATOM      9  C   UNL     1       3.663   3.167  10.867  0.00  0.00    +0.000 C 
ATOM     10  O   UNL     1       4.791   2.530  11.457  0.00  0.00    +0.000 OA
ENDBRANCH   3  10
BRANCH   6  11
ATOM     11  O   UNL     1       8.569   5.854  13.746  0.00  0.00    +0.000 OA
ATOM     12  H   UNL     1       8.871   5.489  14.594  0.00  0.00    +0.000 HD
ENDBRANCH   6  11
ENDBRANCH   1   7
BRANCH   2  13
ATOM     13  C   UNL     1       5.995   4.352  17.841  0.00  0.00    +0.000 C 
ATOM     14  O   UNL     1       6.955   4.750  18.489  0.00  0.00    +0.000 OA
BRANCH  13  15
ATOM     15  C   UNL     1       4.662   4.154  18.478  0.00  0.00    +0.000 A 
ATOM     16  C   UNL     1       3.562   4.876  17.999  0.00  0.00    +0.000 A 
ATOM     17  C   UNL     1       2.307   4.713  18.596  0.00  0.00    +0.000 A 
ATOM     18  C   UNL     1       2.152   3.827  19.662  0.00  0.00    +0.000 A 
ATOM     19 CL   UNL     1       0.611   3.630  20.400  0.00  0.00    +0.000 Cl
ATOM     20  C   UNL     1       3.237   3.092  20.133  0.00  0.00    +0.000 A 
ATOM     21  C   UNL     1       4.490   3.249  19.537  0.00  0.00    +0.000 A 
ENDBRANCH  13  15
ENDBRANCH   2  13
TORSDOF 5
ENDMDL
MODEL 4
REMARK VINA RESULT:      -7.0      1.364      2.204
REMARK  Name = 
REMARK  6 active torsions:
REMARK  status: ('A' for Active; 'I' for Inactive)
REMARK    1  A    between atoms: C_1  and  O_2
REMARK    2  A    between atoms: O_2  and  C_3
REMARK    3  A    between atoms: C_6  and  O_7
REMARK    4  A    between atoms: C_8  and  C_9
REMARK    5  A    between atoms: C_10  and  C_11
REMARK    6  A    between atoms: C_11  and  C_13
REMARK                            x       y       z     vdW  Elec       q    Type
REMARK                         _______ _______ _______ _____ _____    ______ ____
ROOT
ATOM      1  C   UNL     1       3.379   7.510  17.630  0.00  0.00    +0.000 C 
ATOM      2  C   UNL     1       2.206   7.855  18.182  0.00  0.00    +0.000 C 
ENDROOT
BRANCH   1   7
ATOM      3  C   UNL     1       3.484   3.726  17.923  0.00  0.00    +0.000 A 
ATOM      4  C   UNL     1       4.545   3.422  17.069  0.00  0.00    +0.000 A 
ATOM      5  C   UNL     1       5.237   4.437  16.409  0.00  0.00    +0.000 A 
ATOM      6  C   UNL     1       4.858   5.768  16.596  0.00  0.00    +0.000 A 
ATOM      7  C   UNL     1       3.785   6.103  17.435  0.00  0.00    +0.000 A 
ATOM      8  C   UNL     1       3.120   5.062  18.109  0.00  0.00    +0.000 A 
BRANCH   3  10
ATOM      9  C   UNL     1       3.584   1.408  18.442  0.00  0.00    +0.000 C 
ATOM     10  O   UNL     1       2.887   2.647  18.515  0.00  0.00    +0.000 OA
ENDBRANCH   3  10
BRANCH   6  11
ATOM     11  O   UNL     1       5.531   6.761  15.936  0.00  0.00    +0.000 OA
ATOM     12  H   UNL     1       5.879   6.407  15.102  0.00  0.00    +0.000 HD
ENDBRANCH   6  11
ENDBRANCH   1   7
BRANCH   2  13
ATOM     13  C   UNL     1       1.787   9.274  18.318  0.00  0.00    +0.000 C 
ATOM     14  O   UNL     1       2.081  10.136  17.499  0.00  0.00    +0.000 OA
BRANCH  13  15
ATOM     15  C   UNL     1       1.024   9.613  19.554  0.00  0.00    +0.000 A 
ATOM     16  C   UNL     1       0.235  10.770  19.574  0.00  0.00    +0.000 A 
ATOM     17  C   UNL     1      -0.476  11.111  20.730  0.00  0.00    +0.000 A 
ATOM     18  C   UNL     1      -0.403  10.293  21.858  0.00  0.00    +0.000 A 
ATOM     19 CL   UNL     1      -1.271  10.714  23.282  0.00  0.00    +0.000 Cl
ATOM     20  C   UNL     1       0.366   9.133  21.841  0.00  0.00    +0.000 A 
ATOM     21  C   UNL     1       1.073   8.787  20.687  0.00  0.00    +0.000 A 
ENDBRANCH  13  15
ENDBRANCH   2  13
TORSDOF 5
ENDMDL
MODEL 5
REMARK VINA RESULT:      -6.9      3.789      5.632
REMARK  Name = 
REMARK  6 active torsions:
REMARK  status: ('A' for Active; 'I' for Inactive)
REMARK    1  A    between atoms: C_1  and  O_2
REMARK    2  A    between atoms: O_2  and  C_3
REMARK    3  A    between atoms: C_6  and  O_7
REMARK    4  A    between atoms: C_8  and  C_9
REMARK    5  A    between atoms: C_10  and  C_11
REMARK    6  A    between atoms: C_11  and  C_13
REMARK                            x       y       z     vdW  Elec       q    Type
REMARK                         _______ _______ _______ _____ _____    ______ ____
ROOT
ATOM      1  C   UNL     1       5.667   4.028  16.281  0.00  0.00    +0.000 C 
ATOM      2  C   UNL     1       4.381   4.123  16.655  0.00  0.00    +0.000 C 
ENDROOT
BRANCH   1   7
ATOM      3  C   UNL     1       5.895   3.354  12.552  0.00  0.00    +0.000 A 
ATOM      4  C   UNL     1       6.897   4.250  12.180  0.00  0.00    +0.000 A 
ATOM      5  C   UNL     1       7.511   5.063  13.133  0.00  0.00    +0.000 A 
ATOM      6  C   UNL     1       7.110   4.987  14.468  0.00  0.00    +0.000 A 
ATOM      7  C   UNL     1       6.094   4.107  14.869  0.00  0.00    +0.000 A 
ATOM      8  C   UNL     1       5.510   3.279  13.892  0.00  0.00    +0.000 A 
BRANCH   3  10
ATOM      9  C   UNL     1       6.010   1.365  11.254  0.00  0.00    +0.000 C 
ATOM     10  O   UNL     1       5.373   2.608  11.530  0.00  0.00    +0.000 OA
ENDBRANCH   3  10
BRANCH   6  11
ATOM     11  O   UNL     1       7.706   5.795  15.398  0.00  0.00    +0.000 OA
ATOM     12  H   UNL     1       7.890   6.660  14.996  0.00  0.00    +0.000 HD
ENDBRANCH   6  11
ENDBRANCH   1   7
BRANCH   2  13
ATOM     13  C   UNL     1       3.973   4.100  18.083  0.00  0.00    +0.000 C 
ATOM     14  O   UNL     1       4.132   3.124  18.804  0.00  0.00    +0.000 OA
BRANCH  13  15
ATOM     15  C   UNL     1       3.295   5.329  18.587  0.00  0.00    +0.000 A 
ATOM     16  C   UNL     1       2.668   5.298  19.839  0.00  0.00    +0.000 A 
ATOM     17  C   UNL     1       2.015   6.438  20.321  0.00  0.00    +0.000 A 
ATOM     18  C   UNL     1       1.997   7.606  19.557  0.00  0.00    +0.000 A 
ATOM     19 CL   UNL     1       1.191   9.006  20.146  0.00  0.00    +0.000 Cl
ATOM     20  C   UNL     1       2.634   7.650  18.320  0.00  0.00    +0.000 A 
ATOM     21  C   UNL     1       3.290   6.515  17.837  0.00  0.00    +0.000 A 
ENDBRANCH  13  15
ENDBRANCH   2  13
TORSDOF 5
ENDMDL
MODEL 6
REMARK VINA RESULT:      -6.9      1.280      2.703
REMARK  Name = 
REMARK  6 active torsions:
REMARK  status: ('A' for Active; 'I' for Inactive)
REMARK    1  A    between atoms: C_1  and  O_2
REMARK    2  A    between atoms: O_2  and  C_3
REMARK    3  A    between atoms: C_6  and  O_7
REMARK    4  A    between atoms: C_8  and  C_9
REMARK    5  A    between atoms: C_10  and  C_11
REMARK    6  A    between atoms: C_11  and  C_13
REMARK                            x       y       z     vdW  Elec       q    Type
REMARK                         _______ _______ _______ _____ _____    ______ ____
ROOT
ATOM      1  C   UNL     1       3.349   7.560  17.847  0.00  0.00    +0.000 C 
ATOM      2  C   UNL     1       2.089   8.023  17.875  0.00  0.00    +0.000 C 
ENDROOT
BRANCH   1   7
ATOM      3  C   UNL     1       3.093   3.787  17.508  0.00  0.00    +0.000 A 
ATOM      4  C   UNL     1       4.287   3.498  16.846  0.00  0.00    +0.000 A 
ATOM      5  C   UNL     1       5.182   4.517  16.521  0.00  0.00    +0.000 A 
ATOM      6  C   UNL     1       4.876   5.839  16.851  0.00  0.00    +0.000 A 
ATOM      7  C   UNL     1       3.676   6.162  17.501  0.00  0.00    +0.000 A 
ATOM      8  C   UNL     1       2.802   5.112  17.842  0.00  0.00    +0.000 A 
BRANCH   3  10
ATOM      9  C   UNL     1       1.318   2.869  18.795  0.00  0.00    +0.000 C 
ATOM     10  O   UNL     1       2.300   2.706  17.776  0.00  0.00    +0.000 OA
ENDBRANCH   3  10
BRANCH   6  11
ATOM     11  O   UNL     1       5.751   6.837  16.519  0.00  0.00    +0.000 OA
ATOM     12  H   UNL     1       5.404   7.684  16.842  0.00  0.00    +0.000 HD
ENDBRANCH   6  11
ENDBRANCH   1   7
BRANCH   2  13
ATOM     13  C   UNL     1       1.780   9.446  18.168  0.00  0.00    +0.000 C 
ATOM     14  O   UNL     1       2.132  10.366  17.440  0.00  0.00    +0.000 OA
BRANCH  13  15
ATOM     15  C   UNL     1       1.054   9.707  19.444  0.00  0.00    +0.000 A 
ATOM     16  C   UNL     1       1.129   8.765  20.478  0.00  0.00    +0.000 A 
ATOM     17  C   UNL     1       0.442   8.986  21.676  0.00  0.00    +0.000 A 
ATOM     18  C   UNL     1      -0.309  10.150  21.843  0.00  0.00    +0.000 A 
ATOM     19 CL   UNL     1      -1.158  10.422  23.313  0.00  0.00    +0.000 Cl
ATOM     20  C   UNL     1      -0.375  11.100  20.827  0.00  0.00    +0.000 A 
ATOM     21  C   UNL     1       0.313  10.884  19.631  0.00  0.00    +0.000 A 
ENDBRANCH  13  15
ENDBRANCH   2  13
TORSDOF 5
ENDMDL
MODEL 7
REMARK VINA RESULT:      -6.9      2.191      3.485
REMARK  Name = 
REMARK  6 active torsions:
REMARK  status: ('A' for Active; 'I' for Inactive)
REMARK    1  A    between atoms: C_1  and  O_2
REMARK    2  A    between atoms: O_2  and  C_3
REMARK    3  A    between atoms: C_6  and  O_7
REMARK    4  A    between atoms: C_8  and  C_9
REMARK    5  A    between atoms: C_10  and  C_11
REMARK    6  A    between atoms: C_11  and  C_13
REMARK                            x       y       z     vdW  Elec       q    Type
REMARK                         _______ _______ _______ _____ _____    ______ ____
ROOT
ATOM      1  C   UNL     1       4.293   5.629  19.280  0.00  0.00    +0.000 C 
ATOM      2  C   UNL     1       3.068   6.109  19.010  0.00  0.00    +0.000 C 
ENDROOT
BRANCH   1   7
ATOM      3  C   UNL     1       5.781   4.887  15.867  0.00  0.00    +0.000 A 
ATOM      4  C   UNL     1       7.118   4.672  16.201  0.00  0.00    +0.000 A 
ATOM      5  C   UNL     1       7.540   4.752  17.528  0.00  0.00    +0.000 A 
ATOM      6  C   UNL     1       6.617   5.061  18.529  0.00  0.00    +0.000 A 
ATOM      7  C   UNL     1       5.269   5.298  18.222  0.00  0.00    +0.000 A 
ATOM      8  C   UNL     1       4.865   5.185  16.878  0.00  0.00    +0.000 A 
BRANCH   3  10
ATOM      9  C   UNL     1       6.248   3.832  13.788  0.00  0.00    +0.000 C 
ATOM     10  O   UNL     1       5.489   4.777  14.535  0.00  0.00    +0.000 OA
ENDBRANCH   3  10
BRANCH   6  11
ATOM     11  O   UNL     1       7.037   5.151  19.829  0.00  0.00    +0.000 OA
ATOM     12  H   UNL     1       8.004   5.078  19.856  0.00  0.00    +0.000 HD
ENDBRANCH   6  11
ENDBRANCH   1   7
BRANCH   2  13
ATOM     13  C   UNL     1       2.119   6.492  20.086  0.00  0.00    +0.000 C 
ATOM     14  O   UNL     1       1.693   5.694  20.912  0.00  0.00    +0.000 OA
BRANCH  13  15
ATOM     15  C   UNL     1       1.658   7.910  20.076  0.00  0.00    +0.000 A 
ATOM     16  C   UNL     1       1.192   8.486  21.265  0.00  0.00    +0.000 A 
ATOM     17  C   UNL     1       0.743   9.811  21.270  0.00  0.00    +0.000 A 
ATOM     18  C   UNL     1       0.768  10.559  20.092  0.00  0.00    +0.000 A 
ATOM     19 CL   UNL     1       0.211  12.186  20.096  0.00  0.00    +0.000 Cl
ATOM     20  C   UNL     1       1.246  10.000  18.910  0.00  0.00    +0.000 A 
ATOM     21  C   UNL     1       1.699   8.679  18.903  0.00  0.00    +0.000 A 
ENDBRANCH  13  15
ENDBRANCH   2  13
TORSDOF 5
ENDMDL
MODEL 8
REMARK VINA RESULT:      -6.8      2.169      3.335
REMARK  Name = 
REMARK  6 active torsions:
REMARK  status: ('A' for Active; 'I' for Inactive)
REMARK    1  A    between atoms: C_1  and  O_2
REMARK    2  A    between atoms: O_2  and  C_3
REMARK    3  A    between atoms: C_6  and  O_7
REMARK    4  A    between atoms: C_8  and  C_9
REMARK    5  A    between atoms: C_10  and  C_11
REMARK    6  A    between atoms: C_11  and  C_13
REMARK                            x       y       z     vdW  Elec       q    Type
REMARK                         _______ _______ _______ _____ _____    ______ ____
ROOT
ATOM      1  C   UNL     1       4.026   5.279  19.148  0.00  0.00    +0.000 C 
ATOM      2  C   UNL     1       3.120   6.261  19.022  0.00  0.00    +0.000 C 
ENDROOT
BRANCH   1   7
ATOM      3  C   UNL     1       5.639   4.485  15.804  0.00  0.00    +0.000 A 
ATOM      4  C   UNL     1       6.989   4.479  16.154  0.00  0.00    +0.000 A 
ATOM      5  C   UNL     1       7.381   4.716  17.472  0.00  0.00    +0.000 A 
ATOM      6  C   UNL     1       6.414   4.974  18.446  0.00  0.00    +0.000 A 
ATOM      7  C   UNL     1       5.050   5.003  18.120  0.00  0.00    +0.000 A 
ATOM      8  C   UNL     1       4.680   4.734  16.788  0.00  0.00    +0.000 A 
BRANCH   3  10
ATOM      9  C   UNL     1       6.505   4.032  13.637  0.00  0.00    +0.000 C 
ATOM     10  O   UNL     1       5.379   4.236  14.484  0.00  0.00    +0.000 OA
ENDBRANCH   3  10
BRANCH   6  11
ATOM     11  O   UNL     1       6.803   5.218  19.735  0.00  0.00    +0.000 OA
ATOM     12  H   UNL     1       7.627   4.738  19.914  0.00  0.00    +0.000 HD
ENDBRANCH   6  11
ENDBRANCH   1   7
BRANCH   2  13
ATOM     13  C   UNL     1       2.133   6.564  20.091  0.00  0.00    +0.000 C 
ATOM     14  O   UNL     1       1.725   5.719  20.877  0.00  0.00    +0.000 OA
BRANCH  13  15
ATOM     15  C   UNL     1       1.615   7.962  20.123  0.00  0.00    +0.000 A 
ATOM     16  C   UNL     1       1.669   8.738  18.958  0.00  0.00    +0.000 A 
ATOM     17  C   UNL     1       1.201  10.056  18.975  0.00  0.00    +0.000 A 
ATOM     18  C   UNL     1       0.672  10.592  20.149  0.00  0.00    +0.000 A 
ATOM     19 CL   UNL     1       0.101  12.214  20.172  0.00  0.00    +0.000 Cl
ATOM     20  C   UNL     1       0.598   9.822  21.307  0.00  0.00    +0.000 A 
ATOM     21  C   UNL     1       1.061   8.505  21.292  0.00  0.00    +0.000 A 
ENDBRANCH  13  15
ENDBRANCH   2  13
TORSDOF 5
ENDMDL
MODEL 9
REMARK VINA RESULT:      -6.8      4.437      6.390
REMARK  Name = 
REMARK  6 active torsions:
REMARK  status: ('A' for Active; 'I' for Inactive)
REMARK    1  A    between atoms: C_1  and  O_2
REMARK    2  A    between atoms: O_2  and  C_3
REMARK    3  A    between atoms: C_6  and  O_7
REMARK    4  A    between atoms: C_8  and  C_9
REMARK    5  A    between atoms: C_10  and  C_11
REMARK    6  A    between atoms: C_11  and  C_13
REMARK                            x       y       z     vdW  Elec       q    Type
REMARK                         _______ _______ _______ _____ _____    ______ ____
ROOT
ATOM      1  C   UNL     1       6.117   5.189  15.439  0.00  0.00    +0.000 C 
ATOM      2  C   UNL     1       4.915   5.230  16.035  0.00  0.00    +0.000 C 
ENDROOT
BRANCH   1   7
ATOM      3  C   UNL     1       5.524   3.310  12.194  0.00  0.00    +0.000 A 
ATOM      4  C   UNL     1       6.672   3.647  11.477  0.00  0.00    +0.000 A 
ATOM      5  C   UNL     1       7.647   4.468  12.044  0.00  0.00    +0.000 A 
ATOM      6  C   UNL     1       7.465   4.967  13.336  0.00  0.00    +0.000 A 
ATOM      7  C   UNL     1       6.313   4.659  14.074  0.00  0.00    +0.000 A 
ATOM      8  C   UNL     1       5.357   3.807  13.489  0.00  0.00    +0.000 A 
BRANCH   3  10
ATOM      9  C   UNL     1       3.563   3.133  10.861  0.00  0.00    +0.000 C 
ATOM     10  O   UNL     1       4.644   2.496  11.534  0.00  0.00    +0.000 OA
ENDBRANCH   3  10
BRANCH   6  11
ATOM     11  O   UNL     1       8.418   5.783  13.884  0.00  0.00    +0.000 OA
ATOM     12  H   UNL     1       8.980   6.134  13.175  0.00  0.00    +0.000 HD
ENDBRANCH   6  11
ENDBRANCH   1   7
BRANCH   2  13
ATOM     13  C   UNL     1       4.725   5.819  17.385  0.00  0.00    +0.000 C 
ATOM     14  O   UNL     1       5.299   6.836  17.753  0.00  0.00    +0.000 OA
BRANCH  13  15
ATOM     15  C   UNL     1       3.826   5.065  18.305  0.00  0.00    +0.000 A 
ATOM     16  C   UNL     1       3.269   5.724  19.408  0.00  0.00    +0.000 A 
ATOM     17  C   UNL     1       2.435   5.028  20.290  0.00  0.00    +0.000 A 
ATOM     18  C   UNL     1       2.154   3.680  20.064  0.00  0.00    +0.000 A 
ATOM     19 CL   UNL     1       1.133   2.822  21.150  0.00  0.00    +0.000 Cl
ATOM     20  C   UNL     1       2.688   3.022  18.960  0.00  0.00    +0.000 A 
ATOM     21  C   UNL     1       3.518   3.715  18.076  0.00  0.00    +0.000 A 
ENDBRANCH  13  15
ENDBRANCH   2  13
TORSDOF 5
ENDMDL
