MODEL 1
REMARK VINA RESULT:      -7.3      0.000      0.000
REMARK  Name = 
REMARK  8 active torsions:
REMARK  status: ('A' for Active; 'I' for Inactive)
REMARK    1  A    between atoms: C_1  and  C_2
REMARK    2  A    between atoms: C_2  and  N_3
REMARK    3  A    between atoms: C_5  and  C_6
REMARK    4  A    between atoms: C_6  and  C_8
REMARK    5  A    between atoms: C_8  and  C_9
REMARK    6  A    between atoms: C_9  and  C_11
REMARK    7  A    between atoms: C_11  and  O_13
REMARK    8  A    between atoms: O_13  and  C_14
REMARK                            x       y       z     vdW  Elec       q    Type
REMARK                         _______ _______ _______ _____ _____    ______ ____
ROOT
ATOM      1  N   UNL     1       3.234   6.327  18.973  0.00  0.00    +0.000 N 
ATOM      2  C   UNL     1       4.399   6.235  18.255  0.00  0.00    +0.000 A 
ATOM      3  C   UNL     1       4.950   4.983  18.464  0.00  0.00    +0.000 A 
ATOM      4  C   UNL     1       4.066   4.293  19.357  0.00  0.00    +0.000 A 
ATOM      5  C   UNL     1       4.064   2.996  19.916  0.00  0.00    +0.000 A 
ATOM      6  C   UNL     1       3.016   2.601  20.754  0.00  0.00    +0.000 A 
ATOM      7  C   UNL     1       1.979   3.480  21.050  0.00  0.00    +0.000 A 
ATOM      8  C   UNL     1       1.956   4.769  20.512  0.00  0.00    +0.000 A 
ATOM      9  C   UNL     1       3.005   5.153  19.659  0.00  0.00    +0.000 A 
ENDROOT
BRANCH   1  11
ATOM     10  C   UNL     1       2.552   8.348  17.716  0.00  0.00    +0.000 C 
ATOM     11  C   UNL     1       2.354   7.485  18.949  0.00  0.00    +0.000 C 
ENDBRANCH   1  11
BRANCH   3  12
ATOM     12  C   UNL     1       6.186   4.472  17.869  0.00  0.00    +0.000 C 
ATOM     13  O   UNL     1       7.210   4.319  18.535  0.00  0.00    +0.000 OA
BRANCH  12  14
ATOM     14  C   UNL     1       6.198   4.122  16.409  0.00  0.00    +0.000 C 
BRANCH  14  15
ATOM     15  C   UNL     1       6.910   5.151  15.596  0.00  0.00    +0.000 C 
ATOM     16  O   UNL     1       7.414   6.164  16.066  0.00  0.00    +0.000 OA
BRANCH  15  17
ATOM     17  C   UNL     1       7.011   4.860  14.108  0.00  0.00    +0.000 C 
ATOM     18  O   UNL     1       7.724   5.514  13.371  0.00  0.00    +0.000 OA
BRANCH  17  19
ATOM     19  O   UNL     1       6.221   3.813  13.796  0.00  0.00    +0.000 OA
ATOM     20  C   UNL     1       6.239   3.472  12.411  0.00  0.00    +0.000 C 
ENDBRANCH  17  19
ENDBRANCH  15  17
ENDBRANCH  14  15
ENDBRANCH  12  14
ENDBRANCH   3  12
TORSDOF 6
ENDMDL
MODEL 2
REMARK VINA RESULT:      -7.1      1.181      1.181
REMARK  Name = 
REMARK  8 active torsions:
REMARK  status: ('A' for Active; 'I' for Inactive)
REMARK    1  A    between atoms: C_1  and  C_2
REMARK    2  A    between atoms: C_2  and  N_3
REMARK    3  A    between atoms: C_5  and  C_6
REMARK    4  A    between atoms: C_6  and  C_8
REMARK    5  A    between atoms: C_8  and  C_9
REMARK    6  A    between atoms: C_9  and  C_11
REMARK    7  A    between atoms: C_11  and  O_13
REMARK    8  A    between atoms: O_13  and  C_14
REMARK                            x       y       z     vdW  Elec       q    Type
REMARK                         _______ _______ _______ _____ _____    ______ ____
ROOT
ATOM      1  N   UNL     1       2.990   5.979  18.154  0.00  0.00    +0.000 N 
ATOM      2  C   UNL     1       4.332   6.048  17.874  0.00  0.00    +0.000 A 
ATOM      3  C   UNL     1       4.844   4.763  17.844  0.00  0.00    +0.000 A 
ATOM      4  C   UNL     1       3.749   3.881  18.124  0.00  0.00    +0.000 A 
ATOM      5  C   UNL     1       3.625   2.477  18.207  0.00  0.00    +0.000 A 
ATOM      6  C   UNL     1       2.379   1.902  18.477  0.00  0.00    +0.000 A 
ATOM      7  C   UNL     1       1.260   2.703  18.675  0.00  0.00    +0.000 A 
ATOM      8  C   UNL     1       1.353   4.096  18.599  0.00  0.00    +0.000 A 
ATOM      9  C   UNL     1       2.606   4.666  18.313  0.00  0.00    +0.000 A 
ENDROOT
BRANCH   1  11
ATOM     10  C   UNL     1       2.806   8.422  17.796  0.00  0.00    +0.000 C 
ATOM     11  C   UNL     1       2.111   7.137  18.209  0.00  0.00    +0.000 C 
ENDBRANCH   1  11
BRANCH   3  12
ATOM     12  C   UNL     1       6.232   4.392  17.564  0.00  0.00    +0.000 C 
ATOM     13  O   UNL     1       7.100   4.429  18.436  0.00  0.00    +0.000 OA
BRANCH  12  14
ATOM     14  C   UNL     1       6.599   3.950  16.177  0.00  0.00    +0.000 C 
BRANCH  14  15
ATOM     15  C   UNL     1       7.112   5.081  15.350  0.00  0.00    +0.000 C 
ATOM     16  O   UNL     1       7.491   6.150  15.815  0.00  0.00    +0.000 OA
BRANCH  15  17
ATOM     17  C   UNL     1       7.172   4.828  13.853  0.00  0.00    +0.000 C 
ATOM     18  O   UNL     1       7.850   5.513  13.111  0.00  0.00    +0.000 OA
BRANCH  17  19
ATOM     19  O   UNL     1       6.393   3.774  13.540  0.00  0.00    +0.000 OA
ATOM     20  C   UNL     1       6.359   3.478  12.145  0.00  0.00    +0.000 C 
ENDBRANCH  17  19
ENDBRANCH  15  17
ENDBRANCH  14  15
ENDBRANCH  12  14
ENDBRANCH   3  12
TORSDOF 6
ENDMDL
MODEL 3
REMARK VINA RESULT:      -7.1      1.880      2.937
REMARK  Name = 
REMARK  8 active torsions:
REMARK  status: ('A' for Active; 'I' for Inactive)
REMARK    1  A    between atoms: C_1  and  C_2
REMARK    2  A    between atoms: C_2  and  N_3
REMARK    3  A    between atoms: C_5  and  C_6
REMARK    4  A    between atoms: C_6  and  C_8
REMARK    5  A    between atoms: C_8  and  C_9
REMARK    6  A    between atoms: C_9  and  C_11
REMARK    7  A    between atoms: C_11  and  O_13
REMARK    8  A    between atoms: O_13  and  C_14
REMARK                            x       y       z     vdW  Elec       q    Type
REMARK                         _______ _______ _______ _____ _____    ______ ____
ROOT
ATOM      1  N   UNL     1       2.523   6.390  19.273  0.00  0.00    +0.000 N 
ATOM      2  C   UNL     1       3.462   6.425  18.273  0.00  0.00    +0.000 A 
ATOM      3  C   UNL     1       3.678   5.134  17.823  0.00  0.00    +0.000 A 
ATOM      4  C   UNL     1       2.824   4.284  18.599  0.00  0.00    +0.000 A 
ATOM      5  C   UNL     1       2.573   2.894  18.599  0.00  0.00    +0.000 A 
ATOM      6  C   UNL     1       1.634   2.356  19.486  0.00  0.00    +0.000 A 
ATOM      7  C   UNL     1       0.953   3.178  20.376  0.00  0.00    +0.000 A 
ATOM      8  C   UNL     1       1.182   4.557  20.400  0.00  0.00    +0.000 A 
ATOM      9  C   UNL     1       2.116   5.092  19.495  0.00  0.00    +0.000 A 
ENDROOT
BRANCH   1  11
ATOM     10  C   UNL     1       1.677   8.698  18.980  0.00  0.00    +0.000 C 
ATOM     11  C   UNL     1       2.005   7.572  19.944  0.00  0.00    +0.000 C 
ENDBRANCH   1  11
BRANCH   3  12
ATOM     12  C   UNL     1       4.592   4.734  16.752  0.00  0.00    +0.000 C 
ATOM     13  O   UNL     1       4.725   3.556  16.421  0.00  0.00    +0.000 OA
BRANCH  12  14
ATOM     14  C   UNL     1       5.383   5.793  16.041  0.00  0.00    +0.000 C 
BRANCH  14  15
ATOM     15  C   UNL     1       6.843   5.692  16.336  0.00  0.00    +0.000 C 
ATOM     16  O   UNL     1       7.612   4.954  15.731  0.00  0.00    +0.000 OA
BRANCH  15  17
ATOM     17  C   UNL     1       7.355   6.599  17.442  0.00  0.00    +0.000 C 
ATOM     18  O   UNL     1       7.379   6.244  18.605  0.00  0.00    +0.000 OA
BRANCH  17  19
ATOM     19  O   UNL     1       7.750   7.775  16.917  0.00  0.00    +0.000 OA
ATOM     20  C   UNL     1       8.020   8.779  17.894  0.00  0.00    +0.000 C 
ENDBRANCH  17  19
ENDBRANCH  15  17
ENDBRANCH  14  15
ENDBRANCH  12  14
ENDBRANCH   3  12
TORSDOF 6
ENDMDL
MODEL 4
REMARK VINA RESULT:      -7.0      1.575      2.631
REMARK  Name = 
REMARK  8 active torsions:
REMARK  status: ('A' for Active; 'I' for Inactive)
REMARK    1  A    between atoms: C_1  and  C_2
REMARK    2  A    between atoms: C_2  and  N_3
REMARK    3  A    between atoms: C_5  and  C_6
REMARK    4  A    between atoms: C_6  and  C_8
REMARK    5  A    between atoms: C_8  and  C_9
REMARK    6  A    between atoms: C_9  and  C_11
REMARK    7  A    between atoms: C_11  and  O_13
REMARK    8  A    between atoms: O_13  and  C_14
REMARK                            x       y       z     vdW  Elec       q    Type
REMARK                         _______ _______ _______ _____ _____    ______ ____
ROOT
ATOM      1  N   UNL     1       2.613   6.682  18.828  0.00  0.00    +0.000 N 
ATOM      2  C   UNL     1       3.499   6.502  17.796  0.00  0.00    +0.000 A 
ATOM      3  C   UNL     1       3.747   5.148  17.656  0.00  0.00    +0.000 A 
ATOM      4  C   UNL     1       2.969   4.486  18.661  0.00  0.00    +0.000 A 
ATOM      5  C   UNL     1       2.776   3.130  19.008  0.00  0.00    +0.000 A 
ATOM      6  C   UNL     1       1.905   2.795  20.050  0.00  0.00    +0.000 A 
ATOM      7  C   UNL     1       1.235   3.787  20.756  0.00  0.00    +0.000 A 
ATOM      8  C   UNL     1       1.407   5.137  20.436  0.00  0.00    +0.000 A 
ATOM      9  C   UNL     1       2.272   5.465  19.377  0.00  0.00    +0.000 A 
ENDROOT
BRANCH   1  11
ATOM     10  C   UNL     1       1.900   8.922  18.052  0.00  0.00    +0.000 C 
ATOM     11  C   UNL     1       2.080   7.975  19.225  0.00  0.00    +0.000 C 
ENDBRANCH   1  11
BRANCH   3  12
ATOM     12  C   UNL     1       4.623   4.528  16.661  0.00  0.00    +0.000 C 
ATOM     13  O   UNL     1       4.815   3.313  16.635  0.00  0.00    +0.000 OA
BRANCH  12  14
ATOM     14  C   UNL     1       5.299   5.402  15.645  0.00  0.00    +0.000 C 
BRANCH  14  15
ATOM     15  C   UNL     1       6.780   5.428  15.829  0.00  0.00    +0.000 C 
ATOM     16  O   UNL     1       7.573   4.912  15.049  0.00  0.00    +0.000 OA
BRANCH  15  17
ATOM     17  C   UNL     1       7.278   6.175  17.054  0.00  0.00    +0.000 C 
ATOM     18  O   UNL     1       7.272   7.390  17.113  0.00  0.00    +0.000 OA
BRANCH  17  19
ATOM     19  O   UNL     1       7.688   5.293  17.987  0.00  0.00    +0.000 OA
ATOM     20  C   UNL     1       7.759   5.840  19.303  0.00  0.00    +0.000 C 
ENDBRANCH  17  19
ENDBRANCH  15  17
ENDBRANCH  14  15
ENDBRANCH  12  14
ENDBRANCH   3  12
TORSDOF 6
ENDMDL
MODEL 5
REMARK VINA RESULT:      -7.0      3.402      6.259
REMARK  Name = 
REMARK  8 active torsions:
REMARK  status: ('A' for Active; 'I' for Inactive)
REMARK    1  A    between atoms: C_1  and  C_2
REMARK    2  A    between atoms: C_2  and  N_3
REMARK    3  A    between atoms: C_5  and  C_6
REMARK    4  A    between atoms: C_6  and  C_8
REMARK    5  A    between atoms: C_8  and  C_9
REMARK    6  A    between atoms: C_9  and  C_11
REMARK    7  A    between atoms: C_11  and  O_13
REMARK    8  A    between atoms: O_13  and  C_14
REMARK                            x       y       z     vdW  Elec       q    Type
REMARK                         _______ _______ _______ _____ _____    ______ ____
ROOT
ATOM      1  N   UNL     1       6.094   4.360  15.620  0.00  0.00    +0.000 N 
ATOM      2  C   UNL     1       4.946   3.613  15.719  0.00  0.00    +0.000 A 
ATOM      3  C   UNL     1       4.541   3.599  17.043  0.00  0.00    +0.000 A 
ATOM      4  C   UNL     1       5.501   4.376  17.771  0.00  0.00    +0.000 A 
ATOM      5  C   UNL     1       5.624   4.749  19.127  0.00  0.00    +0.000 A 
ATOM      6  C   UNL     1       6.689   5.561  19.532  0.00  0.00    +0.000 A 
ATOM      7  C   UNL     1       7.634   5.997  18.611  0.00  0.00    +0.000 A 
ATOM      8  C   UNL     1       7.538   5.642  17.262  0.00  0.00    +0.000 A 
ATOM      9  C   UNL     1       6.457   4.838  16.860  0.00  0.00    +0.000 A 
ENDROOT
BRANCH   1  11
ATOM     10  C   UNL     1       6.260   3.794  13.215  0.00  0.00    +0.000 C 
ATOM     11  C   UNL     1       6.774   4.641  14.366  0.00  0.00    +0.000 C 
ENDBRANCH   1  11
BRANCH   3  12
ATOM     12  C   UNL     1       3.354   2.929  17.576  0.00  0.00    +0.000 C 
ATOM     13  O   UNL     1       3.411   1.798  18.057  0.00  0.00    +0.000 OA
BRANCH  12  14
ATOM     14  C   UNL     1       2.037   3.647  17.536  0.00  0.00    +0.000 C 
BRANCH  14  15
ATOM     15  C   UNL     1       1.135   3.222  18.646  0.00  0.00    +0.000 C 
ATOM     16  O   UNL     1       0.274   2.357  18.533  0.00  0.00    +0.000 OA
BRANCH  15  17
ATOM     17  C   UNL     1       1.362   3.914  19.980  0.00  0.00    +0.000 C 
ATOM     18  O   UNL     1       1.697   5.081  20.050  0.00  0.00    +0.000 OA
BRANCH  17  19
ATOM     19  O   UNL     1       1.130   3.047  20.985  0.00  0.00    +0.000 OA
ATOM     20  C   UNL     1       2.295   2.718  21.741  0.00  0.00    +0.000 C 
ENDBRANCH  17  19
ENDBRANCH  15  17
ENDBRANCH  14  15
ENDBRANCH  12  14
ENDBRANCH   3  12
TORSDOF 6
ENDMDL
MODEL 6
REMARK VINA RESULT:      -6.9      1.826      2.840
REMARK  Name = 
REMARK  8 active torsions:
REMARK  status: ('A' for Active; 'I' for Inactive)
REMARK    1  A    between atoms: C_1  and  C_2
REMARK    2  A    between atoms: C_2  and  N_3
REMARK    3  A    between atoms: C_5  and  C_6
REMARK    4  A    between atoms: C_6  and  C_8
REMARK    5  A    between atoms: C_8  and  C_9
REMARK    6  A    between atoms: C_9  and  C_11
REMARK    7  A    between atoms: C_11  and  O_13
REMARK    8  A    between atoms: O_13  and  C_14
REMARK                            x       y       z     vdW  Elec       q    Type
REMARK                         _______ _______ _______ _____ _____    ______ ____
ROOT
ATOM      1  N   UNL     1       2.374   6.258  19.444  0.00  0.00    +0.000 N 
ATOM      2  C   UNL     1       3.308   6.411  18.449  0.00  0.00    +0.000 A 
ATOM      3  C   UNL     1       3.517   5.183  17.846  0.00  0.00    +0.000 A 
ATOM      4  C   UNL     1       2.665   4.248  18.520  0.00  0.00    +0.000 A 
ATOM      5  C   UNL     1       2.409   2.869  18.354  0.00  0.00    +0.000 A 
ATOM      6  C   UNL     1       1.475   2.230  19.175  0.00  0.00    +0.000 A 
ATOM      7  C   UNL     1       0.801   2.941  20.163  0.00  0.00    +0.000 A 
ATOM      8  C   UNL     1       1.034   4.306  20.350  0.00  0.00    +0.000 A 
ATOM      9  C   UNL     1       1.964   4.944  19.511  0.00  0.00    +0.000 A 
ENDROOT
BRANCH   1  11
ATOM     10  C   UNL     1       1.698   8.639  19.467  0.00  0.00    +0.000 C 
ATOM     11  C   UNL     1       1.864   7.352  20.255  0.00  0.00    +0.000 C 
ENDBRANCH   1  11
BRANCH   3  12
ATOM     12  C   UNL     1       4.424   4.912  16.730  0.00  0.00    +0.000 C 
ATOM     13  O   UNL     1       4.468   3.810  16.185  0.00  0.00    +0.000 OA
BRANCH  12  14
ATOM     14  C   UNL     1       5.318   6.014  16.238  0.00  0.00    +0.000 C 
BRANCH  14  15
ATOM     15  C   UNL     1       6.717   5.542  16.021  0.00  0.00    +0.000 C 
ATOM     16  O   UNL     1       7.258   5.493  14.923  0.00  0.00    +0.000 OA
BRANCH  15  17
ATOM     17  C   UNL     1       7.476   5.138  17.274  0.00  0.00    +0.000 C 
ATOM     18  O   UNL     1       8.157   4.131  17.316  0.00  0.00    +0.000 OA
BRANCH  17  19
ATOM     19  O   UNL     1       7.267   6.048  18.245  0.00  0.00    +0.000 OA
ATOM     20  C   UNL     1       6.953   5.474  19.513  0.00  0.00    +0.000 C 
ENDBRANCH  17  19
ENDBRANCH  15  17
ENDBRANCH  14  15
ENDBRANCH  12  14
ENDBRANCH   3  12
TORSDOF 6
ENDMDL
MODEL 7
REMARK VINA RESULT:      -6.9      1.192      3.116
REMARK  Name = 
REMARK  8 active torsions:
REMARK  status: ('A' for Active; 'I' for Inactive)
REMARK    1  A    between atoms: C_1  and  C_2
REMARK    2  A    between atoms: C_2  and  N_3
REMARK    3  A    between atoms: C_5  and  C_6
REMARK    4  A    between atoms: C_6  and  C_8
REMARK    5  A    between atoms: C_8  and  C_9
REMARK    6  A    between atoms: C_9  and  C_11
REMARK    7  A    between atoms: C_11  and  O_13
REMARK    8  A    between atoms: O_13  and  C_14
REMARK                            x       y       z     vdW  Elec       q    Type
REMARK                         _______ _______ _______ _____ _____    ______ ____
ROOT
ATOM      1  N   UNL     1       2.991   4.683  20.182  0.00  0.00    +0.000 N 
ATOM      2  C   UNL     1       3.971   4.029  19.477  0.00  0.00    +0.000 A 
ATOM      3  C   UNL     1       4.379   4.839  18.432  0.00  0.00    +0.000 A 
ATOM      4  C   UNL     1       3.598   6.038  18.517  0.00  0.00    +0.000 A 
ATOM      5  C   UNL     1       3.565   7.234  17.766  0.00  0.00    +0.000 A 
ATOM      6  C   UNL     1       2.685   8.259  18.127  0.00  0.00    +0.000 A 
ATOM      7  C   UNL     1       1.833   8.107  19.216  0.00  0.00    +0.000 A 
ATOM      8  C   UNL     1       1.844   6.934  19.977  0.00  0.00    +0.000 A 
ATOM      9  C   UNL     1       2.742   5.914  19.616  0.00  0.00    +0.000 A 
ENDROOT
BRANCH   1  11
ATOM     10  C   UNL     1       1.319   3.098  21.087  0.00  0.00    +0.000 C 
ATOM     11  C   UNL     1       2.366   4.156  21.385  0.00  0.00    +0.000 C 
ENDBRANCH   1  11
BRANCH   3  12
ATOM     12  C   UNL     1       5.417   4.524  17.450  0.00  0.00    +0.000 C 
ATOM     13  O   UNL     1       6.602   4.425  17.769  0.00  0.00    +0.000 OA
BRANCH  12  14
ATOM     14  C   UNL     1       5.021   4.313  16.017  0.00  0.00    +0.000 C 
BRANCH  14  15
ATOM     15  C   UNL     1       5.683   5.292  15.106  0.00  0.00    +0.000 C 
ATOM     16  O   UNL     1       5.486   6.501  15.143  0.00  0.00    +0.000 OA
BRANCH  15  17
ATOM     17  C   UNL     1       6.670   4.702  14.112  0.00  0.00    +0.000 C 
ATOM     18  O   UNL     1       6.413   3.704  13.466  0.00  0.00    +0.000 OA
BRANCH  17  19
ATOM     19  O   UNL     1       7.790   5.450  14.089  0.00  0.00    +0.000 OA
ATOM     20  C   UNL     1       8.301   5.678  12.776  0.00  0.00    +0.000 C 
ENDBRANCH  17  19
ENDBRANCH  15  17
ENDBRANCH  14  15
ENDBRANCH  12  14
ENDBRANCH   3  12
TORSDOF 6
ENDMDL
MODEL 8
REMARK VINA RESULT:      -6.8      1.488      1.632
REMARK  Name = 
REMARK  8 active torsions:
REMARK  status: ('A' for Active; 'I' for Inactive)
REMARK    1  A    between atoms: C_1  and  C_2
REMARK    2  A    between atoms: C_2  and  N_3
REMARK    3  A    between atoms: C_5  and  C_6
REMARK    4  A    between atoms: C_6  and  C_8
REMARK    5  A    between atoms: C_8  and  C_9
REMARK    6  A    between atoms: C_9  and  C_11
REMARK    7  A    between atoms: C_11  and  O_13
REMARK    8  A    between atoms: O_13  and  C_14
REMARK                            x       y       z     vdW  Elec       q    Type
REMARK                         _______ _______ _______ _____ _____    ______ ____
ROOT
ATOM      1  N   UNL     1       3.060   6.388  18.249  0.00  0.00    +0.000 N 
ATOM      2  C   UNL     1       4.405   6.577  18.440  0.00  0.00    +0.000 A 
ATOM      3  C   UNL     1       5.010   5.340  18.581  0.00  0.00    +0.000 A 
ATOM      4  C   UNL     1       3.967   4.362  18.470  0.00  0.00    +0.000 A 
ATOM      5  C   UNL     1       3.949   2.950  18.502  0.00  0.00    +0.000 A 
ATOM      6  C   UNL     1       2.741   2.266  18.332  0.00  0.00    +0.000 A 
ATOM      7  C   UNL     1       1.555   2.965  18.141  0.00  0.00    +0.000 A 
ATOM      8  C   UNL     1       1.543   4.362  18.106  0.00  0.00    +0.000 A 
ATOM      9  C   UNL     1       2.763   5.042  18.263  0.00  0.00    +0.000 A 
ENDROOT
BRANCH   1  11
ATOM     10  C   UNL     1       1.883   8.332  19.231  0.00  0.00    +0.000 C 
ATOM     11  C   UNL     1       2.114   7.466  18.006  0.00  0.00    +0.000 C 
ENDBRANCH   1  11
BRANCH   3  12
ATOM     12  C   UNL     1       6.438   5.094  18.787  0.00  0.00    +0.000 C 
ATOM     13  O   UNL     1       6.959   5.198  19.897  0.00  0.00    +0.000 OA
BRANCH  12  14
ATOM     14  C   UNL     1       7.283   4.701  17.611  0.00  0.00    +0.000 C 
BRANCH  14  15
ATOM     15  C   UNL     1       7.160   5.674  16.486  0.00  0.00    +0.000 C 
ATOM     16  O   UNL     1       7.718   6.766  16.464  0.00  0.00    +0.000 OA
BRANCH  15  17
ATOM     17  C   UNL     1       6.306   5.221  15.314  0.00  0.00    +0.000 C 
ATOM     18  O   UNL     1       5.205   5.693  15.100  0.00  0.00    +0.000 OA
BRANCH  17  19
ATOM     19  O   UNL     1       6.962   4.276  14.613  0.00  0.00    +0.000 OA
ATOM     20  C   UNL     1       6.253   3.817  13.463  0.00  0.00    +0.000 C 
ENDBRANCH  17  19
ENDBRANCH  15  17
ENDBRANCH  14  15
ENDBRANCH  12  14
ENDBRANCH   3  12
TORSDOF 6
ENDMDL
MODEL 9
REMARK VINA RESULT:      -6.8      3.193      6.390
REMARK  Name = 
REMARK  8 active torsions:
REMARK  status: ('A' for Active; 'I' for Inactive)
REMARK    1  A    between atoms: C_1  and  C_2
REMARK    2  A    between atoms: C_2  and  N_3
REMARK    3  A    between atoms: C_5  and  C_6
REMARK    4  A    between atoms: C_6  and  C_8
REMARK    5  A    between atoms: C_8  and  C_9
REMARK    6  A    between atoms: C_9  and  C_11
REMARK    7  A    between atoms: C_11  and  O_13
REMARK    8  A    between atoms: O_13  and  C_14
REMARK                            x       y       z     vdW  Elec       q    Type
REMARK                         _______ _______ _______ _____ _____    ______ ____
ROOT
ATOM      1  N   UNL     1       6.585   5.183  17.561  0.00  0.00    +0.000 N 
ATOM      2  C   UNL     1       5.523   4.581  18.190  0.00  0.00    +0.000 A 
ATOM      3  C   UNL     1       4.800   3.867  17.251  0.00  0.00    +0.000 A 
ATOM      4  C   UNL     1       5.465   4.055  15.995  0.00  0.00    +0.000 A 
ATOM      5  C   UNL     1       5.233   3.572  14.689  0.00  0.00    +0.000 A 
ATOM      6  C   UNL     1       6.103   3.924  13.651  0.00  0.00    +0.000 A 
ATOM      7  C   UNL     1       7.191   4.756  13.894  0.00  0.00    +0.000 A 
ATOM      8  C   UNL     1       7.444   5.250  15.177  0.00  0.00    +0.000 A 
ATOM      9  C   UNL     1       6.574   4.879  16.217  0.00  0.00    +0.000 A 
ENDROOT
BRANCH   1  11
ATOM     10  C   UNL     1       7.617   7.421  17.798  0.00  0.00    +0.000 C 
ATOM     11  C   UNL     1       7.596   5.971  18.248  0.00  0.00    +0.000 C 
ENDBRANCH   1  11
BRANCH   3  12
ATOM     12  C   UNL     1       3.601   3.067  17.509  0.00  0.00    +0.000 C 
ATOM     13  O   UNL     1       3.671   1.879  17.820  0.00  0.00    +0.000 OA
BRANCH  12  14
ATOM     14  C   UNL     1       2.255   3.721  17.394  0.00  0.00    +0.000 C 
BRANCH  14  15
ATOM     15  C   UNL     1       1.784   4.261  18.702  0.00  0.00    +0.000 C 
ATOM     16  O   UNL     1       2.023   5.396  19.098  0.00  0.00    +0.000 OA
BRANCH  15  17
ATOM     17  C   UNL     1       0.938   3.316  19.539  0.00  0.00    +0.000 C 
ATOM     18  O   UNL     1       0.323   2.392  19.040  0.00  0.00    +0.000 OA
BRANCH  17  19
ATOM     19  O   UNL     1       1.005   3.674  20.836  0.00  0.00    +0.000 OA
ATOM     20  C   UNL     1       1.525   2.654  21.687  0.00  0.00    +0.000 C 
ENDBRANCH  17  19
ENDBRANCH  15  17
ENDBRANCH  14  15
ENDBRANCH  12  14
ENDBRANCH   3  12
TORSDOF 6
ENDMDL
