MODEL 1
REMARK VINA RESULT:      -8.3      0.000      0.000
REMARK  Name = 
REMARK  4 active torsions:
REMARK  status: ('A' for Active; 'I' for Inactive)
REMARK    1  A    between atoms: N_2  and  C_4
REMARK    2  A    between atoms: C_7  and  N_8
REMARK    3  A    between atoms: N_8  and  S_9
REMARK    4  A    between atoms: S_9  and  C_12
REMARK                            x       y       z     vdW  Elec       q    Type
REMARK                         _______ _______ _______ _____ _____    ______ ____
ROOT
ATOM      1  N   UNL     1       4.295   2.787  18.027  0.00  0.00    +0.000 N 
ATOM      2  H   UNL     1       4.639   1.863  17.770  0.00  0.00    +0.000 HD
ENDROOT
BRANCH   1   6
ATOM      3  C   UNL     1       6.838   6.148  17.914  0.00  0.00    +0.000 A 
ATOM      4  C   UNL     1       6.530   5.538  19.137  0.00  0.00    +0.000 A 
ATOM      5  C   UNL     1       5.675   4.434  19.165  0.00  0.00    +0.000 A 
ATOM      6  C   UNL     1       5.150   3.921  17.979  0.00  0.00    +0.000 A 
ATOM      7  C   UNL     1       5.447   4.554  16.766  0.00  0.00    +0.000 A 
ATOM      8  F   UNL     1       4.893   4.123  15.623  0.00  0.00    +0.000 F 
ATOM      9  C   UNL     1       6.289   5.666  16.720  0.00  0.00    +0.000 A 
BRANCH   3  11
ATOM     10  O   UNL     1       8.539   7.430  18.827  0.00  0.00    +0.000 OA
ATOM     11  N   UNL     1       7.735   7.311  17.891  0.00  0.00    +0.000 N 
ATOM     12  O   UNL     1       7.632   8.097  16.944  0.00  0.00    +0.000 OA
ENDBRANCH   3  11
ENDBRANCH   1   6
BRANCH   1  13
ATOM     13  S   UNL     1       2.626   2.970  18.070  0.00  0.00    +0.000 S 
ATOM     14  O   UNL     1       2.167   3.166  16.714  0.00  0.00    +0.000 OA
ATOM     15  O   UNL     1       2.083   1.916  18.900  0.00  0.00    +0.000 OA
BRANCH  13  16
ATOM     16  C   UNL     1       2.372   4.504  18.935  0.00  0.00    +0.000 A 
ATOM     17  C   UNL     1       2.370   5.690  18.186  0.00  0.00    +0.000 A 
ATOM     18  C   UNL     1       2.109   6.915  18.804  0.00  0.00    +0.000 A 
ATOM     19 CL   UNL     1       2.102   8.330  17.816  0.00  0.00    +0.000 Cl
ATOM     20  C   UNL     1       1.847   6.958  20.177  0.00  0.00    +0.000 A 
ATOM     21 CL   UNL     1       1.478   8.429  21.004  0.00  0.00    +0.000 Cl
ATOM     22  C   UNL     1       1.870   5.778  20.927  0.00  0.00    +0.000 A 
ATOM     23  C   UNL     1       2.150   4.549  20.315  0.00  0.00    +0.000 A 
ATOM     24 CL   UNL     1       2.140   3.157  21.336  0.00  0.00    +0.000 Cl
ENDBRANCH  13  16
ENDBRANCH   1  13
TORSDOF 4
ENDMDL
MODEL 2
REMARK VINA RESULT:      -7.9      3.879      5.638
REMARK  Name = 
REMARK  4 active torsions:
REMARK  status: ('A' for Active; 'I' for Inactive)
REMARK    1  A    between atoms: N_2  and  C_4
REMARK    2  A    between atoms: C_7  and  N_8
REMARK    3  A    between atoms: N_8  and  S_9
REMARK    4  A    between atoms: S_9  and  C_12
REMARK                            x       y       z     vdW  Elec       q    Type
REMARK                         _______ _______ _______ _____ _____    ______ ____
ROOT
ATOM      1  N   UNL     1       7.325   5.756  15.646  0.00  0.00    +0.000 N 
ATOM      2  H   UNL     1       8.193   5.547  16.138  0.00  0.00    +0.000 HD
ENDROOT
BRANCH   1   6
ATOM      3  C   UNL     1       5.950   3.272  12.530  0.00  0.00    +0.000 A 
ATOM      4  C   UNL     1       5.337   3.228  13.789  0.00  0.00    +0.000 A 
ATOM      5  C   UNL     1       5.809   4.044  14.819  0.00  0.00    +0.000 A 
ATOM      6  C   UNL     1       6.870   4.922  14.590  0.00  0.00    +0.000 A 
ATOM      7  C   UNL     1       7.489   4.939  13.334  0.00  0.00    +0.000 A 
ATOM      8  F   UNL     1       8.557   5.719  13.115  0.00  0.00    +0.000 F 
ATOM      9  C   UNL     1       7.039   4.120  12.298  0.00  0.00    +0.000 A 
BRANCH   3  11
ATOM     10  O   UNL     1       4.334   2.669  10.981  0.00  0.00    +0.000 OA
ATOM     11  N   UNL     1       5.451   2.407  11.452  0.00  0.00    +0.000 N 
ATOM     12  O   UNL     1       6.173   1.476  11.083  0.00  0.00    +0.000 OA
ENDBRANCH   3  11
ENDBRANCH   1   6
BRANCH   1  13
ATOM     13  S   UNL     1       6.280   6.824  16.410  0.00  0.00    +0.000 S 
ATOM     14  O   UNL     1       7.080   7.766  17.161  0.00  0.00    +0.000 OA
ATOM     15  O   UNL     1       5.311   7.275  15.435  0.00  0.00    +0.000 OA
BRANCH  13  16
ATOM     16  C   UNL     1       5.407   5.821  17.592  0.00  0.00    +0.000 A 
ATOM     17  C   UNL     1       4.039   5.594  17.381  0.00  0.00    +0.000 A 
ATOM     18  C   UNL     1       3.320   4.761  18.241  0.00  0.00    +0.000 A 
ATOM     19 CL   UNL     1       1.646   4.511  17.906  0.00  0.00    +0.000 Cl
ATOM     20  C   UNL     1       3.970   4.148  19.317  0.00  0.00    +0.000 A 
ATOM     21 CL   UNL     1       3.157   3.074  20.399  0.00  0.00    +0.000 Cl
ATOM     22  C   UNL     1       5.328   4.390  19.539  0.00  0.00    +0.000 A 
ATOM     23  C   UNL     1       6.050   5.241  18.691  0.00  0.00    +0.000 A 
ATOM     24 CL   UNL     1       7.723   5.458  19.054  0.00  0.00    +0.000 Cl
ENDBRANCH  13  16
ENDBRANCH   1  13
TORSDOF 4
ENDMDL
MODEL 3
REMARK VINA RESULT:      -7.8      0.969      1.542
REMARK  Name = 
REMARK  4 active torsions:
REMARK  status: ('A' for Active; 'I' for Inactive)
REMARK    1  A    between atoms: N_2  and  C_4
REMARK    2  A    between atoms: C_7  and  N_8
REMARK    3  A    between atoms: N_8  and  S_9
REMARK    4  A    between atoms: S_9  and  C_12
REMARK                            x       y       z     vdW  Elec       q    Type
REMARK                         _______ _______ _______ _____ _____    ______ ____
ROOT
ATOM      1  N   UNL     1       4.227   2.855  17.685  0.00  0.00    +0.000 N 
ATOM      2  H   UNL     1       4.550   1.950  17.344  0.00  0.00    +0.000 HD
ENDROOT
BRANCH   1   6
ATOM      3  C   UNL     1       6.844   6.156  17.839  0.00  0.00    +0.000 A 
ATOM      4  C   UNL     1       6.359   5.697  16.606  0.00  0.00    +0.000 A 
ATOM      5  C   UNL     1       5.505   4.594  16.566  0.00  0.00    +0.000 A 
ATOM      6  C   UNL     1       5.110   3.966  17.747  0.00  0.00    +0.000 A 
ATOM      7  C   UNL     1       5.620   4.420  18.970  0.00  0.00    +0.000 A 
ATOM      8  F   UNL     1       5.313   3.784  20.110  0.00  0.00    +0.000 F 
ATOM      9  C   UNL     1       6.486   5.512  19.028  0.00  0.00    +0.000 A 
BRANCH   3  11
ATOM     10  O   UNL     1       7.680   8.120  16.934  0.00  0.00    +0.000 OA
ATOM     11  N   UNL     1       7.747   7.315  17.875  0.00  0.00    +0.000 N 
ATOM     12  O   UNL     1       8.513   7.415  18.837  0.00  0.00    +0.000 OA
ENDBRANCH   3  11
ENDBRANCH   1   6
BRANCH   1  13
ATOM     13  S   UNL     1       2.563   3.074  17.740  0.00  0.00    +0.000 S 
ATOM     14  O   UNL     1       2.112   3.376  16.400  0.00  0.00    +0.000 OA
ATOM     15  O   UNL     1       1.993   1.978  18.493  0.00  0.00    +0.000 OA
BRANCH  13  16
ATOM     16  C   UNL     1       2.343   4.549  18.710  0.00  0.00    +0.000 A 
ATOM     17  C   UNL     1       2.412   5.786  18.052  0.00  0.00    +0.000 A 
ATOM     18  C   UNL     1       2.182   6.972  18.754  0.00  0.00    +0.000 A 
ATOM     19 CL   UNL     1       2.261   8.455  17.875  0.00  0.00    +0.000 Cl
ATOM     20  C   UNL     1       1.879   6.924  20.118  0.00  0.00    +0.000 A 
ATOM     21 CL   UNL     1       1.544   8.345  21.043  0.00  0.00    +0.000 Cl
ATOM     22  C   UNL     1       1.832   5.692  20.778  0.00  0.00    +0.000 A 
ATOM     23  C   UNL     1       2.081   4.501  20.083  0.00  0.00    +0.000 A 
ATOM     24 CL   UNL     1       1.984   3.039  20.996  0.00  0.00    +0.000 Cl
ENDBRANCH  13  16
ENDBRANCH   1  13
TORSDOF 4
ENDMDL
MODEL 4
REMARK VINA RESULT:      -7.7      3.577      5.624
REMARK  Name = 
REMARK  4 active torsions:
REMARK  status: ('A' for Active; 'I' for Inactive)
REMARK    1  A    between atoms: N_2  and  C_4
REMARK    2  A    between atoms: C_7  and  N_8
REMARK    3  A    between atoms: N_8  and  S_9
REMARK    4  A    between atoms: S_9  and  C_12
REMARK                            x       y       z     vdW  Elec       q    Type
REMARK                         _______ _______ _______ _____ _____    ______ ____
ROOT
ATOM      1  N   UNL     1       7.053   6.055  15.780  0.00  0.00    +0.000 N 
ATOM      2  H   UNL     1       7.427   6.980  15.570  0.00  0.00    +0.000 HD
ENDROOT
BRANCH   1   6
ATOM      3  C   UNL     1       5.870   3.435  12.696  0.00  0.00    +0.000 A 
ATOM      4  C   UNL     1       5.088   3.562  13.852  0.00  0.00    +0.000 A 
ATOM      5  C   UNL     1       5.497   4.421  14.874  0.00  0.00    +0.000 A 
ATOM      6  C   UNL     1       6.663   5.174  14.736  0.00  0.00    +0.000 A 
ATOM      7  C   UNL     1       7.447   5.021  13.585  0.00  0.00    +0.000 A 
ATOM      8  F   UNL     1       8.610   5.678  13.465  0.00  0.00    +0.000 F 
ATOM      9  C   UNL     1       7.062   4.157  12.560  0.00  0.00    +0.000 A 
BRANCH   3  11
ATOM     10  O   UNL     1       4.311   2.709  11.142  0.00  0.00    +0.000 OA
ATOM     11  N   UNL     1       5.438   2.526  11.626  0.00  0.00    +0.000 N 
ATOM     12  O   UNL     1       6.221   1.638  11.277  0.00  0.00    +0.000 OA
ENDBRANCH   3  11
ENDBRANCH   1   6
BRANCH   1  13
ATOM     13  S   UNL     1       7.333   5.479  17.332  0.00  0.00    +0.000 S 
ATOM     14  O   UNL     1       8.013   4.209  17.217  0.00  0.00    +0.000 OA
ATOM     15  O   UNL     1       7.892   6.560  18.115  0.00  0.00    +0.000 OA
BRANCH  13  16
ATOM     16  C   UNL     1       5.710   5.147  17.980  0.00  0.00    +0.000 A 
ATOM     17  C   UNL     1       5.512   3.944  18.676  0.00  0.00    +0.000 A 
ATOM     18  C   UNL     1       4.276   3.663  19.261  0.00  0.00    +0.000 A 
ATOM     19 CL   UNL     1       4.113   2.175  20.120  0.00  0.00    +0.000 Cl
ATOM     20  C   UNL     1       3.231   4.586  19.154  0.00  0.00    +0.000 A 
ATOM     21 CL   UNL     1       1.687   4.325  19.885  0.00  0.00    +0.000 Cl
ATOM     22  C   UNL     1       3.422   5.774  18.443  0.00  0.00    +0.000 A 
ATOM     23  C   UNL     1       4.654   6.053  17.837  0.00  0.00    +0.000 A 
ATOM     24 CL   UNL     1       4.779   7.554  16.995  0.00  0.00    +0.000 Cl
ENDBRANCH  13  16
ENDBRANCH   1  13
TORSDOF 4
ENDMDL
MODEL 5
REMARK VINA RESULT:      -7.5      4.567      6.226
REMARK  Name = 
REMARK  4 active torsions:
REMARK  status: ('A' for Active; 'I' for Inactive)
REMARK    1  A    between atoms: N_2  and  C_4
REMARK    2  A    between atoms: C_7  and  N_8
REMARK    3  A    between atoms: N_8  and  S_9
REMARK    4  A    between atoms: S_9  and  C_12
REMARK                            x       y       z     vdW  Elec       q    Type
REMARK                         _______ _______ _______ _____ _____    ______ ____
ROOT
ATOM      1  N   UNL     1       2.923   6.686  20.096  0.00  0.00    +0.000 N 
ATOM      2  H   UNL     1       3.818   6.839  20.560  0.00  0.00    +0.000 HD
ENDROOT
BRANCH   1   6
ATOM      3  C   UNL     1       0.501   9.937  18.940  0.00  0.00    +0.000 A 
ATOM      4  C   UNL     1       1.356   9.330  18.011  0.00  0.00    +0.000 A 
ATOM      5  C   UNL     1       2.165   8.263  18.408  0.00  0.00    +0.000 A 
ATOM      6  C   UNL     1       2.104   7.783  19.716  0.00  0.00    +0.000 A 
ATOM      7  C   UNL     1       1.261   8.413  20.641  0.00  0.00    +0.000 A 
ATOM      8  F   UNL     1       1.243   8.016  21.921  0.00  0.00    +0.000 F 
ATOM      9  C   UNL     1       0.456   9.489  20.265  0.00  0.00    +0.000 A 
BRANCH   3  11
ATOM     10  O   UNL     1       0.162  12.194  18.532  0.00  0.00    +0.000 OA
ATOM     11  N   UNL     1      -0.345  11.062  18.518  0.00  0.00    +0.000 N 
ATOM     12  O   UNL     1      -1.505  10.812  18.177  0.00  0.00    +0.000 OA
ENDBRANCH   3  11
ENDBRANCH   1   6
BRANCH   1  13
ATOM     13  S   UNL     1       2.687   5.164  19.428  0.00  0.00    +0.000 S 
ATOM     14  O   UNL     1       3.028   4.182  20.431  0.00  0.00    +0.000 OA
ATOM     15  O   UNL     1       1.392   5.157  18.781  0.00  0.00    +0.000 OA
BRANCH  13  16
ATOM     16  C   UNL     1       3.915   5.050  18.145  0.00  0.00    +0.000 A 
ATOM     17  C   UNL     1       4.961   5.985  18.149  0.00  0.00    +0.000 A 
ATOM     18  C   UNL     1       5.986   5.901  17.204  0.00  0.00    +0.000 A 
ATOM     19 CL   UNL     1       7.252   7.072  17.284  0.00  0.00    +0.000 Cl
ATOM     20  C   UNL     1       5.970   4.878  16.251  0.00  0.00    +0.000 A 
ATOM     21 CL   UNL     1       7.223   4.686  15.077  0.00  0.00    +0.000 Cl
ATOM     22  C   UNL     1       4.917   3.959  16.235  0.00  0.00    +0.000 A 
ATOM     23  C   UNL     1       3.875   4.050  17.168  0.00  0.00    +0.000 A 
ATOM     24 CL   UNL     1       2.634   2.856  17.060  0.00  0.00    +0.000 Cl
ENDBRANCH  13  16
ENDBRANCH   1  13
TORSDOF 4
ENDMDL
MODEL 6
REMARK VINA RESULT:      -7.5      2.959      3.849
REMARK  Name = 
REMARK  4 active torsions:
REMARK  status: ('A' for Active; 'I' for Inactive)
REMARK    1  A    between atoms: N_2  and  C_4
REMARK    2  A    between atoms: C_7  and  N_8
REMARK    3  A    between atoms: N_8  and  S_9
REMARK    4  A    between atoms: S_9  and  C_12
REMARK                            x       y       z     vdW  Elec       q    Type
REMARK                         _______ _______ _______ _____ _____    ______ ____
ROOT
ATOM      1  N   UNL     1       4.023   6.140  19.612  0.00  0.00    +0.000 N 
ATOM      2  H   UNL     1       4.534   6.301  20.480  0.00  0.00    +0.000 HD
ENDROOT
BRANCH   1   6
ATOM      3  C   UNL     1       6.050   5.062  16.077  0.00  0.00    +0.000 A 
ATOM      4  C   UNL     1       5.634   6.386  16.275  0.00  0.00    +0.000 A 
ATOM      5  C   UNL     1       4.950   6.729  17.443  0.00  0.00    +0.000 A 
ATOM      6  C   UNL     1       4.706   5.767  18.424  0.00  0.00    +0.000 A 
ATOM      7  C   UNL     1       5.107   4.444  18.203  0.00  0.00    +0.000 A 
ATOM      8  F   UNL     1       4.816   3.489  19.098  0.00  0.00    +0.000 F 
ATOM      9  C   UNL     1       5.779   4.080  17.036  0.00  0.00    +0.000 A 
BRANCH   3  11
ATOM     10  O   UNL     1       6.374   3.705  14.226  0.00  0.00    +0.000 OA
ATOM     11  N   UNL     1       6.766   4.706  14.844  0.00  0.00    +0.000 N 
ATOM     12  O   UNL     1       7.710   5.423  14.501  0.00  0.00    +0.000 OA
ENDBRANCH   3  11
ENDBRANCH   1   6
BRANCH   1  13
ATOM     13  S   UNL     1       2.367   5.906  19.762  0.00  0.00    +0.000 S 
ATOM     14  O   UNL     1       1.861   5.487  18.475  0.00  0.00    +0.000 OA
ATOM     15  O   UNL     1       2.134   5.117  20.952  0.00  0.00    +0.000 OA
BRANCH  13  16
ATOM     16  C   UNL     1       1.717   7.533  20.076  0.00  0.00    +0.000 A 
ATOM     17  C   UNL     1       1.222   7.808  21.360  0.00  0.00    +0.000 A 
ATOM     18  C   UNL     1       0.761   9.087  21.679  0.00  0.00    +0.000 A 
ATOM     19 CL   UNL     1       0.187   9.358  23.284  0.00  0.00    +0.000 Cl
ATOM     20  C   UNL     1       0.795  10.098  20.714  0.00  0.00    +0.000 A 
ATOM     21 CL   UNL     1       0.279  11.713  21.046  0.00  0.00    +0.000 Cl
ATOM     22  C   UNL     1       1.268   9.818  19.429  0.00  0.00    +0.000 A 
ATOM     23  C   UNL     1       1.714   8.531  19.097  0.00  0.00    +0.000 A 
ATOM     24 CL   UNL     1       2.288   8.304  17.485  0.00  0.00    +0.000 Cl
ENDBRANCH  13  16
ENDBRANCH   1  13
TORSDOF 4
ENDMDL
MODEL 7
REMARK VINA RESULT:      -7.4      4.559      6.218
REMARK  Name = 
REMARK  4 active torsions:
REMARK  status: ('A' for Active; 'I' for Inactive)
REMARK    1  A    between atoms: N_2  and  C_4
REMARK    2  A    between atoms: C_7  and  N_8
REMARK    3  A    between atoms: N_8  and  S_9
REMARK    4  A    between atoms: S_9  and  C_12
REMARK                            x       y       z     vdW  Elec       q    Type
REMARK                         _______ _______ _______ _____ _____    ______ ____
ROOT
ATOM      1  N   UNL     1       2.975   6.728  20.121  0.00  0.00    +0.000 N 
ATOM      2  H   UNL     1       3.944   6.943  20.354  0.00  0.00    +0.000 HD
ENDROOT
BRANCH   1   6
ATOM      3  C   UNL     1       0.088   9.787  19.850  0.00  0.00    +0.000 A 
ATOM      4  C   UNL     1       0.192   9.018  21.016  0.00  0.00    +0.000 A 
ATOM      5  C   UNL     1       1.142   7.998  21.090  0.00  0.00    +0.000 A 
ATOM      6  C   UNL     1       2.004   7.760  20.020  0.00  0.00    +0.000 A 
ATOM      7  C   UNL     1       1.875   8.522  18.851  0.00  0.00    +0.000 A 
ATOM      8  F   UNL     1       2.643   8.261  17.784  0.00  0.00    +0.000 F 
ATOM      9  C   UNL     1       0.922   9.536  18.755  0.00  0.00    +0.000 A 
BRANCH   3  11
ATOM     10  O   UNL     1      -1.092  11.547  20.792  0.00  0.00    +0.000 OA
ATOM     11  N   UNL     1      -0.917  10.858  19.776  0.00  0.00    +0.000 N 
ATOM     12  O   UNL     1      -1.522  11.003  18.710  0.00  0.00    +0.000 OA
ENDBRANCH   3  11
ENDBRANCH   1   6
BRANCH   1  13
ATOM     13  S   UNL     1       2.694   5.215  19.450  0.00  0.00    +0.000 S 
ATOM     14  O   UNL     1       3.015   4.221  20.448  0.00  0.00    +0.000 OA
ATOM     15  O   UNL     1       1.396   5.244  18.811  0.00  0.00    +0.000 OA
BRANCH  13  16
ATOM     16  C   UNL     1       3.910   5.072  18.159  0.00  0.00    +0.000 A 
ATOM     17  C   UNL     1       4.966   5.996  18.143  0.00  0.00    +0.000 A 
ATOM     18  C   UNL     1       5.983   5.890  17.191  0.00  0.00    +0.000 A 
ATOM     19 CL   UNL     1       7.260   7.049  17.246  0.00  0.00    +0.000 Cl
ATOM     20  C   UNL     1       5.949   4.855  16.251  0.00  0.00    +0.000 A 
ATOM     21 CL   UNL     1       7.190   4.636  15.070  0.00  0.00    +0.000 Cl
ATOM     22  C   UNL     1       4.886   3.947  16.255  0.00  0.00    +0.000 A 
ATOM     23  C   UNL     1       3.853   4.061  17.195  0.00  0.00    +0.000 A 
ATOM     24 CL   UNL     1       2.599   2.877  17.112  0.00  0.00    +0.000 Cl
ENDBRANCH  13  16
ENDBRANCH   1  13
TORSDOF 4
ENDMDL
MODEL 8
REMARK VINA RESULT:      -7.4      3.535      5.486
REMARK  Name = 
REMARK  4 active torsions:
REMARK  status: ('A' for Active; 'I' for Inactive)
REMARK    1  A    between atoms: N_2  and  C_4
REMARK    2  A    between atoms: C_7  and  N_8
REMARK    3  A    between atoms: N_8  and  S_9
REMARK    4  A    between atoms: S_9  and  C_12
REMARK                            x       y       z     vdW  Elec       q    Type
REMARK                         _______ _______ _______ _____ _____    ______ ____
ROOT
ATOM      1  N   UNL     1       6.557   6.199  15.833  0.00  0.00    +0.000 N 
ATOM      2  H   UNL     1       6.598   7.199  15.638  0.00  0.00    +0.000 HD
ENDROOT
BRANCH   1   6
ATOM      3  C   UNL     1       6.387   3.404  12.682  0.00  0.00    +0.000 A 
ATOM      4  C   UNL     1       7.427   4.341  12.737  0.00  0.00    +0.000 A 
ATOM      5  C   UNL     1       7.466   5.272  13.777  0.00  0.00    +0.000 A 
ATOM      6  C   UNL     1       6.491   5.254  14.775  0.00  0.00    +0.000 A 
ATOM      7  C   UNL     1       5.445   4.326  14.695  0.00  0.00    +0.000 A 
ATOM      8  F   UNL     1       4.457   4.340  15.602  0.00  0.00    +0.000 F 
ATOM      9  C   UNL     1       5.382   3.397  13.656  0.00  0.00    +0.000 A 
BRANCH   3  11
ATOM     10  O   UNL     1       5.233   2.054  11.192  0.00  0.00    +0.000 OA
ATOM     11  N   UNL     1       6.348   2.429  11.583  0.00  0.00    +0.000 N 
ATOM     12  O   UNL     1       7.426   2.045  11.119  0.00  0.00    +0.000 OA
ENDBRANCH   3  11
ENDBRANCH   1   6
BRANCH   1  13
ATOM     13  S   UNL     1       7.011   5.728  17.379  0.00  0.00    +0.000 S 
ATOM     14  O   UNL     1       7.812   4.531  17.261  0.00  0.00    +0.000 OA
ATOM     15  O   UNL     1       7.508   6.896  18.074  0.00  0.00    +0.000 OA
BRANCH  13  16
ATOM     16  C   UNL     1       5.484   5.261  18.165  0.00  0.00    +0.000 A 
ATOM     17  C   UNL     1       5.442   4.035  18.846  0.00  0.00    +0.000 A 
ATOM     18  C   UNL     1       4.290   3.650  19.535  0.00  0.00    +0.000 A 
ATOM     19 CL   UNL     1       4.319   2.138  20.368  0.00  0.00    +0.000 Cl
ATOM     20  C   UNL     1       3.174   4.492  19.547  0.00  0.00    +0.000 A 
ATOM     21 CL   UNL     1       1.729   4.101  20.409  0.00  0.00    +0.000 Cl
ATOM     22  C   UNL     1       3.209   5.704  18.851  0.00  0.00    +0.000 A 
ATOM     23  C   UNL     1       4.356   6.086  18.141  0.00  0.00    +0.000 A 
ATOM     24 CL   UNL     1       4.289   7.608  17.329  0.00  0.00    +0.000 Cl
ENDBRANCH  13  16
ENDBRANCH   1  13
TORSDOF 4
ENDMDL
MODEL 9
REMARK VINA RESULT:      -7.2      4.318      6.220
REMARK  Name = 
REMARK  4 active torsions:
REMARK  status: ('A' for Active; 'I' for Inactive)
REMARK    1  A    between atoms: N_2  and  C_4
REMARK    2  A    between atoms: C_7  and  N_8
REMARK    3  A    between atoms: N_8  and  S_9
REMARK    4  A    between atoms: S_9  and  C_12
REMARK                            x       y       z     vdW  Elec       q    Type
REMARK                         _______ _______ _______ _____ _____    ______ ____
ROOT
ATOM      1  N   UNL     1       3.189   5.253  17.808  0.00  0.00    +0.000 N 
ATOM      2  H   UNL     1       2.650   4.914  17.012  0.00  0.00    +0.000 HD
ENDROOT
BRANCH   1   6
ATOM      3  C   UNL     1       1.439   7.802  20.674  0.00  0.00    +0.000 A 
ATOM      4  C   UNL     1       1.535   6.427  20.920  0.00  0.00    +0.000 A 
ATOM      5  C   UNL     1       2.103   5.589  19.958  0.00  0.00    +0.000 A 
ATOM      6  C   UNL     1       2.600   6.120  18.768  0.00  0.00    +0.000 A 
ATOM      7  C   UNL     1       2.477   7.494  18.525  0.00  0.00    +0.000 A 
ATOM      8  F   UNL     1       2.879   8.015  17.356  0.00  0.00    +0.000 F 
ATOM      9  C   UNL     1       1.900   8.344  19.469  0.00  0.00    +0.000 A 
BRANCH   3  11
ATOM     10  O   UNL     1      -0.399   8.668  21.790  0.00  0.00    +0.000 OA
ATOM     11  N   UNL     1       0.837   8.679  21.689  0.00  0.00    +0.000 N 
ATOM     12  O   UNL     1       1.596   9.368  22.375  0.00  0.00    +0.000 OA
ENDBRANCH   3  11
ENDBRANCH   1   6
BRANCH   1  13
ATOM     13  S   UNL     1       4.600   4.415  18.159  0.00  0.00    +0.000 S 
ATOM     14  O   UNL     1       5.293   5.132  19.205  0.00  0.00    +0.000 OA
ATOM     15  O   UNL     1       4.263   3.016  18.307  0.00  0.00    +0.000 OA
BRANCH  13  16
ATOM     16  C   UNL     1       5.582   4.566  16.683  0.00  0.00    +0.000 A 
ATOM     17  C   UNL     1       5.033   4.103  15.477  0.00  0.00    +0.000 A 
ATOM     18  C   UNL     1       5.734   4.256  14.278  0.00  0.00    +0.000 A 
ATOM     19 CL   UNL     1       4.987   3.683  12.831  0.00  0.00    +0.000 Cl
ATOM     20  C   UNL     1       6.987   4.875  14.281  0.00  0.00    +0.000 A 
ATOM     21 CL   UNL     1       7.895   5.135  12.834  0.00  0.00    +0.000 Cl
ATOM     22  C   UNL     1       7.543   5.317  15.485  0.00  0.00    +0.000 A 
ATOM     23  C   UNL     1       6.853   5.148  16.694  0.00  0.00    +0.000 A 
ATOM     24 CL   UNL     1       7.630   5.742  18.116  0.00  0.00    +0.000 Cl
ENDBRANCH  13  16
ENDBRANCH   1  13
TORSDOF 4
ENDMDL
