MODEL 1
REMARK VINA RESULT:      -7.2      0.000      0.000
REMARK  Name = 
REMARK  5 active torsions:
REMARK  status: ('A' for Active; 'I' for Inactive)
REMARK    1  A    between atoms: C_1  and  C_2
REMARK    2  A    between atoms: C_2  and  C_3
REMARK    3  A    between atoms: C_2  and  C_4
REMARK    4  A    between atoms: C_2  and  N_5
REMARK    5  A    between atoms: C_12  and  C_14
REMARK                            x       y       z     vdW  Elec       q    Type
REMARK                         _______ _______ _______ _____ _____    ______ ____
ROOT
ATOM      1  N   UNL     1       0.767  11.297  19.309  0.00  0.00    +0.000 N 
ATOM      2  C   UNL     1       0.818  10.211  20.131  0.00  0.00    +0.000 C 
ATOM      3  O   UNL     1       0.429  10.203  21.295  0.00  0.00    +0.000 OA
ATOM      4  N   UNL     1       1.348   9.069  19.590  0.00  0.00    +0.000 N 
ATOM      5  C   UNL     1       1.874   8.836  18.342  0.00  0.00    +0.000 C 
ATOM      6  O   UNL     1       1.922   9.672  17.441  0.00  0.00    +0.000 OA
ATOM      7  N   UNL     1       2.365   7.567  18.126  0.00  0.00    +0.000 N 
ATOM      8  C   UNL     1       2.378   6.514  19.026  0.00  0.00    +0.000 C 
ATOM      9  O   UNL     1       1.942   6.622  20.170  0.00  0.00    +0.000 OA
ATOM     10  H   UNL     1       1.124  11.159  18.365  0.00  0.00    +0.000 HD
ATOM     11  H   UNL     1       1.368   8.294  20.247  0.00  0.00    +0.000 HD
ATOM     12  H   UNL     1       2.760   7.444  17.203  0.00  0.00    +0.000 HD
ENDROOT
BRANCH   8  13
ATOM     13  C   UNL     1       2.957   5.231  18.580  0.00  0.00    +0.000 A 
ATOM     14  C   UNL     1       4.222   4.804  18.979  0.00  0.00    +0.000 A 
ATOM     15  F   UNL     1       4.997   5.587  19.745  0.00  0.00    +0.000 F 
ATOM     16  C   UNL     1       4.714   3.554  18.601  0.00  0.00    +0.000 A 
ATOM     17  C   UNL     1       3.936   2.712  17.805  0.00  0.00    +0.000 A 
ATOM     18  C   UNL     1       2.677   3.132  17.384  0.00  0.00    +0.000 A 
ATOM     19  C   UNL     1       2.195   4.383  17.773  0.00  0.00    +0.000 A 
ATOM     20  F   UNL     1       0.988   4.751  17.321  0.00  0.00    +0.000 F 
ENDBRANCH   8  13
BRANCH   1  22
ATOM     21  C   UNL     1       0.448  13.627  18.548  0.00  0.00    +0.000 C 
ATOM     22  C   UNL     1       0.228  12.608  19.679  0.00  0.00    +0.000 C 
ATOM     23  C   UNL     1       0.871  13.113  20.981  0.00  0.00    +0.000 C 
ATOM     24  C   UNL     1      -1.288  12.466  19.908  0.00  0.00    +0.000 C 
ENDBRANCH   1  22
TORSDOF 2
ENDMDL
MODEL 2
REMARK VINA RESULT:      -7.1      0.112      1.807
REMARK  Name = 
REMARK  5 active torsions:
REMARK  status: ('A' for Active; 'I' for Inactive)
REMARK    1  A    between atoms: C_1  and  C_2
REMARK    2  A    between atoms: C_2  and  C_3
REMARK    3  A    between atoms: C_2  and  C_4
REMARK    4  A    between atoms: C_2  and  N_5
REMARK    5  A    between atoms: C_12  and  C_14
REMARK                            x       y       z     vdW  Elec       q    Type
REMARK                         _______ _______ _______ _____ _____    ______ ____
ROOT
ATOM      1  N   UNL     1       0.752  11.310  19.346  0.00  0.00    +0.000 N 
ATOM      2  C   UNL     1       0.800  10.219  20.161  0.00  0.00    +0.000 C 
ATOM      3  O   UNL     1       0.415  10.206  21.326  0.00  0.00    +0.000 OA
ATOM      4  N   UNL     1       1.323   9.077  19.612  0.00  0.00    +0.000 N 
ATOM      5  C   UNL     1       1.843   8.849  18.361  0.00  0.00    +0.000 C 
ATOM      6  O   UNL     1       1.893   9.691  17.464  0.00  0.00    +0.000 OA
ATOM      7  N   UNL     1       2.327   7.579  18.135  0.00  0.00    +0.000 N 
ATOM      8  C   UNL     1       2.337   6.521  19.029  0.00  0.00    +0.000 C 
ATOM      9  O   UNL     1       1.906   6.623  20.174  0.00  0.00    +0.000 OA
ATOM     10  H   UNL     1       1.105  11.175  18.400  0.00  0.00    +0.000 HD
ATOM     11  H   UNL     1       1.341   8.298  20.264  0.00  0.00    +0.000 HD
ATOM     12  H   UNL     1       2.719   7.460  17.210  0.00  0.00    +0.000 HD
ENDROOT
BRANCH   8  13
ATOM     13  C   UNL     1       2.909   5.237  18.573  0.00  0.00    +0.000 A 
ATOM     14  C   UNL     1       2.224   4.377  17.718  0.00  0.00    +0.000 A 
ATOM     15  F   UNL     1       0.974   4.659  17.321  0.00  0.00    +0.000 F 
ATOM     16  C   UNL     1       2.818   3.205  17.246  0.00  0.00    +0.000 A 
ATOM     17  C   UNL     1       4.117   2.878  17.637  0.00  0.00    +0.000 A 
ATOM     18  C   UNL     1       4.807   3.720  18.505  0.00  0.00    +0.000 A 
ATOM     19  C   UNL     1       4.204   4.890  18.967  0.00  0.00    +0.000 A 
ATOM     20  F   UNL     1       4.900   5.653  19.820  0.00  0.00    +0.000 F 
ENDBRANCH   8  13
BRANCH   1  22
ATOM     21  C   UNL     1       0.374  13.627  18.571  0.00  0.00    +0.000 C 
ATOM     22  C   UNL     1       0.221  12.622  19.725  0.00  0.00    +0.000 C 
ATOM     23  C   UNL     1       0.925  13.149  20.986  0.00  0.00    +0.000 C 
ATOM     24  C   UNL     1      -1.280  12.470  20.033  0.00  0.00    +0.000 C 
ENDBRANCH   1  22
TORSDOF 2
ENDMDL
MODEL 3
REMARK VINA RESULT:      -7.1      1.674      2.626
REMARK  Name = 
REMARK  5 active torsions:
REMARK  status: ('A' for Active; 'I' for Inactive)
REMARK    1  A    between atoms: C_1  and  C_2
REMARK    2  A    between atoms: C_2  and  C_3
REMARK    3  A    between atoms: C_2  and  C_4
REMARK    4  A    between atoms: C_2  and  N_5
REMARK    5  A    between atoms: C_12  and  C_14
REMARK                            x       y       z     vdW  Elec       q    Type
REMARK                         _______ _______ _______ _____ _____    ______ ____
ROOT
ATOM      1  N   UNL     1       0.343  10.909  20.858  0.00  0.00    +0.000 N 
ATOM      2  C   UNL     1       0.755  10.263  19.730  0.00  0.00    +0.000 C 
ATOM      3  O   UNL     1       0.700  10.738  18.600  0.00  0.00    +0.000 OA
ATOM      4  N   UNL     1       1.255   9.000  19.907  0.00  0.00    +0.000 N 
ATOM      5  C   UNL     1       1.389   8.247  21.048  0.00  0.00    +0.000 C 
ATOM      6  O   UNL     1       1.087   8.634  22.176  0.00  0.00    +0.000 OA
ATOM      7  N   UNL     1       1.904   6.981  20.875  0.00  0.00    +0.000 N 
ATOM      8  C   UNL     1       2.299   6.399  19.681  0.00  0.00    +0.000 C 
ATOM      9  O   UNL     1       2.210   6.983  18.604  0.00  0.00    +0.000 OA
ATOM     10  H   UNL     1       0.450  10.394  21.730  0.00  0.00    +0.000 HD
ATOM     11  H   UNL     1       1.541   8.564  19.034  0.00  0.00    +0.000 HD
ATOM     12  H   UNL     1       1.967   6.454  21.735  0.00  0.00    +0.000 HD
ENDROOT
BRANCH   8  13
ATOM     13  C   UNL     1       2.826   5.020  19.725  0.00  0.00    +0.000 A 
ATOM     14  C   UNL     1       2.023   3.923  20.031  0.00  0.00    +0.000 A 
ATOM     15  F   UNL     1       0.734   4.092  20.363  0.00  0.00    +0.000 F 
ATOM     16  C   UNL     1       2.532   2.624  19.994  0.00  0.00    +0.000 A 
ATOM     17  C   UNL     1       3.867   2.410  19.653  0.00  0.00    +0.000 A 
ATOM     18  C   UNL     1       4.687   3.497  19.362  0.00  0.00    +0.000 A 
ATOM     19  C   UNL     1       4.165   4.791  19.398  0.00  0.00    +0.000 A 
ATOM     20  F   UNL     1       5.001   5.805  19.135  0.00  0.00    +0.000 F 
ENDBRANCH   8  13
BRANCH   1  22
ATOM     21  C   UNL     1      -1.439  12.381  19.984  0.00  0.00    +0.000 C 
ATOM     22  C   UNL     1      -0.208  12.266  20.898  0.00  0.00    +0.000 C 
ATOM     23  C   UNL     1       0.856  13.297  20.488  0.00  0.00    +0.000 C 
ATOM     24  C   UNL     1      -0.652  12.570  22.340  0.00  0.00    +0.000 C 
ENDBRANCH   1  22
TORSDOF 2
ENDMDL
MODEL 4
REMARK VINA RESULT:      -7.0      1.769      2.653
REMARK  Name = 
REMARK  5 active torsions:
REMARK  status: ('A' for Active; 'I' for Inactive)
REMARK    1  A    between atoms: C_1  and  C_2
REMARK    2  A    between atoms: C_2  and  C_3
REMARK    3  A    between atoms: C_2  and  C_4
REMARK    4  A    between atoms: C_2  and  N_5
REMARK    5  A    between atoms: C_12  and  C_14
REMARK                            x       y       z     vdW  Elec       q    Type
REMARK                         _______ _______ _______ _____ _____    ______ ____
ROOT
ATOM      1  N   UNL     1       0.061  10.778  20.987  0.00  0.00    +0.000 N 
ATOM      2  C   UNL     1       0.509  10.640  19.706  0.00  0.00    +0.000 C 
ATOM      3  O   UNL     1       0.336  11.469  18.818  0.00  0.00    +0.000 OA
ATOM      4  N   UNL     1       1.191   9.486  19.426  0.00  0.00    +0.000 N 
ATOM      5  C   UNL     1       1.482   8.408  20.227  0.00  0.00    +0.000 C 
ATOM      6  O   UNL     1       1.180   8.323  21.417  0.00  0.00    +0.000 OA
ATOM      7  N   UNL     1       2.164   7.376  19.620  0.00  0.00    +0.000 N 
ATOM      8  C   UNL     1       2.583   7.318  18.300  0.00  0.00    +0.000 C 
ATOM      9  O   UNL     1       2.363   8.223  17.500  0.00  0.00    +0.000 OA
ATOM     10  H   UNL     1       0.279  10.011  21.620  0.00  0.00    +0.000 HD
ATOM     11  H   UNL     1       1.496   9.432  18.458  0.00  0.00    +0.000 HD
ATOM     12  H   UNL     1       2.340   6.595  20.238  0.00  0.00    +0.000 HD
ENDROOT
BRANCH   8  13
ATOM     13  C   UNL     1       3.302   6.106  17.856  0.00  0.00    +0.000 A 
ATOM     14  C   UNL     1       2.696   4.852  17.813  0.00  0.00    +0.000 A 
ATOM     15  F   UNL     1       1.436   4.688  18.240  0.00  0.00    +0.000 F 
ATOM     16  C   UNL     1       3.379   3.739  17.320  0.00  0.00    +0.000 A 
ATOM     17  C   UNL     1       4.691   3.872  16.867  0.00  0.00    +0.000 A 
ATOM     18  C   UNL     1       5.316   5.116  16.921  0.00  0.00    +0.000 A 
ATOM     19  C   UNL     1       4.622   6.222  17.412  0.00  0.00    +0.000 A 
ATOM     20  F   UNL     1       5.275   7.390  17.466  0.00  0.00    +0.000 F 
ENDBRANCH   8  13
BRANCH   1  22
ATOM     21  C   UNL     1      -1.932  12.202  20.656  0.00  0.00    +0.000 C 
ATOM     22  C   UNL     1      -0.676  11.936  21.501  0.00  0.00    +0.000 C 
ATOM     23  C   UNL     1       0.222  13.184  21.526  0.00  0.00    +0.000 C 
ATOM     24  C   UNL     1      -1.123  11.629  22.942  0.00  0.00    +0.000 C 
ENDBRANCH   1  22
TORSDOF 2
ENDMDL
MODEL 5
REMARK VINA RESULT:      -7.0      1.736      2.205
REMARK  Name = 
REMARK  5 active torsions:
REMARK  status: ('A' for Active; 'I' for Inactive)
REMARK    1  A    between atoms: C_1  and  C_2
REMARK    2  A    between atoms: C_2  and  C_3
REMARK    3  A    between atoms: C_2  and  C_4
REMARK    4  A    between atoms: C_2  and  N_5
REMARK    5  A    between atoms: C_12  and  C_14
REMARK                            x       y       z     vdW  Elec       q    Type
REMARK                         _______ _______ _______ _____ _____    ______ ____
ROOT
ATOM      1  N   UNL     1       0.182  10.915  20.958  0.00  0.00    +0.000 N 
ATOM      2  C   UNL     1       0.641  10.331  19.814  0.00  0.00    +0.000 C 
ATOM      3  O   UNL     1       0.590  10.848  18.703  0.00  0.00    +0.000 OA
ATOM      4  N   UNL     1       1.186   9.081  19.951  0.00  0.00    +0.000 N 
ATOM      5  C   UNL     1       1.326   8.289  21.065  0.00  0.00    +0.000 C 
ATOM      6  O   UNL     1       0.988   8.619  22.201  0.00  0.00    +0.000 OA
ATOM      7  N   UNL     1       1.893   7.051  20.852  0.00  0.00    +0.000 N 
ATOM      8  C   UNL     1       2.334   6.533  19.645  0.00  0.00    +0.000 C 
ATOM      9  O   UNL     1       2.243   7.156  18.590  0.00  0.00    +0.000 OA
ATOM     10  H   UNL     1       0.291  10.369  21.811  0.00  0.00    +0.000 HD
ATOM     11  H   UNL     1       1.505   8.691  19.068  0.00  0.00    +0.000 HD
ATOM     12  H   UNL     1       1.959   6.492  21.693  0.00  0.00    +0.000 HD
ENDROOT
BRANCH   8  13
ATOM     13  C   UNL     1       2.913   5.174  19.646  0.00  0.00    +0.000 A 
ATOM     14  C   UNL     1       4.239   4.927  19.300  0.00  0.00    +0.000 A 
ATOM     15  F   UNL     1       5.034   5.925  18.886  0.00  0.00    +0.000 F 
ATOM     16  C   UNL     1       4.779   3.642  19.381  0.00  0.00    +0.000 A 
ATOM     17  C   UNL     1       3.983   2.580  19.808  0.00  0.00    +0.000 A 
ATOM     18  C   UNL     1       2.650   2.808  20.141  0.00  0.00    +0.000 A 
ATOM     19  C   UNL     1       2.124   4.097  20.060  0.00  0.00    +0.000 A 
ATOM     20  F   UNL     1       0.829   4.260  20.367  0.00  0.00    +0.000 F 
ENDBRANCH   8  13
BRANCH   1  22
ATOM     21  C   UNL     1      -1.671  12.334  20.147  0.00  0.00    +0.000 C 
ATOM     22  C   UNL     1      -0.422  12.247  21.039  0.00  0.00    +0.000 C 
ATOM     23  C   UNL     1       0.593  13.330  20.639  0.00  0.00    +0.000 C 
ATOM     24  C   UNL     1      -0.854  12.499  22.495  0.00  0.00    +0.000 C 
ENDBRANCH   1  22
TORSDOF 2
ENDMDL
MODEL 6
REMARK VINA RESULT:      -7.0      1.776      2.195
REMARK  Name = 
REMARK  5 active torsions:
REMARK  status: ('A' for Active; 'I' for Inactive)
REMARK    1  A    between atoms: C_1  and  C_2
REMARK    2  A    between atoms: C_2  and  C_3
REMARK    3  A    between atoms: C_2  and  C_4
REMARK    4  A    between atoms: C_2  and  N_5
REMARK    5  A    between atoms: C_12  and  C_14
REMARK                            x       y       z     vdW  Elec       q    Type
REMARK                         _______ _______ _______ _____ _____    ______ ____
ROOT
ATOM      1  N   UNL     1       0.059  10.771  20.944  0.00  0.00    +0.000 N 
ATOM      2  C   UNL     1       0.529  10.671  19.668  0.00  0.00    +0.000 C 
ATOM      3  O   UNL     1       0.359  11.521  18.799  0.00  0.00    +0.000 OA
ATOM      4  N   UNL     1       1.230   9.533  19.370  0.00  0.00    +0.000 N 
ATOM      5  C   UNL     1       1.522   8.438  20.148  0.00  0.00    +0.000 C 
ATOM      6  O   UNL     1       1.202   8.319  21.330  0.00  0.00    +0.000 OA
ATOM      7  N   UNL     1       2.226   7.430  19.525  0.00  0.00    +0.000 N 
ATOM      8  C   UNL     1       2.667   7.412  18.211  0.00  0.00    +0.000 C 
ATOM      9  O   UNL     1       2.448   8.335  17.431  0.00  0.00    +0.000 OA
ATOM     10  H   UNL     1       0.277   9.990  21.561  0.00  0.00    +0.000 HD
ATOM     11  H   UNL     1       1.550   9.508  18.406  0.00  0.00    +0.000 HD
ATOM     12  H   UNL     1       2.402   6.636  20.125  0.00  0.00    +0.000 HD
ENDROOT
BRANCH   8  13
ATOM     13  C   UNL     1       3.408   6.221  17.748  0.00  0.00    +0.000 A 
ATOM     14  C   UNL     1       4.757   6.270  17.401  0.00  0.00    +0.000 A 
ATOM     15  F   UNL     1       5.424   7.433  17.415  0.00  0.00    +0.000 F 
ATOM     16  C   UNL     1       5.450   5.114  17.037  0.00  0.00    +0.000 A 
ATOM     17  C   UNL     1       4.788   3.886  17.011  0.00  0.00    +0.000 A 
ATOM     18  C   UNL     1       3.436   3.825  17.339  0.00  0.00    +0.000 A 
ATOM     19  C   UNL     1       2.756   4.986  17.705  0.00  0.00    +0.000 A 
ATOM     20  F   UNL     1       1.450   4.878  17.987  0.00  0.00    +0.000 F 
ENDBRANCH   8  13
BRANCH   1  22
ATOM     21  C   UNL     1      -1.945  12.179  20.617  0.00  0.00    +0.000 C 
ATOM     22  C   UNL     1      -0.700  11.905  21.476  0.00  0.00    +0.000 C 
ATOM     23  C   UNL     1       0.181  13.163  21.550  0.00  0.00    +0.000 C 
ATOM     24  C   UNL     1      -1.168  11.555  22.900  0.00  0.00    +0.000 C 
ENDBRANCH   1  22
TORSDOF 2
ENDMDL
MODEL 7
REMARK VINA RESULT:      -6.9      1.309      2.673
REMARK  Name = 
REMARK  5 active torsions:
REMARK  status: ('A' for Active; 'I' for Inactive)
REMARK    1  A    between atoms: C_1  and  C_2
REMARK    2  A    between atoms: C_2  and  C_3
REMARK    3  A    between atoms: C_2  and  C_4
REMARK    4  A    between atoms: C_2  and  N_5
REMARK    5  A    between atoms: C_12  and  C_14
REMARK                            x       y       z     vdW  Elec       q    Type
REMARK                         _______ _______ _______ _____ _____    ______ ____
ROOT
ATOM      1  N   UNL     1       0.419  10.846  20.821  0.00  0.00    +0.000 N 
ATOM      2  C   UNL     1       0.863  10.447  19.595  0.00  0.00    +0.000 C 
ATOM      3  O   UNL     1       0.840  11.147  18.587  0.00  0.00    +0.000 OA
ATOM      4  N   UNL     1       1.357   9.172  19.518  0.00  0.00    +0.000 N 
ATOM      5  C   UNL     1       1.458   8.197  20.481  0.00  0.00    +0.000 C 
ATOM      6  O   UNL     1       1.125   8.342  21.656  0.00  0.00    +0.000 OA
ATOM      7  N   UNL     1       1.977   6.991  20.062  0.00  0.00    +0.000 N 
ATOM      8  C   UNL     1       2.406   6.668  18.784  0.00  0.00    +0.000 C 
ATOM      9  O   UNL     1       2.348   7.464  17.850  0.00  0.00    +0.000 OA
ATOM     10  H   UNL     1       0.501  10.160  21.569  0.00  0.00    +0.000 HD
ATOM     11  H   UNL     1       1.667   8.925  18.582  0.00  0.00    +0.000 HD
ATOM     12  H   UNL     1       2.015   6.296  20.795  0.00  0.00    +0.000 HD
ENDROOT
BRANCH   8  13
ATOM     13  C   UNL     1       2.931   5.307  18.555  0.00  0.00    +0.000 A 
ATOM     14  C   UNL     1       2.235   4.353  17.816  0.00  0.00    +0.000 A 
ATOM     15  F   UNL     1       1.013   4.622  17.332  0.00  0.00    +0.000 F 
ATOM     16  C   UNL     1       2.788   3.098  17.555  0.00  0.00    +0.000 A 
ATOM     17  C   UNL     1       4.057   2.783  18.042  0.00  0.00    +0.000 A 
ATOM     18  C   UNL     1       4.757   3.720  18.797  0.00  0.00    +0.000 A 
ATOM     19  C   UNL     1       4.195   4.972  19.048  0.00  0.00    +0.000 A 
ATOM     20  F   UNL     1       4.898   5.828  19.800  0.00  0.00    +0.000 F 
ENDBRANCH   8  13
BRANCH   1  22
ATOM     21  C   UNL     1      -0.716  12.200  22.549  0.00  0.00    +0.000 C 
ATOM     22  C   UNL     1      -0.132  12.168  21.127  0.00  0.00    +0.000 C 
ATOM     23  C   UNL     1      -1.210  12.559  20.102  0.00  0.00    +0.000 C 
ATOM     24  C   UNL     1       1.006  13.202  21.053  0.00  0.00    +0.000 C 
ENDBRANCH   1  22
TORSDOF 2
ENDMDL
MODEL 8
REMARK VINA RESULT:      -6.9      0.813      1.195
REMARK  Name = 
REMARK  5 active torsions:
REMARK  status: ('A' for Active; 'I' for Inactive)
REMARK    1  A    between atoms: C_1  and  C_2
REMARK    2  A    between atoms: C_2  and  C_3
REMARK    3  A    between atoms: C_2  and  C_4
REMARK    4  A    between atoms: C_2  and  N_5
REMARK    5  A    between atoms: C_12  and  C_14
REMARK                            x       y       z     vdW  Elec       q    Type
REMARK                         _______ _______ _______ _____ _____    ______ ____
ROOT
ATOM      1  N   UNL     1       0.570  11.330  19.493  0.00  0.00    +0.000 N 
ATOM      2  C   UNL     1       0.742  10.169  20.187  0.00  0.00    +0.000 C 
ATOM      3  O   UNL     1       0.399  10.001  21.353  0.00  0.00    +0.000 OA
ATOM      4  N   UNL     1       1.346   9.144  19.508  0.00  0.00    +0.000 N 
ATOM      5  C   UNL     1       1.843   9.096  18.227  0.00  0.00    +0.000 C 
ATOM      6  O   UNL     1       1.788  10.026  17.424  0.00  0.00    +0.000 OA
ATOM      7  N   UNL     1       2.430   7.905  17.857  0.00  0.00    +0.000 N 
ATOM      8  C   UNL     1       2.565   6.766  18.633  0.00  0.00    +0.000 C 
ATOM      9  O   UNL     1       2.165   6.709  19.793  0.00  0.00    +0.000 OA
ATOM     10  H   UNL     1       0.902  11.327  18.530  0.00  0.00    +0.000 HD
ATOM     11  H   UNL     1       1.455   8.307  20.073  0.00  0.00    +0.000 HD
ATOM     12  H   UNL     1       2.800   7.919  16.916  0.00  0.00    +0.000 HD
ENDROOT
BRANCH   8  13
ATOM     13  C   UNL     1       3.233   5.594  18.031  0.00  0.00    +0.000 A 
ATOM     14  C   UNL     1       4.603   5.563  17.780  0.00  0.00    +0.000 A 
ATOM     15  F   UNL     1       5.366   6.639  18.023  0.00  0.00    +0.000 F 
ATOM     16  C   UNL     1       5.219   4.415  17.278  0.00  0.00    +0.000 A 
ATOM     17  C   UNL     1       4.457   3.277  17.013  0.00  0.00    +0.000 A 
ATOM     18  C   UNL     1       3.083   3.299  17.242  0.00  0.00    +0.000 A 
ATOM     19  C   UNL     1       2.481   4.451  17.748  0.00  0.00    +0.000 A 
ATOM     20  F   UNL     1       1.153   4.430  17.927  0.00  0.00    +0.000 F 
ENDBRANCH   8  13
BRANCH   1  22
ATOM     21  C   UNL     1       0.788  13.154  21.147  0.00  0.00    +0.000 C 
ATOM     22  C   UNL     1      -0.063  12.541  20.022  0.00  0.00    +0.000 C 
ATOM     23  C   UNL     1      -1.480  12.235  20.534  0.00  0.00    +0.000 C 
ATOM     24  C   UNL     1      -0.169  13.573  18.884  0.00  0.00    +0.000 C 
ENDBRANCH   1  22
TORSDOF 2
ENDMDL
MODEL 9
REMARK VINA RESULT:      -6.8      0.942      2.044
REMARK  Name = 
REMARK  5 active torsions:
REMARK  status: ('A' for Active; 'I' for Inactive)
REMARK    1  A    between atoms: C_1  and  C_2
REMARK    2  A    between atoms: C_2  and  C_3
REMARK    3  A    between atoms: C_2  and  C_4
REMARK    4  A    between atoms: C_2  and  N_5
REMARK    5  A    between atoms: C_12  and  C_14
REMARK                            x       y       z     vdW  Elec       q    Type
REMARK                         _______ _______ _______ _____ _____    ______ ____
ROOT
ATOM      1  N   UNL     1       0.539  11.426  19.452  0.00  0.00    +0.000 N 
ATOM      2  C   UNL     1       0.740  10.281  20.164  0.00  0.00    +0.000 C 
ATOM      3  O   UNL     1       0.428  10.133  21.342  0.00  0.00    +0.000 OA
ATOM      4  N   UNL     1       1.335   9.247  19.490  0.00  0.00    +0.000 N 
ATOM      5  C   UNL     1       1.798   9.177  18.198  0.00  0.00    +0.000 C 
ATOM      6  O   UNL     1       1.714  10.091  17.378  0.00  0.00    +0.000 OA
ATOM      7  N   UNL     1       2.386   7.985  17.836  0.00  0.00    +0.000 N 
ATOM      8  C   UNL     1       2.551   6.862  18.631  0.00  0.00    +0.000 C 
ATOM      9  O   UNL     1       2.181   6.826  19.802  0.00  0.00    +0.000 OA
ATOM     10  H   UNL     1       0.846  11.407  18.481  0.00  0.00    +0.000 HD
ATOM     11  H   UNL     1       1.465   8.422  20.069  0.00  0.00    +0.000 HD
ATOM     12  H   UNL     1       2.731   7.983  16.886  0.00  0.00    +0.000 HD
ENDROOT
BRANCH   8  13
ATOM     13  C   UNL     1       3.213   5.684  18.035  0.00  0.00    +0.000 A 
ATOM     14  C   UNL     1       2.537   4.491  17.791  0.00  0.00    +0.000 A 
ATOM     15  F   UNL     1       1.254   4.346  18.155  0.00  0.00    +0.000 F 
ATOM     16  C   UNL     1       3.170   3.419  17.160  0.00  0.00    +0.000 A 
ATOM     17  C   UNL     1       4.504   3.533  16.767  0.00  0.00    +0.000 A 
ATOM     18  C   UNL     1       5.198   4.713  17.020  0.00  0.00    +0.000 A 
ATOM     19  C   UNL     1       4.553   5.779  17.648  0.00  0.00    +0.000 A 
ATOM     20  F   UNL     1       5.271   6.884  17.891  0.00  0.00    +0.000 F 
ENDBRANCH   8  13
BRANCH   1  22
ATOM     21  C   UNL     1       0.767  13.265  21.088  0.00  0.00    +0.000 C 
ATOM     22  C   UNL     1      -0.090  12.642  19.974  0.00  0.00    +0.000 C 
ATOM     23  C   UNL     1      -1.505  12.341  20.496  0.00  0.00    +0.000 C 
ATOM     24  C   UNL     1      -0.203  13.663  18.827  0.00  0.00    +0.000 C 
ENDBRANCH   1  22
TORSDOF 2
ENDMDL
