MODEL 1
REMARK VINA RESULT:      -8.0      0.000      0.000
REMARK  Name = 
REMARK  5 active torsions:
REMARK  status: ('A' for Active; 'I' for Inactive)
REMARK    1  A    between atoms: C_1  and  O_2
REMARK    2  A    between atoms: O_2  and  C_3
REMARK    3  A    between atoms: N_5  and  C_6
REMARK    4  A    between atoms: C_11  and  C_12
REMARK    5  A    between atoms: C_15  and  C_16
REMARK                            x       y       z     vdW  Elec       q    Type
REMARK                         _______ _______ _______ _____ _____    ______ ____
ROOT
ATOM      1  C   UNL     1       6.187   3.920  14.127  0.00  0.00    +0.000 A 
ATOM      2  C   UNL     1       7.124   4.949  14.214  0.00  0.00    +0.000 A 
ATOM      3  C   UNL     1       7.134   5.816  15.305  0.00  0.00    +0.000 A 
ATOM      4  C   UNL     1       6.190   5.680  16.322  0.00  0.00    +0.000 A 
ATOM      5 CL   UNL     1       6.397   6.721  17.689  0.00  0.00    +0.000 Cl
ATOM      6  C   UNL     1       5.181   4.703  16.226  0.00  0.00    +0.000 A 
ATOM      7  C   UNL     1       5.199   3.823  15.117  0.00  0.00    +0.000 A 
ENDROOT
BRANCH   6   8
ATOM      8  C   UNL     1       4.135   4.528  17.231  0.00  0.00    +0.000 A 
ATOM      9  N   UNL     1       3.678   5.393  18.119  0.00  0.00    +0.000 NA
ATOM     10  C   UNL     1       2.716   4.683  18.807  0.00  0.00    +0.000 A 
ATOM     11  C   UNL     1       1.856   5.057  19.855  0.00  0.00    +0.000 A 
ATOM     12  C   UNL     1       1.840   6.430  20.457  0.00  0.00    +0.000 C 
ATOM     13  C   UNL     1       0.973   4.065  20.342  0.00  0.00    +0.000 A 
ATOM     14  C   UNL     1       0.950   2.767  19.812  0.00  0.00    +0.000 A 
ATOM     15  C   UNL     1       1.805   2.394  18.774  0.00  0.00    +0.000 A 
ATOM     16  C   UNL     1       2.660   3.389  18.318  0.00  0.00    +0.000 A 
ATOM     17  O   UNL     1       3.585   3.277  17.329  0.00  0.00    +0.000 OA
ENDBRANCH   6   8
BRANCH   1  20
ATOM     18  C   UNL     1       5.355   2.922  12.020  0.00  0.00    +0.000 C 
ATOM     19  O   UNL     1       4.423   3.678  11.783  0.00  0.00    +0.000 OA
ATOM     20  N   UNL     1       6.212   2.965  13.091  0.00  0.00    +0.000 N 
ATOM     21  H   UNL     1       6.996   2.332  13.025  0.00  0.00    +0.000 HD
BRANCH  18  23
ATOM     22  C   UNL     1       7.140   1.745  11.105  0.00  0.00    +0.000 C 
ATOM     23  O   UNL     1       5.719   1.910  11.187  0.00  0.00    +0.000 OA
ENDBRANCH  18  23
ENDBRANCH   1  20
TORSDOF 3
ENDMDL
MODEL 2
REMARK VINA RESULT:      -8.0      3.338      5.336
REMARK  Name = 
REMARK  5 active torsions:
REMARK  status: ('A' for Active; 'I' for Inactive)
REMARK    1  A    between atoms: C_1  and  O_2
REMARK    2  A    between atoms: O_2  and  C_3
REMARK    3  A    between atoms: N_5  and  C_6
REMARK    4  A    between atoms: C_11  and  C_12
REMARK    5  A    between atoms: C_15  and  C_16
REMARK                            x       y       z     vdW  Elec       q    Type
REMARK                         _______ _______ _______ _____ _____    ______ ____
ROOT
ATOM      1  C   UNL     1       4.588   4.783  17.422  0.00  0.00    +0.000 A 
ATOM      2  C   UNL     1       4.205   3.547  17.944  0.00  0.00    +0.000 A 
ATOM      3  C   UNL     1       3.164   3.453  18.866  0.00  0.00    +0.000 A 
ATOM      4  C   UNL     1       2.498   4.600  19.297  0.00  0.00    +0.000 A 
ATOM      5 CL   UNL     1       1.132   4.338  20.327  0.00  0.00    +0.000 Cl
ATOM      6  C   UNL     1       2.911   5.870  18.851  0.00  0.00    +0.000 A 
ATOM      7  C   UNL     1       3.961   5.941  17.903  0.00  0.00    +0.000 A 
ENDROOT
BRANCH   6   8
ATOM      8  C   UNL     1       2.290   7.116  19.289  0.00  0.00    +0.000 A 
ATOM      9  N   UNL     1       1.842   7.449  20.488  0.00  0.00    +0.000 NA
ATOM     10  C   UNL     1       1.349   8.726  20.313  0.00  0.00    +0.000 A 
ATOM     11  C   UNL     1       0.764   9.629  21.219  0.00  0.00    +0.000 A 
ATOM     12  C   UNL     1       0.562   9.321  22.672  0.00  0.00    +0.000 C 
ATOM     13  C   UNL     1       0.359  10.881  20.701  0.00  0.00    +0.000 A 
ATOM     14  C   UNL     1       0.529  11.215  19.351  0.00  0.00    +0.000 A 
ATOM     15  C   UNL     1       1.106  10.319  18.450  0.00  0.00    +0.000 A 
ATOM     16  C   UNL     1       1.493   9.098  18.988  0.00  0.00    +0.000 A 
ATOM     17  O   UNL     1       2.068   8.062  18.324  0.00  0.00    +0.000 OA
ENDBRANCH   6   8
BRANCH   1  20
ATOM     18  C   UNL     1       6.916   4.721  16.583  0.00  0.00    +0.000 C 
ATOM     19  O   UNL     1       7.505   4.442  17.618  0.00  0.00    +0.000 OA
ATOM     20  N   UNL     1       5.566   4.904  16.415  0.00  0.00    +0.000 N 
ATOM     21  H   UNL     1       5.273   4.992  15.453  0.00  0.00    +0.000 HD
BRANCH  18  23
ATOM     22  C   UNL     1       6.714   4.467  14.280  0.00  0.00    +0.000 C 
ATOM     23  O   UNL     1       7.545   4.848  15.383  0.00  0.00    +0.000 OA
ENDBRANCH  18  23
ENDBRANCH   1  20
TORSDOF 3
ENDMDL
MODEL 3
REMARK VINA RESULT:      -7.9      3.312      5.512
REMARK  Name = 
REMARK  5 active torsions:
REMARK  status: ('A' for Active; 'I' for Inactive)
REMARK    1  A    between atoms: C_1  and  O_2
REMARK    2  A    between atoms: O_2  and  C_3
REMARK    3  A    between atoms: N_5  and  C_6
REMARK    4  A    between atoms: C_11  and  C_12
REMARK    5  A    between atoms: C_15  and  C_16
REMARK                            x       y       z     vdW  Elec       q    Type
REMARK                         _______ _______ _______ _____ _____    ______ ____
ROOT
ATOM      1  C   UNL     1       4.657   4.509  17.907  0.00  0.00    +0.000 A 
ATOM      2  C   UNL     1       4.183   3.274  18.350  0.00  0.00    +0.000 A 
ATOM      3  C   UNL     1       3.045   3.192  19.151  0.00  0.00    +0.000 A 
ATOM      4  C   UNL     1       2.372   4.349  19.540  0.00  0.00    +0.000 A 
ATOM      5 CL   UNL     1       0.894   4.108  20.409  0.00  0.00    +0.000 Cl
ATOM      6  C   UNL     1       2.870   5.615  19.178  0.00  0.00    +0.000 A 
ATOM      7  C   UNL     1       4.019   5.675  18.351  0.00  0.00    +0.000 A 
ENDROOT
BRANCH   6   8
ATOM      8  C   UNL     1       2.244   6.871  19.582  0.00  0.00    +0.000 A 
ATOM      9  N   UNL     1       2.125   8.000  18.906  0.00  0.00    +0.000 NA
ATOM     10  C   UNL     1       1.467   8.841  19.780  0.00  0.00    +0.000 A 
ATOM     11  C   UNL     1       1.027  10.170  19.640  0.00  0.00    +0.000 A 
ATOM     12  C   UNL     1       1.219  10.972  18.388  0.00  0.00    +0.000 C 
ATOM     13  C   UNL     1       0.375  10.748  20.754  0.00  0.00    +0.000 A 
ATOM     14  C   UNL     1       0.171  10.038  21.945  0.00  0.00    +0.000 A 
ATOM     15  C   UNL     1       0.609   8.720  22.087  0.00  0.00    +0.000 A 
ATOM     16  C   UNL     1       1.247   8.180  20.977  0.00  0.00    +0.000 A 
ATOM     17  O   UNL     1       1.766   6.930  20.865  0.00  0.00    +0.000 OA
ENDBRANCH   6   8
BRANCH   1  20
ATOM     18  C   UNL     1       7.071   4.577  17.359  0.00  0.00    +0.000 C 
ATOM     19  O   UNL     1       7.544   4.450  18.480  0.00  0.00    +0.000 OA
ATOM     20  N   UNL     1       5.743   4.622  17.016  0.00  0.00    +0.000 N 
ATOM     21  H   UNL     1       5.567   4.592  16.022  0.00  0.00    +0.000 HD
BRANCH  18  23
ATOM     22  C   UNL     1       7.051   4.778  15.043  0.00  0.00    +0.000 C 
ATOM     23  O   UNL     1       7.834   4.646  16.235  0.00  0.00    +0.000 OA
ENDBRANCH  18  23
ENDBRANCH   1  20
TORSDOF 3
ENDMDL
MODEL 4
REMARK VINA RESULT:      -7.8      3.192      4.635
REMARK  Name = 
REMARK  5 active torsions:
REMARK  status: ('A' for Active; 'I' for Inactive)
REMARK    1  A    between atoms: C_1  and  O_2
REMARK    2  A    between atoms: O_2  and  C_3
REMARK    3  A    between atoms: N_5  and  C_6
REMARK    4  A    between atoms: C_11  and  C_12
REMARK    5  A    between atoms: C_15  and  C_16
REMARK                            x       y       z     vdW  Elec       q    Type
REMARK                         _______ _______ _______ _____ _____    ______ ____
ROOT
ATOM      1  C   UNL     1       5.367   5.242  16.462  0.00  0.00    +0.000 A 
ATOM      2  C   UNL     1       4.938   3.923  16.612  0.00  0.00    +0.000 A 
ATOM      3  C   UNL     1       3.758   3.629  17.293  0.00  0.00    +0.000 A 
ATOM      4  C   UNL     1       2.996   4.651  17.856  0.00  0.00    +0.000 A 
ATOM      5 CL   UNL     1       1.482   4.173  18.547  0.00  0.00    +0.000 Cl
ATOM      6  C   UNL     1       3.442   5.986  17.793  0.00  0.00    +0.000 A 
ATOM      7  C   UNL     1       4.635   6.263  17.083  0.00  0.00    +0.000 A 
ENDROOT
BRANCH   6   8
ATOM      8  C   UNL     1       2.719   7.103  18.394  0.00  0.00    +0.000 A 
ATOM      9  N   UNL     1       2.286   7.247  19.635  0.00  0.00    +0.000 NA
ATOM     10  C   UNL     1       1.665   8.479  19.627  0.00  0.00    +0.000 A 
ATOM     11  C   UNL     1       1.029   9.206  20.650  0.00  0.00    +0.000 A 
ATOM     12  C   UNL     1       0.914   8.713  22.060  0.00  0.00    +0.000 C 
ATOM     13  C   UNL     1       0.484  10.462  20.296  0.00  0.00    +0.000 A 
ATOM     14  C   UNL     1       0.569  10.967  18.991  0.00  0.00    +0.000 A 
ATOM     15  C   UNL     1       1.196  10.245  17.974  0.00  0.00    +0.000 A 
ATOM     16  C   UNL     1       1.721   9.015  18.352  0.00  0.00    +0.000 A 
ATOM     17  O   UNL     1       2.369   8.127  17.554  0.00  0.00    +0.000 OA
ENDBRANCH   6   8
BRANCH   1  20
ATOM     18  C   UNL     1       6.937   4.920  14.574  0.00  0.00    +0.000 C 
ATOM     19  O   UNL     1       6.445   3.925  14.060  0.00  0.00    +0.000 OA
ATOM     20  N   UNL     1       6.498   5.582  15.694  0.00  0.00    +0.000 N 
ATOM     21  H   UNL     1       6.966   6.460  15.870  0.00  0.00    +0.000 HD
BRANCH  18  23
ATOM     22  C   UNL     1       8.058   5.508  12.624  0.00  0.00    +0.000 C 
ATOM     23  O   UNL     1       8.013   5.570  14.054  0.00  0.00    +0.000 OA
ENDBRANCH  18  23
ENDBRANCH   1  20
TORSDOF 3
ENDMDL
MODEL 5
REMARK VINA RESULT:      -7.8      0.836      1.698
REMARK  Name = 
REMARK  5 active torsions:
REMARK  status: ('A' for Active; 'I' for Inactive)
REMARK    1  A    between atoms: C_1  and  O_2
REMARK    2  A    between atoms: O_2  and  C_3
REMARK    3  A    between atoms: N_5  and  C_6
REMARK    4  A    between atoms: C_11  and  C_12
REMARK    5  A    between atoms: C_15  and  C_16
REMARK                            x       y       z     vdW  Elec       q    Type
REMARK                         _______ _______ _______ _____ _____    ______ ____
ROOT
ATOM      1  C   UNL     1       6.207   3.877  14.082  0.00  0.00    +0.000 A 
ATOM      2  C   UNL     1       7.165   4.889  14.123  0.00  0.00    +0.000 A 
ATOM      3  C   UNL     1       7.207   5.791  15.185  0.00  0.00    +0.000 A 
ATOM      4  C   UNL     1       6.275   5.706  16.219  0.00  0.00    +0.000 A 
ATOM      5 CL   UNL     1       6.521   6.786  17.548  0.00  0.00    +0.000 Cl
ATOM      6  C   UNL     1       5.245   4.747  16.168  0.00  0.00    +0.000 A 
ATOM      7  C   UNL     1       5.231   3.832  15.087  0.00  0.00    +0.000 A 
ENDROOT
BRANCH   6   8
ATOM      8  C   UNL     1       4.210   4.625  17.191  0.00  0.00    +0.000 A 
ATOM      9  N   UNL     1       3.313   3.669  17.361  0.00  0.00    +0.000 NA
ATOM     10  C   UNL     1       2.594   4.084  18.463  0.00  0.00    +0.000 A 
ATOM     11  C   UNL     1       1.523   3.488  19.153  0.00  0.00    +0.000 A 
ATOM     12  C   UNL     1       0.929   2.167  18.767  0.00  0.00    +0.000 C 
ATOM     13  C   UNL     1       1.005   4.195  20.263  0.00  0.00    +0.000 A 
ATOM     14  C   UNL     1       1.528   5.433  20.664  0.00  0.00    +0.000 A 
ATOM     15  C   UNL     1       2.588   6.028  19.978  0.00  0.00    +0.000 A 
ATOM     16  C   UNL     1       3.074   5.310  18.893  0.00  0.00    +0.000 A 
ATOM     17  O   UNL     1       4.089   5.673  18.065  0.00  0.00    +0.000 OA
ENDBRANCH   6   8
BRANCH   1  20
ATOM     18  C   UNL     1       5.350   2.849  11.998  0.00  0.00    +0.000 C 
ATOM     19  O   UNL     1       4.456   3.638  11.728  0.00  0.00    +0.000 OA
ATOM     20  N   UNL     1       6.198   2.889  13.077  0.00  0.00    +0.000 N 
ATOM     21  H   UNL     1       6.954   2.220  13.040  0.00  0.00    +0.000 HD
BRANCH  18  23
ATOM     22  C   UNL     1       7.093   1.639  11.045  0.00  0.00    +0.000 C 
ATOM     23  O   UNL     1       5.678   1.796  11.202  0.00  0.00    +0.000 OA
ENDBRANCH  18  23
ENDBRANCH   1  20
TORSDOF 3
ENDMDL
MODEL 6
REMARK VINA RESULT:      -7.7      1.278      1.288
REMARK  Name = 
REMARK  5 active torsions:
REMARK  status: ('A' for Active; 'I' for Inactive)
REMARK    1  A    between atoms: C_1  and  O_2
REMARK    2  A    between atoms: O_2  and  C_3
REMARK    3  A    between atoms: N_5  and  C_6
REMARK    4  A    between atoms: C_11  and  C_12
REMARK    5  A    between atoms: C_15  and  C_16
REMARK                            x       y       z     vdW  Elec       q    Type
REMARK                         _______ _______ _______ _____ _____    ______ ____
ROOT
ATOM      1  C   UNL     1       6.017   3.981  14.571  0.00  0.00    +0.000 A 
ATOM      2  C   UNL     1       7.116   4.838  14.611  0.00  0.00    +0.000 A 
ATOM      3  C   UNL     1       7.444   5.525  15.779  0.00  0.00    +0.000 A 
ATOM      4  C   UNL     1       6.662   5.380  16.925  0.00  0.00    +0.000 A 
ATOM      5 CL   UNL     1       7.254   6.168  18.348  0.00  0.00    +0.000 Cl
ATOM      6  C   UNL     1       5.500   4.585  16.894  0.00  0.00    +0.000 A 
ATOM      7  C   UNL     1       5.195   3.885  15.702  0.00  0.00    +0.000 A 
ENDROOT
BRANCH   6   8
ATOM      8  C   UNL     1       4.611   4.419  18.041  0.00  0.00    +0.000 A 
ATOM      9  N   UNL     1       3.794   5.297  18.597  0.00  0.00    +0.000 NA
ATOM     10  C   UNL     1       3.225   4.601  19.644  0.00  0.00    +0.000 A 
ATOM     11  C   UNL     1       2.258   4.976  20.594  0.00  0.00    +0.000 A 
ATOM     12  C   UNL     1       1.621   6.332  20.628  0.00  0.00    +0.000 C 
ATOM     13  C   UNL     1       1.891   4.001  21.551  0.00  0.00    +0.000 A 
ATOM     14  C   UNL     1       2.458   2.719  21.560  0.00  0.00    +0.000 A 
ATOM     15  C   UNL     1       3.419   2.346  20.619  0.00  0.00    +0.000 A 
ATOM     16  C   UNL     1       3.759   3.324  19.693  0.00  0.00    +0.000 A 
ATOM     17  O   UNL     1       4.666   3.213  18.688  0.00  0.00    +0.000 OA
ENDBRANCH   6   8
BRANCH   1  20
ATOM     18  C   UNL     1       6.325   3.290  12.213  0.00  0.00    +0.000 C 
ATOM     19  O   UNL     1       7.207   4.068  11.880  0.00  0.00    +0.000 OA
ATOM     20  N   UNL     1       5.716   3.195  13.440  0.00  0.00    +0.000 N 
ATOM     21  H   UNL     1       5.110   2.394  13.545  0.00  0.00    +0.000 HD
BRANCH  18  23
ATOM     22  C   UNL     1       6.808   1.339  11.043  0.00  0.00    +0.000 C 
ATOM     23  O   UNL     1       5.831   2.329  11.386  0.00  0.00    +0.000 OA
ENDBRANCH  18  23
ENDBRANCH   1  20
TORSDOF 3
ENDMDL
MODEL 7
REMARK VINA RESULT:      -7.6      3.067      4.504
REMARK  Name = 
REMARK  5 active torsions:
REMARK  status: ('A' for Active; 'I' for Inactive)
REMARK    1  A    between atoms: C_1  and  O_2
REMARK    2  A    between atoms: O_2  and  C_3
REMARK    3  A    between atoms: N_5  and  C_6
REMARK    4  A    between atoms: C_11  and  C_12
REMARK    5  A    between atoms: C_15  and  C_16
REMARK                            x       y       z     vdW  Elec       q    Type
REMARK                         _______ _______ _______ _____ _____    ______ ____
ROOT
ATOM      1  C   UNL     1       5.328   5.157  16.512  0.00  0.00    +0.000 A 
ATOM      2  C   UNL     1       4.865   3.842  16.546  0.00  0.00    +0.000 A 
ATOM      3  C   UNL     1       3.663   3.524  17.177  0.00  0.00    +0.000 A 
ATOM      4  C   UNL     1       2.912   4.517  17.804  0.00  0.00    +0.000 A 
ATOM      5 CL   UNL     1       1.373   4.024  18.423  0.00  0.00    +0.000 Cl
ATOM      6  C   UNL     1       3.392   5.840  17.858  0.00  0.00    +0.000 A 
ATOM      7  C   UNL     1       4.606   6.143  17.198  0.00  0.00    +0.000 A 
ENDROOT
BRANCH   6   8
ATOM      8  C   UNL     1       2.682   6.924  18.533  0.00  0.00    +0.000 A 
ATOM      9  N   UNL     1       2.356   8.120  18.074  0.00  0.00    +0.000 NA
ATOM     10  C   UNL     1       1.719   8.720  19.141  0.00  0.00    +0.000 A 
ATOM     11  C   UNL     1       1.119   9.986  19.275  0.00  0.00    +0.000 A 
ATOM     12  C   UNL     1       1.067  10.992  18.165  0.00  0.00    +0.000 C 
ATOM     13  C   UNL     1       0.546  10.292  20.531  0.00  0.00    +0.000 A 
ATOM     14  C   UNL     1       0.569   9.383  21.598  0.00  0.00    +0.000 A 
ATOM     15  C   UNL     1       1.166   8.128  21.468  0.00  0.00    +0.000 A 
ATOM     16  C   UNL     1       1.721   7.857  20.224  0.00  0.00    +0.000 A 
ATOM     17  O   UNL     1       2.360   6.719  19.848  0.00  0.00    +0.000 OA
ENDBRANCH   6   8
BRANCH   1  20
ATOM     18  C   UNL     1       6.903   4.984  14.609  0.00  0.00    +0.000 C 
ATOM     19  O   UNL     1       6.369   4.084  13.976  0.00  0.00    +0.000 OA
ATOM     20  N   UNL     1       6.485   5.529  15.798  0.00  0.00    +0.000 N 
ATOM     21  H   UNL     1       6.993   6.354  16.081  0.00  0.00    +0.000 HD
BRANCH  18  23
ATOM     22  C   UNL     1       8.209   5.524  12.763  0.00  0.00    +0.000 C 
ATOM     23  O   UNL     1       8.017   5.636  14.177  0.00  0.00    +0.000 OA
ENDBRANCH  18  23
ENDBRANCH   1  20
TORSDOF 3
ENDMDL
MODEL 8
REMARK VINA RESULT:      -7.3      1.158      1.499
REMARK  Name = 
REMARK  5 active torsions:
REMARK  status: ('A' for Active; 'I' for Inactive)
REMARK    1  A    between atoms: C_1  and  O_2
REMARK    2  A    between atoms: O_2  and  C_3
REMARK    3  A    between atoms: N_5  and  C_6
REMARK    4  A    between atoms: C_11  and  C_12
REMARK    5  A    between atoms: C_15  and  C_16
REMARK                            x       y       z     vdW  Elec       q    Type
REMARK                         _______ _______ _______ _____ _____    ______ ____
ROOT
ATOM      1  C   UNL     1       6.325   3.823  14.016  0.00  0.00    +0.000 A 
ATOM      2  C   UNL     1       7.147   4.946  14.106  0.00  0.00    +0.000 A 
ATOM      3  C   UNL     1       7.165   5.728  15.259  0.00  0.00    +0.000 A 
ATOM      4  C   UNL     1       6.343   5.409  16.340  0.00  0.00    +0.000 A 
ATOM      5 CL   UNL     1       6.564   6.367  17.765  0.00  0.00    +0.000 Cl
ATOM      6  C   UNL     1       5.443   4.330  16.252  0.00  0.00    +0.000 A 
ATOM      7  C   UNL     1       5.453   3.540  15.077  0.00  0.00    +0.000 A 
ENDROOT
BRANCH   6   8
ATOM      8  C   UNL     1       4.524   3.962  17.325  0.00  0.00    +0.000 A 
ATOM      9  N   UNL     1       4.769   3.306  18.446  0.00  0.00    +0.000 NA
ATOM     10  C   UNL     1       3.537   3.233  19.062  0.00  0.00    +0.000 A 
ATOM     11  C   UNL     1       3.144   2.681  20.295  0.00  0.00    +0.000 A 
ATOM     12  C   UNL     1       4.099   2.014  21.239  0.00  0.00    +0.000 C 
ATOM     13  C   UNL     1       1.774   2.777  20.631  0.00  0.00    +0.000 A 
ATOM     14  C   UNL     1       0.843   3.392  19.782  0.00  0.00    +0.000 A 
ATOM     15  C   UNL     1       1.230   3.939  18.557  0.00  0.00    +0.000 A 
ATOM     16  C   UNL     1       2.582   3.828  18.255  0.00  0.00    +0.000 A 
ATOM     17  O   UNL     1       3.203   4.270  17.131  0.00  0.00    +0.000 OA
ENDBRANCH   6   8
BRANCH   1  20
ATOM     18  C   UNL     1       5.411   2.888  11.914  0.00  0.00    +0.000 C 
ATOM     19  O   UNL     1       4.384   3.545  11.821  0.00  0.00    +0.000 OA
ATOM     20  N   UNL     1       6.356   2.954  12.907  0.00  0.00    +0.000 N 
ATOM     21  H   UNL     1       7.195   2.424  12.722  0.00  0.00    +0.000 HD
BRANCH  18  23
ATOM     22  C   UNL     1       7.178   1.609  11.108  0.00  0.00    +0.000 C 
ATOM     23  O   UNL     1       5.804   1.988  10.972  0.00  0.00    +0.000 OA
ENDBRANCH  18  23
ENDBRANCH   1  20
TORSDOF 3
ENDMDL
MODEL 9
REMARK VINA RESULT:      -7.3      0.974      1.291
REMARK  Name = 
REMARK  5 active torsions:
REMARK  status: ('A' for Active; 'I' for Inactive)
REMARK    1  A    between atoms: C_1  and  O_2
REMARK    2  A    between atoms: O_2  and  C_3
REMARK    3  A    between atoms: N_5  and  C_6
REMARK    4  A    between atoms: C_11  and  C_12
REMARK    5  A    between atoms: C_15  and  C_16
REMARK                            x       y       z     vdW  Elec       q    Type
REMARK                         _______ _______ _______ _____ _____    ______ ____
ROOT
ATOM      1  C   UNL     1       5.588   4.276  14.001  0.00  0.00    +0.000 A 
ATOM      2  C   UNL     1       6.902   4.686  14.223  0.00  0.00    +0.000 A 
ATOM      3  C   UNL     1       7.368   4.924  15.515  0.00  0.00    +0.000 A 
ATOM      4  C   UNL     1       6.516   4.774  16.609  0.00  0.00    +0.000 A 
ATOM      5 CL   UNL     1       7.250   4.956  18.167  0.00  0.00    +0.000 Cl
ATOM      6  C   UNL     1       5.163   4.440  16.414  0.00  0.00    +0.000 A 
ATOM      7  C   UNL     1       4.715   4.188  15.095  0.00  0.00    +0.000 A 
ENDROOT
BRANCH   6   8
ATOM      8  C   UNL     1       4.203   4.307  17.507  0.00  0.00    +0.000 A 
ATOM      9  N   UNL     1       3.670   5.246  18.269  0.00  0.00    +0.000 NA
ATOM     10  C   UNL     1       2.854   4.546  19.134  0.00  0.00    +0.000 A 
ATOM     11  C   UNL     1       2.001   4.980  20.164  0.00  0.00    +0.000 A 
ATOM     12  C   UNL     1       1.816   6.422  20.526  0.00  0.00    +0.000 C 
ATOM     13  C   UNL     1       1.296   3.980  20.874  0.00  0.00    +0.000 A 
ATOM     14  C   UNL     1       1.435   2.618  20.572  0.00  0.00    +0.000 A 
ATOM     15  C   UNL     1       2.283   2.185  19.552  0.00  0.00    +0.000 A 
ATOM     16  C   UNL     1       2.962   3.190  18.874  0.00  0.00    +0.000 A 
ATOM     17  O   UNL     1       3.845   3.031  17.853  0.00  0.00    +0.000 OA
ENDBRANCH   6   8
BRANCH   1  20
ATOM     18  C   UNL     1       5.652   2.972  11.897  0.00  0.00    +0.000 C 
ATOM     19  O   UNL     1       6.630   2.271  12.115  0.00  0.00    +0.000 OA
ATOM     20  N   UNL     1       5.114   3.930  12.720  0.00  0.00    +0.000 N 
ATOM     21  H   UNL     1       4.225   4.297  12.409  0.00  0.00    +0.000 HD
BRANCH  18  23
ATOM     22  C   UNL     1       3.504   3.105  11.016  0.00  0.00    +0.000 C 
ATOM     23  O   UNL     1       4.894   2.860  10.773  0.00  0.00    +0.000 OA
ENDBRANCH  18  23
ENDBRANCH   1  20
TORSDOF 3
ENDMDL
