MODEL 1
REMARK VINA RESULT:      -7.2      0.000      0.000
REMARK  Name = 
REMARK  4 active torsions:
REMARK  status: ('A' for Active; 'I' for Inactive)
REMARK    1  A    between atoms: C_6  and  N_7
REMARK    2  A    between atoms: N_7  and  C_8
REMARK    3  A    between atoms: N_11  and  C_12
REMARK    4  A    between atoms: C_12  and  C_13
REMARK                            x       y       z     vdW  Elec       q    Type
REMARK                         _______ _______ _______ _____ _____    ______ ____
ROOT
ATOM      1  O   UNL     1       2.581   3.003  22.116  0.00  0.00    +0.000 OA
ATOM      2  S   UNL     1       2.169   3.150  20.733  0.00  0.00    +0.000 S 
ATOM      3  O   UNL     1       0.884   2.678  20.264  0.00  0.00    +0.000 OA
ATOM      4  C   UNL     1       3.444   2.476  19.696  0.00  0.00    +0.000 C 
ATOM      5  C   UNL     1       4.697   3.332  19.824  0.00  0.00    +0.000 C 
ATOM      6  C   UNL     1       4.533   4.687  19.125  0.00  0.00    +0.000 C 
ATOM      7  C   UNL     1       3.299   5.460  19.647  0.00  0.00    +0.000 A 
ATOM      8  C   UNL     1       3.197   6.844  19.383  0.00  0.00    +0.000 A 
ATOM      9  C   UNL     1       2.123   7.601  19.868  0.00  0.00    +0.000 A 
ATOM     10  F   UNL     1       2.067   8.911  19.594  0.00  0.00    +0.000 F 
ATOM     11  C   UNL     1       1.122   7.012  20.627  0.00  0.00    +0.000 A 
ATOM     12  F   UNL     1       0.110   7.743  21.110  0.00  0.00    +0.000 F 
ATOM     13  C   UNL     1       1.173   5.650  20.895  0.00  0.00    +0.000 A 
ATOM     14  C   UNL     1       2.241   4.889  20.388  0.00  0.00    +0.000 A 
ENDROOT
BRANCH   6  15
ATOM     15  N   UNL     1       4.432   4.518  17.668  0.00  0.00    +0.000 NA
ATOM     16  H   UNL     1       4.140   5.426  17.297  0.00  0.00    +0.000 HD
BRANCH  15  17
ATOM     17  C   UNL     1       5.666   4.147  16.908  0.00  0.00    +0.000 C 
ATOM     18  C   UNL     1       6.166   5.471  16.313  0.00  0.00    +0.000 C 
ATOM     19  C   UNL     1       5.321   5.568  15.052  0.00  0.00    +0.000 C 
ATOM     20  N   UNL     1       5.490   4.245  14.421  0.00  0.00    +0.000 NA
ATOM     21  C   UNL     1       5.564   3.305  15.580  0.00  0.00    +0.000 C 
BRANCH  20  22
ATOM     22  C   UNL     1       6.705   4.303  13.546  0.00  0.00    +0.000 C 
BRANCH  22  23
ATOM     23  C   UNL     1       6.717   3.833  12.076  0.00  0.00    +0.000 C 
ATOM     24  F   UNL     1       7.321   2.643  11.893  0.00  0.00    +0.000 F 
ATOM     25  F   UNL     1       5.457   3.743  11.587  0.00  0.00    +0.000 F 
ATOM     26  F   UNL     1       7.368   4.743  11.307  0.00  0.00    +0.000 F 
ENDBRANCH  22  23
ENDBRANCH  20  22
ENDBRANCH  15  17
ENDBRANCH   6  15
TORSDOF 4
ENDMDL
MODEL 2
REMARK VINA RESULT:      -6.9      3.577      7.666
REMARK  Name = 
REMARK  4 active torsions:
REMARK  status: ('A' for Active; 'I' for Inactive)
REMARK    1  A    between atoms: C_6  and  N_7
REMARK    2  A    between atoms: N_7  and  C_8
REMARK    3  A    between atoms: N_11  and  C_12
REMARK    4  A    between atoms: C_12  and  C_13
REMARK                            x       y       z     vdW  Elec       q    Type
REMARK                         _______ _______ _______ _____ _____    ______ ____
ROOT
ATOM      1  O   UNL     1       3.141   2.510  17.901  0.00  0.00    +0.000 OA
ATOM      2  S   UNL     1       3.414   3.464  18.959  0.00  0.00    +0.000 S 
ATOM      3  O   UNL     1       3.885   3.047  20.262  0.00  0.00    +0.000 OA
ATOM      4  C   UNL     1       1.980   4.491  19.168  0.00  0.00    +0.000 C 
ATOM      5  C   UNL     1       1.786   5.338  17.917  0.00  0.00    +0.000 C 
ATOM      6  C   UNL     1       2.842   6.446  17.811  0.00  0.00    +0.000 C 
ATOM      7  C   UNL     1       4.280   5.878  17.858  0.00  0.00    +0.000 A 
ATOM      8  C   UNL     1       5.351   6.692  17.425  0.00  0.00    +0.000 A 
ATOM      9  C   UNL     1       6.667   6.214  17.406  0.00  0.00    +0.000 A 
ATOM     10  F   UNL     1       7.651   7.020  16.987  0.00  0.00    +0.000 F 
ATOM     11  C   UNL     1       6.961   4.921  17.812  0.00  0.00    +0.000 A 
ATOM     12  F   UNL     1       8.217   4.459  17.769  0.00  0.00    +0.000 F 
ATOM     13  C   UNL     1       5.941   4.092  18.263  0.00  0.00    +0.000 A 
ATOM     14  C   UNL     1       4.624   4.582  18.302  0.00  0.00    +0.000 A 
ENDROOT
BRANCH   6  15
ATOM     15  N   UNL     1       2.667   7.442  18.879  0.00  0.00    +0.000 NA
ATOM     16  H   UNL     1       3.370   8.166  18.709  0.00  0.00    +0.000 HD
BRANCH  15  17
ATOM     17  C   UNL     1       1.358   8.160  18.974  0.00  0.00    +0.000 C 
ATOM     18  C   UNL     1       1.247   8.934  17.653  0.00  0.00    +0.000 C 
ATOM     19  C   UNL     1       2.050  10.186  17.972  0.00  0.00    +0.000 C 
ATOM     20  N   UNL     1       1.489  10.635  19.261  0.00  0.00    +0.000 NA
ATOM     21  C   UNL     1       1.178   9.362  19.977  0.00  0.00    +0.000 C 
BRANCH  20  22
ATOM     22  C   UNL     1       0.319  11.525  18.970  0.00  0.00    +0.000 C 
BRANCH  22  23
ATOM     23  C   UNL     1      -1.124  11.204  19.414  0.00  0.00    +0.000 C 
ATOM     24  F   UNL     1      -1.595  10.041  18.924  0.00  0.00    +0.000 F 
ATOM     25  F   UNL     1      -1.215  11.157  20.765  0.00  0.00    +0.000 F 
ATOM     26  F   UNL     1      -1.963  12.189  19.003  0.00  0.00    +0.000 F 
ENDBRANCH  22  23
ENDBRANCH  20  22
ENDBRANCH  15  17
ENDBRANCH   6  15
TORSDOF 4
ENDMDL
MODEL 3
REMARK VINA RESULT:      -6.9      3.325      7.688
REMARK  Name = 
REMARK  4 active torsions:
REMARK  status: ('A' for Active; 'I' for Inactive)
REMARK    1  A    between atoms: C_6  and  N_7
REMARK    2  A    between atoms: N_7  and  C_8
REMARK    3  A    between atoms: N_11  and  C_12
REMARK    4  A    between atoms: C_12  and  C_13
REMARK                            x       y       z     vdW  Elec       q    Type
REMARK                         _______ _______ _______ _____ _____    ______ ____
ROOT
ATOM      1  O   UNL     1       2.173   1.909  19.073  0.00  0.00    +0.000 OA
ATOM      2  S   UNL     1       2.959   2.814  19.889  0.00  0.00    +0.000 S 
ATOM      3  O   UNL     1       4.148   2.375  20.589  0.00  0.00    +0.000 OA
ATOM      4  C   UNL     1       1.873   3.611  21.046  0.00  0.00    +0.000 C 
ATOM      5  C   UNL     1       0.906   4.510  20.285  0.00  0.00    +0.000 C 
ATOM      6  C   UNL     1       1.606   5.760  19.737  0.00  0.00    +0.000 C 
ATOM      7  C   UNL     1       2.818   5.399  18.846  0.00  0.00    +0.000 A 
ATOM      8  C   UNL     1       3.352   6.385  17.987  0.00  0.00    +0.000 A 
ATOM      9  C   UNL     1       4.422   6.100  17.128  0.00  0.00    +0.000 A 
ATOM     10  F   UNL     1       4.896   7.064  16.329  0.00  0.00    +0.000 F 
ATOM     11  C   UNL     1       4.990   4.835  17.094  0.00  0.00    +0.000 A 
ATOM     12  F   UNL     1       5.996   4.559  16.254  0.00  0.00    +0.000 F 
ATOM     13  C   UNL     1       4.509   3.841  17.937  0.00  0.00    +0.000 A 
ATOM     14  C   UNL     1       3.450   4.136  18.813  0.00  0.00    +0.000 A 
ENDROOT
BRANCH   6  15
ATOM     15  N   UNL     1       2.040   6.642  20.830  0.00  0.00    +0.000 NA
ATOM     16  H   UNL     1       3.016   6.401  21.018  0.00  0.00    +0.000 HD
BRANCH  15  17
ATOM     17  C   UNL     1       2.023   8.120  20.600  0.00  0.00    +0.000 C 
ATOM     18  C   UNL     1       1.389   8.701  21.872  0.00  0.00    +0.000 C 
ATOM     19  C   UNL     1      -0.093   8.554  21.561  0.00  0.00    +0.000 C 
ATOM     20  N   UNL     1      -0.221   9.140  20.213  0.00  0.00    +0.000 NA
ATOM     21  C   UNL     1       1.050   8.751  19.533  0.00  0.00    +0.000 C 
BRANCH  20  22
ATOM     22  C   UNL     1      -0.456  10.612  20.370  0.00  0.00    +0.000 C 
BRANCH  22  23
ATOM     23  C   UNL     1      -1.321  11.443  19.399  0.00  0.00    +0.000 C 
ATOM     24  F   UNL     1      -0.606  12.110  18.473  0.00  0.00    +0.000 F 
ATOM     25  F   UNL     1      -2.214  10.655  18.752  0.00  0.00    +0.000 F 
ATOM     26  F   UNL     1      -2.043  12.359  20.094  0.00  0.00    +0.000 F 
ENDBRANCH  22  23
ENDBRANCH  20  22
ENDBRANCH  15  17
ENDBRANCH   6  15
TORSDOF 4
ENDMDL
MODEL 4
REMARK VINA RESULT:      -6.8      3.047      7.398
REMARK  Name = 
REMARK  4 active torsions:
REMARK  status: ('A' for Active; 'I' for Inactive)
REMARK    1  A    between atoms: C_6  and  N_7
REMARK    2  A    between atoms: N_7  and  C_8
REMARK    3  A    between atoms: N_11  and  C_12
REMARK    4  A    between atoms: C_12  and  C_13
REMARK                            x       y       z     vdW  Elec       q    Type
REMARK                         _______ _______ _______ _____ _____    ______ ____
ROOT
ATOM      1  O   UNL     1       8.394   4.390  18.472  0.00  0.00    +0.000 OA
ATOM      2  S   UNL     1       7.410   5.409  18.163  0.00  0.00    +0.000 S 
ATOM      3  O   UNL     1       7.776   6.799  17.990  0.00  0.00    +0.000 OA
ATOM      4  C   UNL     1       6.102   5.303  19.360  0.00  0.00    +0.000 C 
ATOM      5  C   UNL     1       5.366   3.981  19.180  0.00  0.00    +0.000 C 
ATOM      6  C   UNL     1       4.508   3.977  17.910  0.00  0.00    +0.000 C 
ATOM      7  C   UNL     1       5.342   4.303  16.648  0.00  0.00    +0.000 A 
ATOM      8  C   UNL     1       4.806   3.999  15.377  0.00  0.00    +0.000 A 
ATOM      9  C   UNL     1       5.536   4.234  14.204  0.00  0.00    +0.000 A 
ATOM     10  F   UNL     1       4.990   3.930  13.020  0.00  0.00    +0.000 F 
ATOM     11  C   UNL     1       6.814   4.772  14.256  0.00  0.00    +0.000 A 
ATOM     12  F   UNL     1       7.518   4.973  13.135  0.00  0.00    +0.000 F 
ATOM     13  C   UNL     1       7.372   5.104  15.484  0.00  0.00    +0.000 A 
ATOM     14  C   UNL     1       6.628   4.888  16.658  0.00  0.00    +0.000 A 
ENDROOT
BRANCH   6  15
ATOM     15  N   UNL     1       3.393   4.929  18.025  0.00  0.00    +0.000 NA
ATOM     16  H   UNL     1       2.762   4.542  18.731  0.00  0.00    +0.000 HD
BRANCH  15  17
ATOM     17  C   UNL     1       3.694   6.325  18.472  0.00  0.00    +0.000 C 
ATOM     18  C   UNL     1       2.492   6.719  19.343  0.00  0.00    +0.000 C 
ATOM     19  C   UNL     1       1.500   7.183  18.287  0.00  0.00    +0.000 C 
ATOM     20  N   UNL     1       2.286   8.122  17.464  0.00  0.00    +0.000 NA
ATOM     21  C   UNL     1       3.653   7.519  17.444  0.00  0.00    +0.000 C 
BRANCH  20  22
ATOM     22  C   UNL     1       2.180   9.482  18.086  0.00  0.00    +0.000 C 
BRANCH  22  23
ATOM     23  C   UNL     1       0.838  10.131  18.486  0.00  0.00    +0.000 C 
ATOM     24  F   UNL     1      -0.187   9.796  17.679  0.00  0.00    +0.000 F 
ATOM     25  F   UNL     1       0.499   9.797  19.755  0.00  0.00    +0.000 F 
ATOM     26  F   UNL     1       0.954  11.483  18.458  0.00  0.00    +0.000 F 
ENDBRANCH  22  23
ENDBRANCH  20  22
ENDBRANCH  15  17
ENDBRANCH   6  15
TORSDOF 4
ENDMDL
MODEL 5
REMARK VINA RESULT:      -6.6      2.926      8.063
REMARK  Name = 
REMARK  4 active torsions:
REMARK  status: ('A' for Active; 'I' for Inactive)
REMARK    1  A    between atoms: C_6  and  N_7
REMARK    2  A    between atoms: N_7  and  C_8
REMARK    3  A    between atoms: N_11  and  C_12
REMARK    4  A    between atoms: C_12  and  C_13
REMARK                            x       y       z     vdW  Elec       q    Type
REMARK                         _______ _______ _______ _____ _____    ______ ____
ROOT
ATOM      1  O   UNL     1       8.376   4.126  17.914  0.00  0.00    +0.000 OA
ATOM      2  S   UNL     1       7.493   5.221  17.563  0.00  0.00    +0.000 S 
ATOM      3  O   UNL     1       7.989   6.564  17.348  0.00  0.00    +0.000 OA
ATOM      4  C   UNL     1       6.175   5.279  18.753  0.00  0.00    +0.000 C 
ATOM      5  C   UNL     1       5.320   4.026  18.612  0.00  0.00    +0.000 C 
ATOM      6  C   UNL     1       4.470   4.060  17.336  0.00  0.00    +0.000 C 
ATOM      7  C   UNL     1       5.337   4.263  16.071  0.00  0.00    +0.000 A 
ATOM      8  C   UNL     1       4.781   3.968  14.806  0.00  0.00    +0.000 A 
ATOM      9  C   UNL     1       5.535   4.094  13.632  0.00  0.00    +0.000 A 
ATOM     10  F   UNL     1       4.967   3.802  12.455  0.00  0.00    +0.000 F 
ATOM     11  C   UNL     1       6.857   4.512  13.676  0.00  0.00    +0.000 A 
ATOM     12  F   UNL     1       7.581   4.607  12.554  0.00  0.00    +0.000 F 
ATOM     13  C   UNL     1       7.438   4.831  14.897  0.00  0.00    +0.000 A 
ATOM     14  C   UNL     1       6.672   4.725  16.071  0.00  0.00    +0.000 A 
ENDROOT
BRANCH   6  15
ATOM     15  N   UNL     1       3.449   5.115  17.412  0.00  0.00    +0.000 NA
ATOM     16  H   UNL     1       2.932   5.072  16.530  0.00  0.00    +0.000 HD
BRANCH  15  17
ATOM     17  C   UNL     1       2.418   5.029  18.492  0.00  0.00    +0.000 C 
ATOM     18  C   UNL     1       1.413   6.141  18.156  0.00  0.00    +0.000 C 
ATOM     19  C   UNL     1       2.088   7.352  18.783  0.00  0.00    +0.000 C 
ATOM     20  N   UNL     1       2.412   6.896  20.148  0.00  0.00    +0.000 NA
ATOM     21  C   UNL     1       2.769   5.457  19.968  0.00  0.00    +0.000 C 
BRANCH  20  22
ATOM     22  C   UNL     1       1.226   7.171  21.022  0.00  0.00    +0.000 C 
BRANCH  22  23
ATOM     23  C   UNL     1       0.781   8.593  21.427  0.00  0.00    +0.000 C 
ATOM     24  F   UNL     1       1.081   8.912  22.700  0.00  0.00    +0.000 F 
ATOM     25  F   UNL     1       1.342   9.524  20.618  0.00  0.00    +0.000 F 
ATOM     26  F   UNL     1      -0.564   8.713  21.283  0.00  0.00    +0.000 F 
ENDBRANCH  22  23
ENDBRANCH  20  22
ENDBRANCH  15  17
ENDBRANCH   6  15
TORSDOF 4
ENDMDL
MODEL 6
REMARK VINA RESULT:      -6.6      3.741      7.699
REMARK  Name = 
REMARK  4 active torsions:
REMARK  status: ('A' for Active; 'I' for Inactive)
REMARK    1  A    between atoms: C_6  and  N_7
REMARK    2  A    between atoms: N_7  and  C_8
REMARK    3  A    between atoms: N_11  and  C_12
REMARK    4  A    between atoms: C_12  and  C_13
REMARK                            x       y       z     vdW  Elec       q    Type
REMARK                         _______ _______ _______ _____ _____    ______ ____
ROOT
ATOM      1  O   UNL     1       3.130   2.584  17.730  0.00  0.00    +0.000 OA
ATOM      2  S   UNL     1       3.411   3.498  18.820  0.00  0.00    +0.000 S 
ATOM      3  O   UNL     1       3.884   3.032  20.106  0.00  0.00    +0.000 OA
ATOM      4  C   UNL     1       1.983   4.524  19.070  0.00  0.00    +0.000 C 
ATOM      5  C   UNL     1       1.789   5.417  17.851  0.00  0.00    +0.000 C 
ATOM      6  C   UNL     1       2.850   6.522  17.782  0.00  0.00    +0.000 C 
ATOM      7  C   UNL     1       4.286   5.946  17.804  0.00  0.00    +0.000 A 
ATOM      8  C   UNL     1       5.359   6.770  17.398  0.00  0.00    +0.000 A 
ATOM      9  C   UNL     1       6.674   6.286  17.357  0.00  0.00    +0.000 A 
ATOM     10  F   UNL     1       7.660   7.102  16.965  0.00  0.00    +0.000 F 
ATOM     11  C   UNL     1       6.962   4.978  17.716  0.00  0.00    +0.000 A 
ATOM     12  F   UNL     1       8.216   4.512  17.653  0.00  0.00    +0.000 F 
ATOM     13  C   UNL     1       5.940   4.139  18.141  0.00  0.00    +0.000 A 
ATOM     14  C   UNL     1       4.625   4.633  18.201  0.00  0.00    +0.000 A 
ENDROOT
BRANCH   6  15
ATOM     15  N   UNL     1       2.684   7.479  18.886  0.00  0.00    +0.000 NA
ATOM     16  H   UNL     1       3.364   8.225  18.719  0.00  0.00    +0.000 HD
BRANCH  15  17
ATOM     17  C   UNL     1       1.362   8.163  19.040  0.00  0.00    +0.000 C 
ATOM     18  C   UNL     1       1.181   8.951  17.734  0.00  0.00    +0.000 C 
ATOM     19  C   UNL     1       1.964  10.219  18.041  0.00  0.00    +0.000 C 
ATOM     20  N   UNL     1       1.441  10.637  19.355  0.00  0.00    +0.000 NA
ATOM     21  C   UNL     1       1.189   9.347  20.065  0.00  0.00    +0.000 C 
BRANCH  20  22
ATOM     22  C   UNL     1       0.239  11.501  19.121  0.00  0.00    +0.000 C 
BRANCH  22  23
ATOM     23  C   UNL     1       0.325  13.011  18.812  0.00  0.00    +0.000 C 
ATOM     24  F   UNL     1      -0.449  13.396  17.779  0.00  0.00    +0.000 F 
ATOM     25  F   UNL     1      -0.023  13.747  19.895  0.00  0.00    +0.000 F 
ATOM     26  F   UNL     1       1.606  13.347  18.509  0.00  0.00    +0.000 F 
ENDBRANCH  22  23
ENDBRANCH  20  22
ENDBRANCH  15  17
ENDBRANCH   6  15
TORSDOF 4
ENDMDL
MODEL 7
REMARK VINA RESULT:      -6.6      3.647      7.946
REMARK  Name = 
REMARK  4 active torsions:
REMARK  status: ('A' for Active; 'I' for Inactive)
REMARK    1  A    between atoms: C_6  and  N_7
REMARK    2  A    between atoms: N_7  and  C_8
REMARK    3  A    between atoms: N_11  and  C_12
REMARK    4  A    between atoms: C_12  and  C_13
REMARK                            x       y       z     vdW  Elec       q    Type
REMARK                         _______ _______ _______ _____ _____    ______ ____
ROOT
ATOM      1  O   UNL     1       3.149   2.546  17.854  0.00  0.00    +0.000 OA
ATOM      2  S   UNL     1       3.405   3.491  18.924  0.00  0.00    +0.000 S 
ATOM      3  O   UNL     1       3.852   3.063  20.232  0.00  0.00    +0.000 OA
ATOM      4  C   UNL     1       1.970   4.521  19.115  0.00  0.00    +0.000 C 
ATOM      5  C   UNL     1       1.801   5.378  17.868  0.00  0.00    +0.000 C 
ATOM      6  C   UNL     1       2.860   6.484  17.790  0.00  0.00    +0.000 C 
ATOM      7  C   UNL     1       4.296   5.913  17.858  0.00  0.00    +0.000 A 
ATOM      8  C   UNL     1       5.376   6.727  17.451  0.00  0.00    +0.000 A 
ATOM      9  C   UNL     1       6.692   6.246  17.451  0.00  0.00    +0.000 A 
ATOM     10  F   UNL     1       7.685   7.052  17.056  0.00  0.00    +0.000 F 
ATOM     11  C   UNL     1       6.976   4.948  17.852  0.00  0.00    +0.000 A 
ATOM     12  F   UNL     1       8.231   4.484  17.828  0.00  0.00    +0.000 F 
ATOM     13  C   UNL     1       5.946   4.119  18.279  0.00  0.00    +0.000 A 
ATOM     14  C   UNL     1       4.630   4.612  18.298  0.00  0.00    +0.000 A 
ENDROOT
BRANCH   6  15
ATOM     15  N   UNL     1       2.669   7.471  18.863  0.00  0.00    +0.000 NA
ATOM     16  H   UNL     1       3.368   8.201  18.704  0.00  0.00    +0.000 HD
BRANCH  15  17
ATOM     17  C   UNL     1       1.355   8.180  18.950  0.00  0.00    +0.000 C 
ATOM     18  C   UNL     1       1.295   9.041  17.680  0.00  0.00    +0.000 C 
ATOM     19  C   UNL     1       2.079  10.270  18.116  0.00  0.00    +0.000 C 
ATOM     20  N   UNL     1       1.462  10.631  19.407  0.00  0.00    +0.000 NA
ATOM     21  C   UNL     1       1.127   9.312  20.023  0.00  0.00    +0.000 C 
BRANCH  20  22
ATOM     22  C   UNL     1       0.302  11.537  19.127  0.00  0.00    +0.000 C 
BRANCH  22  23
ATOM     23  C   UNL     1      -0.468  12.297  20.229  0.00  0.00    +0.000 C 
ATOM     24  F   UNL     1       0.330  12.855  21.159  0.00  0.00    +0.000 F 
ATOM     25  F   UNL     1      -1.236  13.276  19.694  0.00  0.00    +0.000 F 
ATOM     26  F   UNL     1      -1.311  11.448  20.871  0.00  0.00    +0.000 F 
ENDBRANCH  22  23
ENDBRANCH  20  22
ENDBRANCH  15  17
ENDBRANCH   6  15
TORSDOF 4
ENDMDL
MODEL 8
REMARK VINA RESULT:      -6.5      5.151      6.628
REMARK  Name = 
REMARK  4 active torsions:
REMARK  status: ('A' for Active; 'I' for Inactive)
REMARK    1  A    between atoms: C_6  and  N_7
REMARK    2  A    between atoms: N_7  and  C_8
REMARK    3  A    between atoms: N_11  and  C_12
REMARK    4  A    between atoms: C_12  and  C_13
REMARK                            x       y       z     vdW  Elec       q    Type
REMARK                         _______ _______ _______ _____ _____    ______ ____
ROOT
ATOM      1  O   UNL     1       0.244  12.449  18.323  0.00  0.00    +0.000 OA
ATOM      2  S   UNL     1       1.355  11.898  19.076  0.00  0.00    +0.000 S 
ATOM      3  O   UNL     1       2.316  12.745  19.751  0.00  0.00    +0.000 OA
ATOM      4  C   UNL     1       2.227  10.758  18.030  0.00  0.00    +0.000 C 
ATOM      5  C   UNL     1       1.327   9.566  17.731  0.00  0.00    +0.000 C 
ATOM      6  C   UNL     1       1.158   8.660  18.956  0.00  0.00    +0.000 C 
ATOM      7  C   UNL     1       0.626   9.441  20.181  0.00  0.00    +0.000 A 
ATOM      8  C   UNL     1       0.083   8.720  21.268  0.00  0.00    +0.000 A 
ATOM      9  C   UNL     1      -0.452   9.378  22.384  0.00  0.00    +0.000 A 
ATOM     10  F   UNL     1      -0.958   8.655  23.391  0.00  0.00    +0.000 F 
ATOM     11  C   UNL     1      -0.466  10.763  22.455  0.00  0.00    +0.000 A 
ATOM     12  F   UNL     1      -1.000  11.388  23.512  0.00  0.00    +0.000 F 
ATOM     13  C   UNL     1       0.076  11.511  21.417  0.00  0.00    +0.000 A 
ATOM     14  C   UNL     1       0.632  10.848  20.309  0.00  0.00    +0.000 A 
ENDROOT
BRANCH   6  15
ATOM     15  N   UNL     1       2.427   8.001  19.302  0.00  0.00    +0.000 NA
ATOM     16  H   UNL     1       2.255   7.498  20.176  0.00  0.00    +0.000 HD
BRANCH  15  17
ATOM     17  C   UNL     1       2.983   6.988  18.352  0.00  0.00    +0.000 C 
ATOM     18  C   UNL     1       1.880   5.927  18.230  0.00  0.00    +0.000 C 
ATOM     19  C   UNL     1       2.165   5.061  19.448  0.00  0.00    +0.000 C 
ATOM     20  N   UNL     1       3.612   4.787  19.345  0.00  0.00    +0.000 NA
ATOM     21  C   UNL     1       4.175   6.054  18.788  0.00  0.00    +0.000 C 
BRANCH  20  22
ATOM     22  C   UNL     1       3.791   3.563  18.499  0.00  0.00    +0.000 C 
BRANCH  22  23
ATOM     23  C   UNL     1       3.599   2.127  19.031  0.00  0.00    +0.000 C 
ATOM     24  F   UNL     1       2.369   1.895  19.530  0.00  0.00    +0.000 F 
ATOM     25  F   UNL     1       3.836   1.215  18.058  0.00  0.00    +0.000 F 
ATOM     26  F   UNL     1       4.494   1.880  20.022  0.00  0.00    +0.000 F 
ENDBRANCH  22  23
ENDBRANCH  20  22
ENDBRANCH  15  17
ENDBRANCH   6  15
TORSDOF 4
ENDMDL
MODEL 9
REMARK VINA RESULT:      -6.4      3.685      7.472
REMARK  Name = 
REMARK  4 active torsions:
REMARK  status: ('A' for Active; 'I' for Inactive)
REMARK    1  A    between atoms: C_6  and  N_7
REMARK    2  A    between atoms: N_7  and  C_8
REMARK    3  A    between atoms: N_11  and  C_12
REMARK    4  A    between atoms: C_12  and  C_13
REMARK                            x       y       z     vdW  Elec       q    Type
REMARK                         _______ _______ _______ _____ _____    ______ ____
ROOT
ATOM      1  O   UNL     1       3.504   1.854  17.868  0.00  0.00    +0.000 OA
ATOM      2  S   UNL     1       3.555   2.808  18.959  0.00  0.00    +0.000 S 
ATOM      3  O   UNL     1       4.126   2.469  20.245  0.00  0.00    +0.000 OA
ATOM      4  C   UNL     1       1.921   3.458  19.209  0.00  0.00    +0.000 C 
ATOM      5  C   UNL     1       1.518   4.279  17.990  0.00  0.00    +0.000 C 
ATOM      6  C   UNL     1       2.279   5.608  17.924  0.00  0.00    +0.000 C 
ATOM      7  C   UNL     1       3.812   5.397  17.946  0.00  0.00    +0.000 A 
ATOM      8  C   UNL     1       4.654   6.456  17.541  0.00  0.00    +0.000 A 
ATOM      9  C   UNL     1       6.047   6.305  17.501  0.00  0.00    +0.000 A 
ATOM     10  F   UNL     1       6.807   7.335  17.110  0.00  0.00    +0.000 F 
ATOM     11  C   UNL     1       6.643   5.105  17.858  0.00  0.00    +0.000 A 
ATOM     12  F   UNL     1       7.972   4.956  17.796  0.00  0.00    +0.000 F 
ATOM     13  C   UNL     1       5.854   4.043  18.282  0.00  0.00    +0.000 A 
ATOM     14  C   UNL     1       4.458   4.204  18.341  0.00  0.00    +0.000 A 
ENDROOT
BRANCH   6  15
ATOM     15  N   UNL     1       1.886   6.495  19.028  0.00  0.00    +0.000 NA
ATOM     16  H   UNL     1       2.273   6.079  19.878  0.00  0.00    +0.000 HD
BRANCH  15  17
ATOM     17  C   UNL     1       2.373   7.910  19.011  0.00  0.00    +0.000 C 
ATOM     18  C   UNL     1       1.728   8.555  20.245  0.00  0.00    +0.000 C 
ATOM     19  C   UNL     1       0.358   8.935  19.701  0.00  0.00    +0.000 C 
ATOM     20  N   UNL     1       0.671   9.645  18.447  0.00  0.00    +0.000 NA
ATOM     21  C   UNL     1       1.861   8.918  17.912  0.00  0.00    +0.000 C 
BRANCH  20  22
ATOM     22  C   UNL     1       0.882  11.092  18.775  0.00  0.00    +0.000 C 
BRANCH  22  23
ATOM     23  C   UNL     1      -0.264  12.050  19.166  0.00  0.00    +0.000 C 
ATOM     24  F   UNL     1      -1.478  11.638  18.753  0.00  0.00    +0.000 F 
ATOM     25  F   UNL     1      -0.314  12.222  20.509  0.00  0.00    +0.000 F 
ATOM     26  F   UNL     1      -0.044  13.276  18.625  0.00  0.00    +0.000 F 
ENDBRANCH  22  23
ENDBRANCH  20  22
ENDBRANCH  15  17
ENDBRANCH   6  15
TORSDOF 4
ENDMDL
