MODEL 1
REMARK VINA RESULT:      -7.5      0.000      0.000
REMARK  Name = 
REMARK  5 active torsions:
REMARK  status: ('A' for Active; 'I' for Inactive)
REMARK    1  A    between atoms: C_2  and  C_3
REMARK    2  A    between atoms: C_3  and  C_10
REMARK    3  A    between atoms: C_4  and  C_5
REMARK    4  A    between atoms: N_12  and  C_13
REMARK    5  A    between atoms: C_13  and  C_14
REMARK                            x       y       z     vdW  Elec       q    Type
REMARK                         _______ _______ _______ _____ _____    ______ ____
ROOT
ATOM      1  C   UNL     1       4.930   5.487  17.962  0.00  0.00    +0.000 C 
ATOM      2  O   UNL     1       5.358   5.531  19.112  0.00  0.00    +0.000 OA
ATOM      3  N   UNL     1       3.620   5.775  17.643  0.00  0.00    +0.000 N 
ATOM      4  H   UNL     1       3.286   5.729  16.688  0.00  0.00    +0.000 HD
ENDROOT
BRANCH   1   5
ATOM      5  C   UNL     1       5.826   5.114  16.813  0.00  0.00    +0.000 C 
ATOM      6  C   UNL     1       5.353   5.281  15.559  0.00  0.00    +0.000 C 
BRANCH   6   7
ATOM      7  C   UNL     1       6.094   4.891  14.405  0.00  0.00    +0.000 A 
ATOM      8  C   UNL     1       5.897   3.827  13.531  0.00  0.00    +0.000 A 
ATOM      9  C   UNL     1       6.923   3.868  12.552  0.00  0.00    +0.000 A 
ATOM     10  C   UNL     1       7.703   4.950  12.874  0.00  0.00    +0.000 A 
ATOM     11  O   UNL     1       7.223   5.557  13.982  0.00  0.00    +0.000 OA
ENDBRANCH   6   7
BRANCH   5  13
ATOM     12  N   UNL     1       8.190   4.244  17.375  0.00  0.00    +0.000 NA
ATOM     13  C   UNL     1       7.137   4.638  17.084  0.00  0.00    +0.000 C 
ENDBRANCH   5  13
ENDBRANCH   1   5
BRANCH   3  14
ATOM     14  C   UNL     1       2.632   6.137  18.642  0.00  0.00    +0.000 C 
BRANCH  14  15
ATOM     15  C   UNL     1       2.130   4.928  19.394  0.00  0.00    +0.000 A 
ATOM     16  C   UNL     1       2.319   4.802  20.779  0.00  0.00    +0.000 A 
ATOM     17  C   UNL     1       1.843   3.677  21.462  0.00  0.00    +0.000 A 
ATOM     18  C   UNL     1       1.178   2.667  20.769  0.00  0.00    +0.000 A 
ATOM     19  C   UNL     1       0.989   2.779  19.393  0.00  0.00    +0.000 A 
ATOM     20  C   UNL     1       1.465   3.901  18.709  0.00  0.00    +0.000 A 
ENDBRANCH  14  15
ENDBRANCH   3  14
TORSDOF 5
ENDMDL
MODEL 2
REMARK VINA RESULT:      -7.1      1.658      1.841
REMARK  Name = 
REMARK  5 active torsions:
REMARK  status: ('A' for Active; 'I' for Inactive)
REMARK    1  A    between atoms: C_2  and  C_3
REMARK    2  A    between atoms: C_3  and  C_10
REMARK    3  A    between atoms: C_4  and  C_5
REMARK    4  A    between atoms: N_12  and  C_13
REMARK    5  A    between atoms: C_13  and  C_14
REMARK                            x       y       z     vdW  Elec       q    Type
REMARK                         _______ _______ _______ _____ _____    ______ ____
ROOT
ATOM      1  C   UNL     1       6.016   4.498  18.568  0.00  0.00    +0.000 C 
ATOM      2  O   UNL     1       6.338   5.128  19.571  0.00  0.00    +0.000 OA
ATOM      3  N   UNL     1       5.262   3.344  18.623  0.00  0.00    +0.000 N 
ATOM      4  H   UNL     1       5.011   2.837  17.784  0.00  0.00    +0.000 HD
ENDROOT
BRANCH   1   5
ATOM      5  C   UNL     1       6.429   4.956  17.196  0.00  0.00    +0.000 C 
ATOM      6  C   UNL     1       6.281   4.093  16.168  0.00  0.00    +0.000 C 
BRANCH   6   7
ATOM      7  C   UNL     1       6.709   4.404  14.844  0.00  0.00    +0.000 A 
ATOM      8  C   UNL     1       6.205   3.983  13.617  0.00  0.00    +0.000 A 
ATOM      9  C   UNL     1       6.997   4.565  12.594  0.00  0.00    +0.000 A 
ATOM     10  C   UNL     1       7.951   5.311  13.240  0.00  0.00    +0.000 A 
ATOM     11  O   UNL     1       7.794   5.210  14.578  0.00  0.00    +0.000 OA
ENDBRANCH   6   7
BRANCH   5  13
ATOM     12  N   UNL     1       7.360   7.337  16.835  0.00  0.00    +0.000 NA
ATOM     13  C   UNL     1       6.920   6.278  17.028  0.00  0.00    +0.000 C 
ENDBRANCH   5  13
ENDBRANCH   1   5
BRANCH   3  14
ATOM     14  C   UNL     1       4.801   2.769  19.872  0.00  0.00    +0.000 C 
BRANCH  14  15
ATOM     15  C   UNL     1       3.301   2.871  20.012  0.00  0.00    +0.000 A 
ATOM     16  C   UNL     1       2.681   2.791  21.268  0.00  0.00    +0.000 A 
ATOM     17  C   UNL     1       1.290   2.893  21.382  0.00  0.00    +0.000 A 
ATOM     18  C   UNL     1       0.506   3.070  20.243  0.00  0.00    +0.000 A 
ATOM     19  C   UNL     1       1.111   3.146  18.990  0.00  0.00    +0.000 A 
ATOM     20  C   UNL     1       2.499   3.044  18.875  0.00  0.00    +0.000 A 
ENDBRANCH  14  15
ENDBRANCH   3  14
TORSDOF 5
ENDMDL
MODEL 3
REMARK VINA RESULT:      -7.0      1.565      2.259
REMARK  Name = 
REMARK  5 active torsions:
REMARK  status: ('A' for Active; 'I' for Inactive)
REMARK    1  A    between atoms: C_2  and  C_3
REMARK    2  A    between atoms: C_3  and  C_10
REMARK    3  A    between atoms: C_4  and  C_5
REMARK    4  A    between atoms: N_12  and  C_13
REMARK    5  A    between atoms: C_13  and  C_14
REMARK                            x       y       z     vdW  Elec       q    Type
REMARK                         _______ _______ _______ _____ _____    ______ ____
ROOT
ATOM      1  C   UNL     1       5.137   4.661  17.736  0.00  0.00    +0.000 C 
ATOM      2  O   UNL     1       4.944   5.536  18.576  0.00  0.00    +0.000 OA
ATOM      3  N   UNL     1       5.000   3.317  18.016  0.00  0.00    +0.000 N 
ATOM      4  H   UNL     1       5.168   2.611  17.310  0.00  0.00    +0.000 HD
ENDROOT
BRANCH   1   5
ATOM      5  C   UNL     1       5.537   5.008  16.328  0.00  0.00    +0.000 C 
ATOM      6  C   UNL     1       6.230   4.090  15.621  0.00  0.00    +0.000 C 
BRANCH   6   7
ATOM      7  C   UNL     1       6.719   4.349  14.307  0.00  0.00    +0.000 A 
ATOM      8  C   UNL     1       6.370   3.769  13.091  0.00  0.00    +0.000 A 
ATOM      9  C   UNL     1       7.161   4.369  12.077  0.00  0.00    +0.000 A 
ATOM     10  C   UNL     1       7.960   5.283  12.717  0.00  0.00    +0.000 A 
ATOM     11  O   UNL     1       7.710   5.268  14.045  0.00  0.00    +0.000 OA
ENDBRANCH   6   7
BRANCH   5  13
ATOM     12  N   UNL     1       4.890   7.295  15.322  0.00  0.00    +0.000 NA
ATOM     13  C   UNL     1       5.145   6.262  15.788  0.00  0.00    +0.000 C 
ENDBRANCH   5  13
ENDBRANCH   1   5
BRANCH   3  14
ATOM     14  C   UNL     1       4.634   2.824  19.329  0.00  0.00    +0.000 C 
BRANCH  14  15
ATOM     15  C   UNL     1       3.145   2.909  19.562  0.00  0.00    +0.000 A 
ATOM     16  C   UNL     1       2.234   2.302  18.684  0.00  0.00    +0.000 A 
ATOM     17  C   UNL     1       0.857   2.386  18.917  0.00  0.00    +0.000 A 
ATOM     18  C   UNL     1       0.376   3.080  20.026  0.00  0.00    +0.000 A 
ATOM     19  C   UNL     1       1.271   3.691  20.902  0.00  0.00    +0.000 A 
ATOM     20  C   UNL     1       2.646   3.608  20.670  0.00  0.00    +0.000 A 
ENDBRANCH  14  15
ENDBRANCH   3  14
TORSDOF 5
ENDMDL
MODEL 4
REMARK VINA RESULT:      -7.0      1.566      1.967
REMARK  Name = 
REMARK  5 active torsions:
REMARK  status: ('A' for Active; 'I' for Inactive)
REMARK    1  A    between atoms: C_2  and  C_3
REMARK    2  A    between atoms: C_3  and  C_10
REMARK    3  A    between atoms: C_4  and  C_5
REMARK    4  A    between atoms: N_12  and  C_13
REMARK    5  A    between atoms: C_13  and  C_14
REMARK                            x       y       z     vdW  Elec       q    Type
REMARK                         _______ _______ _______ _____ _____    ______ ____
ROOT
ATOM      1  C   UNL     1       5.445   4.525  17.762  0.00  0.00    +0.000 C 
ATOM      2  O   UNL     1       5.649   5.295  18.697  0.00  0.00    +0.000 OA
ATOM      3  N   UNL     1       4.919   3.262  17.938  0.00  0.00    +0.000 N 
ATOM      4  H   UNL     1       4.762   2.641  17.154  0.00  0.00    +0.000 HD
ENDROOT
BRANCH   1   5
ATOM      5  C   UNL     1       5.759   4.921  16.345  0.00  0.00    +0.000 C 
ATOM      6  C   UNL     1       6.450   4.049  15.581  0.00  0.00    +0.000 C 
BRANCH   6   7
ATOM      7  C   UNL     1       6.860   4.359  14.251  0.00  0.00    +0.000 A 
ATOM      8  C   UNL     1       6.476   3.791  13.039  0.00  0.00    +0.000 A 
ATOM      9  C   UNL     1       7.188   4.447  12.003  0.00  0.00    +0.000 A 
ATOM     10  C   UNL     1       7.978   5.382  12.625  0.00  0.00    +0.000 A 
ATOM     11  O   UNL     1       7.797   5.327  13.963  0.00  0.00    +0.000 OA
ENDBRANCH   6   7
BRANCH   5  13
ATOM     12  N   UNL     1       4.913   7.218  15.524  0.00  0.00    +0.000 NA
ATOM     13  C   UNL     1       5.290   6.170  15.857  0.00  0.00    +0.000 C 
ENDBRANCH   5  13
ENDBRANCH   1   5
BRANCH   3  14
ATOM     14  C   UNL     1       4.579   2.730  19.243  0.00  0.00    +0.000 C 
BRANCH  14  15
ATOM     15  C   UNL     1       3.115   2.922  19.560  0.00  0.00    +0.000 A 
ATOM     16  C   UNL     1       2.697   3.802  20.570  0.00  0.00    +0.000 A 
ATOM     17  C   UNL     1       1.336   3.972  20.847  0.00  0.00    +0.000 A 
ATOM     18  C   UNL     1       0.380   3.262  20.121  0.00  0.00    +0.000 A 
ATOM     19  C   UNL     1       0.784   2.382  19.119  0.00  0.00    +0.000 A 
ATOM     20  C   UNL     1       2.142   2.211  18.842  0.00  0.00    +0.000 A 
ENDBRANCH  14  15
ENDBRANCH   3  14
TORSDOF 5
ENDMDL
MODEL 5
REMARK VINA RESULT:      -6.9      1.340      1.916
REMARK  Name = 
REMARK  5 active torsions:
REMARK  status: ('A' for Active; 'I' for Inactive)
REMARK    1  A    between atoms: C_2  and  C_3
REMARK    2  A    between atoms: C_3  and  C_10
REMARK    3  A    between atoms: C_4  and  C_5
REMARK    4  A    between atoms: N_12  and  C_13
REMARK    5  A    between atoms: C_13  and  C_14
REMARK                            x       y       z     vdW  Elec       q    Type
REMARK                         _______ _______ _______ _____ _____    ______ ____
ROOT
ATOM      1  C   UNL     1       5.337   4.957  17.862  0.00  0.00    +0.000 C 
ATOM      2  O   UNL     1       5.987   4.159  18.533  0.00  0.00    +0.000 OA
ATOM      3  N   UNL     1       4.277   5.673  18.377  0.00  0.00    +0.000 N 
ATOM      4  H   UNL     1       3.751   6.323  17.806  0.00  0.00    +0.000 HD
ENDROOT
BRANCH   1   5
ATOM      5  C   UNL     1       5.666   5.206  16.416  0.00  0.00    +0.000 C 
ATOM      6  C   UNL     1       6.366   4.261  15.753  0.00  0.00    +0.000 C 
BRANCH   6   7
ATOM      7  C   UNL     1       6.790   4.433  14.402  0.00  0.00    +0.000 A 
ATOM      8  C   UNL     1       6.372   3.788  13.242  0.00  0.00    +0.000 A 
ATOM      9  C   UNL     1       7.118   4.312  12.155  0.00  0.00    +0.000 A 
ATOM     10  C   UNL     1       7.961   5.250  12.699  0.00  0.00    +0.000 A 
ATOM     11  O   UNL     1       7.780   5.319  14.036  0.00  0.00    +0.000 OA
ENDBRANCH   6   7
BRANCH   5  13
ATOM     12  N   UNL     1       4.786   7.333  15.246  0.00  0.00    +0.000 NA
ATOM     13  C   UNL     1       5.202   6.398  15.797  0.00  0.00    +0.000 C 
ENDBRANCH   5  13
ENDBRANCH   1   5
BRANCH   3  14
ATOM     14  C   UNL     1       3.829   5.532  19.749  0.00  0.00    +0.000 C 
BRANCH  14  15
ATOM     15  C   UNL     1       2.720   4.514  19.873  0.00  0.00    +0.000 A 
ATOM     16  C   UNL     1       2.001   4.081  18.748  0.00  0.00    +0.000 A 
ATOM     17  C   UNL     1       0.980   3.133  18.879  0.00  0.00    +0.000 A 
ATOM     18  C   UNL     1       0.665   2.612  20.133  0.00  0.00    +0.000 A 
ATOM     19  C   UNL     1       1.370   3.038  21.257  0.00  0.00    +0.000 A 
ATOM     20  C   UNL     1       2.389   3.985  21.128  0.00  0.00    +0.000 A 
ENDBRANCH  14  15
ENDBRANCH   3  14
TORSDOF 5
ENDMDL
MODEL 6
REMARK VINA RESULT:      -6.8      1.923      3.074
REMARK  Name = 
REMARK  5 active torsions:
REMARK  status: ('A' for Active; 'I' for Inactive)
REMARK    1  A    between atoms: C_2  and  C_3
REMARK    2  A    between atoms: C_3  and  C_10
REMARK    3  A    between atoms: C_4  and  C_5
REMARK    4  A    between atoms: N_12  and  C_13
REMARK    5  A    between atoms: C_13  and  C_14
REMARK                            x       y       z     vdW  Elec       q    Type
REMARK                         _______ _______ _______ _____ _____    ______ ____
ROOT
ATOM      1  C   UNL     1       4.497   4.429  17.504  0.00  0.00    +0.000 C 
ATOM      2  O   UNL     1       3.844   3.413  17.731  0.00  0.00    +0.000 OA
ATOM      3  N   UNL     1       4.317   5.602  18.206  0.00  0.00    +0.000 N 
ATOM      4  H   UNL     1       4.863   6.429  18.000  0.00  0.00    +0.000 HD
ENDROOT
BRANCH   1   5
ATOM      5  C   UNL     1       5.549   4.452  16.430  0.00  0.00    +0.000 C 
ATOM      6  C   UNL     1       5.143   4.537  15.145  0.00  0.00    +0.000 C 
BRANCH   6   7
ATOM      7  C   UNL     1       6.057   4.494  14.051  0.00  0.00    +0.000 A 
ATOM      8  C   UNL     1       6.116   3.625  12.966  0.00  0.00    +0.000 A 
ATOM      9  C   UNL     1       7.226   3.997  12.166  0.00  0.00    +0.000 A 
ATOM     10  C   UNL     1       7.799   5.072  12.800  0.00  0.00    +0.000 A 
ATOM     11  O   UNL     1       7.116   5.365  13.928  0.00  0.00    +0.000 OA
ENDBRANCH   6   7
BRANCH   5  13
ATOM     12  N   UNL     1       8.029   4.335  17.138  0.00  0.00    +0.000 NA
ATOM     13  C   UNL     1       6.919   4.423  16.804  0.00  0.00    +0.000 C 
ENDBRANCH   5  13
ENDBRANCH   1   5
BRANCH   3  14
ATOM     14  C   UNL     1       3.332   5.740  19.261  0.00  0.00    +0.000 C 
BRANCH  14  15
ATOM     15  C   UNL     1       2.581   7.046  19.155  0.00  0.00    +0.000 A 
ATOM     16  C   UNL     1       2.528   7.760  17.948  0.00  0.00    +0.000 A 
ATOM     17  C   UNL     1       1.824   8.966  17.866  0.00  0.00    +0.000 A 
ATOM     18  C   UNL     1       1.169   9.473  18.988  0.00  0.00    +0.000 A 
ATOM     19  C   UNL     1       1.219   8.774  20.193  0.00  0.00    +0.000 A 
ATOM     20  C   UNL     1       1.923   7.570  20.276  0.00  0.00    +0.000 A 
ENDBRANCH  14  15
ENDBRANCH   3  14
TORSDOF 5
ENDMDL
MODEL 7
REMARK VINA RESULT:      -6.8      1.866      3.063
REMARK  Name = 
REMARK  5 active torsions:
REMARK  status: ('A' for Active; 'I' for Inactive)
REMARK    1  A    between atoms: C_2  and  C_3
REMARK    2  A    between atoms: C_3  and  C_10
REMARK    3  A    between atoms: C_4  and  C_5
REMARK    4  A    between atoms: N_12  and  C_13
REMARK    5  A    between atoms: C_13  and  C_14
REMARK                            x       y       z     vdW  Elec       q    Type
REMARK                         _______ _______ _______ _____ _____    ______ ____
ROOT
ATOM      1  C   UNL     1       4.711   4.776  18.360  0.00  0.00    +0.000 C 
ATOM      2  O   UNL     1       4.665   3.891  19.210  0.00  0.00    +0.000 OA
ATOM      3  N   UNL     1       3.936   5.915  18.428  0.00  0.00    +0.000 N 
ATOM      4  H   UNL     1       3.986   6.631  17.715  0.00  0.00    +0.000 HD
ENDROOT
BRANCH   1   5
ATOM      5  C   UNL     1       5.633   4.671  17.177  0.00  0.00    +0.000 C 
ATOM      6  C   UNL     1       5.105   4.830  15.945  0.00  0.00    +0.000 C 
BRANCH   6   7
ATOM      7  C   UNL     1       5.879   4.677  14.757  0.00  0.00    +0.000 A 
ATOM      8  C   UNL     1       5.739   3.777  13.705  0.00  0.00    +0.000 A 
ATOM      9  C   UNL     1       6.777   4.030  12.771  0.00  0.00    +0.000 A 
ATOM     10  C   UNL     1       7.506   5.068  13.295  0.00  0.00    +0.000 A 
ATOM     11  O   UNL     1       6.985   5.450  14.482  0.00  0.00    +0.000 OA
ENDBRANCH   6   7
BRANCH   5  13
ATOM     12  N   UNL     1       8.135   4.239  17.643  0.00  0.00    +0.000 NA
ATOM     13  C   UNL     1       7.019   4.447  17.398  0.00  0.00    +0.000 C 
ENDBRANCH   5  13
ENDBRANCH   1   5
BRANCH   3  14
ATOM     14  C   UNL     1       2.988   6.154  19.500  0.00  0.00    +0.000 C 
BRANCH  14  15
ATOM     15  C   UNL     1       2.254   7.460  19.313  0.00  0.00    +0.000 A 
ATOM     16  C   UNL     1       1.605   8.090  20.386  0.00  0.00    +0.000 A 
ATOM     17  C   UNL     1       0.933   9.303  20.197  0.00  0.00    +0.000 A 
ATOM     18  C   UNL     1       0.899   9.896  18.936  0.00  0.00    +0.000 A 
ATOM     19  C   UNL     1       1.536   9.276  17.862  0.00  0.00    +0.000 A 
ATOM     20  C   UNL     1       2.207   8.065  18.049  0.00  0.00    +0.000 A 
ENDBRANCH  14  15
ENDBRANCH   3  14
TORSDOF 5
ENDMDL
MODEL 8
REMARK VINA RESULT:      -6.8      1.799      7.116
REMARK  Name = 
REMARK  5 active torsions:
REMARK  status: ('A' for Active; 'I' for Inactive)
REMARK    1  A    between atoms: C_2  and  C_3
REMARK    2  A    between atoms: C_3  and  C_10
REMARK    3  A    between atoms: C_4  and  C_5
REMARK    4  A    between atoms: N_12  and  C_13
REMARK    5  A    between atoms: C_13  and  C_14
REMARK                            x       y       z     vdW  Elec       q    Type
REMARK                         _______ _______ _______ _____ _____    ______ ____
ROOT
ATOM      1  C   UNL     1       5.899   4.731  18.084  0.00  0.00    +0.000 C 
ATOM      2  O   UNL     1       6.951   4.416  18.636  0.00  0.00    +0.000 OA
ATOM      3  N   UNL     1       5.851   5.213  16.793  0.00  0.00    +0.000 N 
ATOM      4  H   UNL     1       4.974   5.471  16.358  0.00  0.00    +0.000 HD
ENDROOT
BRANCH   1   5
ATOM      5  C   UNL     1       4.580   4.604  18.795  0.00  0.00    +0.000 C 
ATOM      6  C   UNL     1       4.276   3.417  19.361  0.00  0.00    +0.000 C 
BRANCH   6   7
ATOM      7  C   UNL     1       3.023   3.172  19.995  0.00  0.00    +0.000 A 
ATOM      8  C   UNL     1       2.730   2.896  21.327  0.00  0.00    +0.000 A 
ATOM      9  C   UNL     1       1.328   2.715  21.440  0.00  0.00    +0.000 A 
ATOM     10  C   UNL     1       0.827   2.883  20.173  0.00  0.00    +0.000 A 
ATOM     11  O   UNL     1       1.830   3.143  19.306  0.00  0.00    +0.000 OA
ENDBRANCH   6   7
BRANCH   5  13
ATOM     12  N   UNL     1       3.018   6.648  19.010  0.00  0.00    +0.000 NA
ATOM     13  C   UNL     1       3.727   5.737  18.876  0.00  0.00    +0.000 C 
ENDBRANCH   5  13
ENDBRANCH   1   5
BRANCH   3  14
ATOM     14  C   UNL     1       7.039   5.406  15.984  0.00  0.00    +0.000 C 
BRANCH  14  15
ATOM     15  C   UNL     1       6.861   4.851  14.591  0.00  0.00    +0.000 A 
ATOM     16  C   UNL     1       7.706   5.238  13.540  0.00  0.00    +0.000 A 
ATOM     17  C   UNL     1       7.531   4.711  12.256  0.00  0.00    +0.000 A 
ATOM     18  C   UNL     1       6.508   3.796  12.008  0.00  0.00    +0.000 A 
ATOM     19  C   UNL     1       5.660   3.409  13.043  0.00  0.00    +0.000 A 
ATOM     20  C   UNL     1       5.834   3.935  14.326  0.00  0.00    +0.000 A 
ENDBRANCH  14  15
ENDBRANCH   3  14
TORSDOF 5
ENDMDL
MODEL 9
REMARK VINA RESULT:      -6.8      1.798      7.138
REMARK  Name = 
REMARK  5 active torsions:
REMARK  status: ('A' for Active; 'I' for Inactive)
REMARK    1  A    between atoms: C_2  and  C_3
REMARK    2  A    between atoms: C_3  and  C_10
REMARK    3  A    between atoms: C_4  and  C_5
REMARK    4  A    between atoms: N_12  and  C_13
REMARK    5  A    between atoms: C_13  and  C_14
REMARK                            x       y       z     vdW  Elec       q    Type
REMARK                         _______ _______ _______ _____ _____    ______ ____
ROOT
ATOM      1  C   UNL     1       5.917   4.727  18.068  0.00  0.00    +0.000 C 
ATOM      2  O   UNL     1       6.973   4.395  18.600  0.00  0.00    +0.000 OA
ATOM      3  N   UNL     1       5.856   5.233  16.786  0.00  0.00    +0.000 N 
ATOM      4  H   UNL     1       4.975   5.504  16.367  0.00  0.00    +0.000 HD
ENDROOT
BRANCH   1   5
ATOM      5  C   UNL     1       4.605   4.595  18.793  0.00  0.00    +0.000 C 
ATOM      6  C   UNL     1       4.316   3.410  19.370  0.00  0.00    +0.000 C 
BRANCH   6   7
ATOM      7  C   UNL     1       3.070   3.161  20.018  0.00  0.00    +0.000 A 
ATOM      8  C   UNL     1       2.795   2.871  21.351  0.00  0.00    +0.000 A 
ATOM      9  C   UNL     1       1.394   2.692  21.480  0.00  0.00    +0.000 A 
ATOM     10  C   UNL     1       0.876   2.873  20.222  0.00  0.00    +0.000 A 
ATOM     11  O   UNL     1       1.868   3.141  19.345  0.00  0.00    +0.000 OA
ENDBRANCH   6   7
BRANCH   5  13
ATOM     12  N   UNL     1       3.095   6.685  18.918  0.00  0.00    +0.000 NA
ATOM     13  C   UNL     1       3.745   5.723  18.874  0.00  0.00    +0.000 C 
ENDBRANCH   5  13
ENDBRANCH   1   5
BRANCH   3  14
ATOM     14  C   UNL     1       7.035   5.432  15.966  0.00  0.00    +0.000 C 
BRANCH  14  15
ATOM     15  C   UNL     1       6.855   4.858  14.582  0.00  0.00    +0.000 A 
ATOM     16  C   UNL     1       5.828   3.943  14.300  0.00  0.00    +0.000 A 
ATOM     17  C   UNL     1       5.673   3.424  13.010  0.00  0.00    +0.000 A 
ATOM     18  C   UNL     1       6.541   3.810  11.991  0.00  0.00    +0.000 A 
ATOM     19  C   UNL     1       7.566   4.714  12.259  0.00  0.00    +0.000 A 
ATOM     20  C   UNL     1       7.724   5.233  13.547  0.00  0.00    +0.000 A 
ENDBRANCH  14  15
ENDBRANCH   3  14
TORSDOF 5
ENDMDL
