MODEL 1
REMARK VINA RESULT:      -7.1      0.000      0.000
REMARK  Name = 
REMARK  11 active torsions:
REMARK  status: ('A' for Active; 'I' for Inactive)
REMARK    1  A    between atoms: C_1  and  O_2
REMARK    2  A    between atoms: O_2  and  C_3
REMARK    3  A    between atoms: C_3  and  O_4
REMARK    4  A    between atoms: O_4  and  C_5
REMARK    5  A    between atoms: C_9  and  C_10
REMARK    6  A    between atoms: C_10  and  N_11
REMARK    7  A    between atoms: C_14  and  C_15
REMARK    8  A    between atoms: C_14  and  O_16
REMARK    9  A    between atoms: O_16  and  C_17
REMARK   10  A    between atoms: C_20  and  S_21
REMARK   11  A    between atoms: S_21  and  C_22
REMARK                            x       y       z     vdW  Elec       q    Type
REMARK                         _______ _______ _______ _____ _____    ______ ____
ROOT
ATOM      1  N   UNL     1       3.208   4.197  18.087  0.00  0.00    +0.000 NA
ATOM      2  C   UNL     1       1.803   3.809  18.087  0.00  0.00    +0.000 C 
ATOM      3  C   UNL     1       1.218   4.372  19.383  0.00  0.00    +0.000 C 
ATOM      4  C   UNL     1       2.380   4.423  20.397  0.00  0.00    +0.000 C 
ATOM      5  C   UNL     1       2.299   3.182  21.305  0.00  0.00    +0.000 C 
ATOM      6  C   UNL     1       3.608   4.443  19.469  0.00  0.00    +0.000 C 
ENDROOT
BRANCH   1   7
ATOM      7  C   UNL     1       4.113   3.248  17.437  0.00  0.00    +0.000 C 
BRANCH   7  12
ATOM      8  C   UNL     1       6.909   5.448  16.090  0.00  0.00    +0.000 A 
ATOM      9  C   UNL     1       6.900   5.098  14.739  0.00  0.00    +0.000 A 
ATOM     10  C   UNL     1       6.014   4.130  14.263  0.00  0.00    +0.000 A 
ATOM     11  C   UNL     1       5.110   3.525  15.131  0.00  0.00    +0.000 A 
ATOM     12  C   UNL     1       5.076   3.897  16.479  0.00  0.00    +0.000 A 
ATOM     13  C   UNL     1       5.992   4.853  16.954  0.00  0.00    +0.000 A 
BRANCH   8  14
ATOM     14  O   UNL     1       7.808   6.416  16.440  0.00  0.00    +0.000 OA
BRANCH  14  15
ATOM     15  C   UNL     1       7.486   7.173  17.606  0.00  0.00    +0.000 C 
BRANCH  15  17
ATOM     16  C   UNL     1       8.385   9.278  18.155  0.00  0.00    +0.000 C 
ATOM     17  O   UNL     1       7.472   8.576  17.321  0.00  0.00    +0.000 OA
ENDBRANCH  15  17
ENDBRANCH  14  15
ENDBRANCH   8  14
ENDBRANCH   7  12
ENDBRANCH   1   7
BRANCH   4  18
ATOM     18  O   UNL     1       2.240   5.625  21.193  0.00  0.00    +0.000 OA
BRANCH  18  19
ATOM     19  C   UNL     1       1.893   6.804  20.582  0.00  0.00    +0.000 A 
ATOM     20  C   UNL     1       2.374   7.260  19.358  0.00  0.00    +0.000 A 
ATOM     21  C   UNL     1       1.978   8.487  18.829  0.00  0.00    +0.000 A 
ATOM     22  C   UNL     1       1.083   9.299  19.513  0.00  0.00    +0.000 A 
ATOM     23  C   UNL     1       0.574   8.838  20.732  0.00  0.00    +0.000 A 
ATOM     24  C   UNL     1       0.964   7.600  21.257  0.00  0.00    +0.000 A 
BRANCH  22  25
ATOM     25  S   UNL     1       0.748  10.891  18.785  0.00  0.00    +0.000 S 
ATOM     26  C   UNL     1      -0.972  10.708  18.275  0.00  0.00    +0.000 C 
ENDBRANCH  22  25
ENDBRANCH  18  19
ENDBRANCH   4  18
TORSDOF 8
ENDMDL
MODEL 2
REMARK VINA RESULT:      -6.8      3.024      4.627
REMARK  Name = 
REMARK  11 active torsions:
REMARK  status: ('A' for Active; 'I' for Inactive)
REMARK    1  A    between atoms: C_1  and  O_2
REMARK    2  A    between atoms: O_2  and  C_3
REMARK    3  A    between atoms: C_3  and  O_4
REMARK    4  A    between atoms: O_4  and  C_5
REMARK    5  A    between atoms: C_9  and  C_10
REMARK    6  A    between atoms: C_10  and  N_11
REMARK    7  A    between atoms: C_14  and  C_15
REMARK    8  A    between atoms: C_14  and  O_16
REMARK    9  A    between atoms: O_16  and  C_17
REMARK   10  A    between atoms: C_20  and  S_21
REMARK   11  A    between atoms: S_21  and  C_22
REMARK                            x       y       z     vdW  Elec       q    Type
REMARK                         _______ _______ _______ _____ _____    ______ ____
ROOT
ATOM      1  N   UNL     1       2.336   7.747  19.383  0.00  0.00    +0.000 NA
ATOM      2  C   UNL     1       2.359   8.327  18.046  0.00  0.00    +0.000 C 
ATOM      3  C   UNL     1       1.818   9.749  18.201  0.00  0.00    +0.000 C 
ATOM      4  C   UNL     1       0.857   9.717  19.408  0.00  0.00    +0.000 C 
ATOM      5  C   UNL     1      -0.588   9.596  18.887  0.00  0.00    +0.000 C 
ATOM      6  C   UNL     1       1.353   8.479  20.175  0.00  0.00    +0.000 C 
ENDROOT
BRANCH   1   7
ATOM      7  C   UNL     1       2.085   6.307  19.430  0.00  0.00    +0.000 C 
BRANCH   7  12
ATOM      8  C   UNL     1       5.457   4.710  18.687  0.00  0.00    +0.000 A 
ATOM      9  C   UNL     1       5.155   3.958  17.551  0.00  0.00    +0.000 A 
ATOM     10  C   UNL     1       3.857   3.938  17.038  0.00  0.00    +0.000 A 
ATOM     11  C   UNL     1       2.857   4.695  17.643  0.00  0.00    +0.000 A 
ATOM     12  C   UNL     1       3.154   5.489  18.755  0.00  0.00    +0.000 A 
ATOM     13  C   UNL     1       4.459   5.480  19.281  0.00  0.00    +0.000 A 
BRANCH   8  14
ATOM     14  O   UNL     1       6.762   4.665  19.092  0.00  0.00    +0.000 OA
BRANCH  14  15
ATOM     15  C   UNL     1       7.493   5.885  18.976  0.00  0.00    +0.000 C 
BRANCH  15  17
ATOM     16  C   UNL     1       7.653   7.782  17.593  0.00  0.00    +0.000 C 
ATOM     17  O   UNL     1       7.473   6.372  17.631  0.00  0.00    +0.000 OA
ENDBRANCH  15  17
ENDBRANCH  14  15
ENDBRANCH   8  14
ENDBRANCH   7  12
ENDBRANCH   1   7
BRANCH   4  18
ATOM     18  O   UNL     1       1.010  10.954  20.148  0.00  0.00    +0.000 OA
BRANCH  18  19
ATOM     19  C   UNL     1      -0.036  11.423  20.903  0.00  0.00    +0.000 A 
ATOM     20  C   UNL     1      -0.905  12.449  20.545  0.00  0.00    +0.000 A 
ATOM     21  C   UNL     1      -1.926  12.871  21.394  0.00  0.00    +0.000 A 
ATOM     22  C   UNL     1      -2.109  12.275  22.635  0.00  0.00    +0.000 A 
ATOM     23  C   UNL     1      -1.257  11.225  22.993  0.00  0.00    +0.000 A 
ATOM     24  C   UNL     1      -0.238  10.794  22.134  0.00  0.00    +0.000 A 
BRANCH  22  25
ATOM     25  S   UNL     1      -3.375  12.983  23.670  0.00  0.00    +0.000 S 
ATOM     26  C   UNL     1      -4.804  12.965  22.570  0.00  0.00    +0.000 C 
ENDBRANCH  22  25
ENDBRANCH  18  19
ENDBRANCH   4  18
TORSDOF 8
ENDMDL
MODEL 3
REMARK VINA RESULT:      -6.8      3.218      4.981
REMARK  Name = 
REMARK  11 active torsions:
REMARK  status: ('A' for Active; 'I' for Inactive)
REMARK    1  A    between atoms: C_1  and  O_2
REMARK    2  A    between atoms: O_2  and  C_3
REMARK    3  A    between atoms: C_3  and  O_4
REMARK    4  A    between atoms: O_4  and  C_5
REMARK    5  A    between atoms: C_9  and  C_10
REMARK    6  A    between atoms: C_10  and  N_11
REMARK    7  A    between atoms: C_14  and  C_15
REMARK    8  A    between atoms: C_14  and  O_16
REMARK    9  A    between atoms: O_16  and  C_17
REMARK   10  A    between atoms: C_20  and  S_21
REMARK   11  A    between atoms: S_21  and  C_22
REMARK                            x       y       z     vdW  Elec       q    Type
REMARK                         _______ _______ _______ _____ _____    ______ ____
ROOT
ATOM      1  N   UNL     1       2.178   7.725  19.857  0.00  0.00    +0.000 NA
ATOM      2  C   UNL     1       2.149   8.204  18.480  0.00  0.00    +0.000 C 
ATOM      3  C   UNL     1       1.648   9.648  18.554  0.00  0.00    +0.000 C 
ATOM      4  C   UNL     1       0.745   9.729  19.803  0.00  0.00    +0.000 C 
ATOM      5  C   UNL     1      -0.725   9.606  19.360  0.00  0.00    +0.000 C 
ATOM      6  C   UNL     1       1.250   8.538  20.637  0.00  0.00    +0.000 C 
ENDROOT
BRANCH   1   7
ATOM      7  C   UNL     1       1.898   6.299  20.022  0.00  0.00    +0.000 C 
BRANCH   7  12
ATOM      8  C   UNL     1       4.960   4.528  18.622  0.00  0.00    +0.000 A 
ATOM      9  C   UNL     1       4.387   3.760  17.608  0.00  0.00    +0.000 A 
ATOM     10  C   UNL     1       3.008   3.787  17.391  0.00  0.00    +0.000 A 
ATOM     11  C   UNL     1       2.196   4.606  18.170  0.00  0.00    +0.000 A 
ATOM     12  C   UNL     1       2.760   5.414  19.162  0.00  0.00    +0.000 A 
ATOM     13  C   UNL     1       4.147   5.359  19.391  0.00  0.00    +0.000 A 
BRANCH   8  14
ATOM     14  O   UNL     1       6.319   4.433  18.735  0.00  0.00    +0.000 OA
BRANCH  14  15
ATOM     15  C   UNL     1       7.055   4.543  17.517  0.00  0.00    +0.000 C 
BRANCH  15  17
ATOM     16  C   UNL     1       7.889   6.406  18.690  0.00  0.00    +0.000 C 
ATOM     17  O   UNL     1       7.679   5.826  17.408  0.00  0.00    +0.000 OA
ENDBRANCH  15  17
ENDBRANCH  14  15
ENDBRANCH   8  14
ENDBRANCH   7  12
ENDBRANCH   1   7
BRANCH   4  18
ATOM     18  O   UNL     1       0.960  11.012  20.441  0.00  0.00    +0.000 OA
BRANCH  18  19
ATOM     19  C   UNL     1      -0.056  11.587  21.162  0.00  0.00    +0.000 A 
ATOM     20  C   UNL     1      -0.552  11.131  22.380  0.00  0.00    +0.000 A 
ATOM     21  C   UNL     1      -1.607  11.774  23.026  0.00  0.00    +0.000 A 
ATOM     22  C   UNL     1      -2.200  12.899  22.469  0.00  0.00    +0.000 A 
ATOM     23  C   UNL     1      -1.691  13.381  21.258  0.00  0.00    +0.000 A 
ATOM     24  C   UNL     1      -0.624  12.741  20.616  0.00  0.00    +0.000 A 
BRANCH  22  25
ATOM     25  S   UNL     1      -3.611  13.557  23.336  0.00  0.00    +0.000 S 
ATOM     26  C   UNL     1      -2.824  14.502  24.657  0.00  0.00    +0.000 C 
ENDBRANCH  22  25
ENDBRANCH  18  19
ENDBRANCH   4  18
TORSDOF 8
ENDMDL
MODEL 4
REMARK VINA RESULT:      -6.6      3.172      5.073
REMARK  Name = 
REMARK  11 active torsions:
REMARK  status: ('A' for Active; 'I' for Inactive)
REMARK    1  A    between atoms: C_1  and  O_2
REMARK    2  A    between atoms: O_2  and  C_3
REMARK    3  A    between atoms: C_3  and  O_4
REMARK    4  A    between atoms: O_4  and  C_5
REMARK    5  A    between atoms: C_9  and  C_10
REMARK    6  A    between atoms: C_10  and  N_11
REMARK    7  A    between atoms: C_14  and  C_15
REMARK    8  A    between atoms: C_14  and  O_16
REMARK    9  A    between atoms: O_16  and  C_17
REMARK   10  A    between atoms: C_20  and  S_21
REMARK   11  A    between atoms: S_21  and  C_22
REMARK                            x       y       z     vdW  Elec       q    Type
REMARK                         _______ _______ _______ _____ _____    ______ ____
ROOT
ATOM      1  N   UNL     1       2.119   7.733  19.942  0.00  0.00    +0.000 NA
ATOM      2  C   UNL     1       2.055   8.207  18.565  0.00  0.00    +0.000 C 
ATOM      3  C   UNL     1       1.558   9.651  18.646  0.00  0.00    +0.000 C 
ATOM      4  C   UNL     1       0.688   9.739  19.917  0.00  0.00    +0.000 C 
ATOM      5  C   UNL     1      -0.793   9.617  19.513  0.00  0.00    +0.000 C 
ATOM      6  C   UNL     1       1.212   8.551  20.742  0.00  0.00    +0.000 C 
ENDROOT
BRANCH   1   7
ATOM      7  C   UNL     1       1.841   6.308  20.120  0.00  0.00    +0.000 C 
BRANCH   7  12
ATOM      8  C   UNL     1       4.624   4.678  18.102  0.00  0.00    +0.000 A 
ATOM      9  C   UNL     1       3.896   3.791  17.307  0.00  0.00    +0.000 A 
ATOM     10  C   UNL     1       2.510   3.693  17.439  0.00  0.00    +0.000 A 
ATOM     11  C   UNL     1       1.838   4.504  18.350  0.00  0.00    +0.000 A 
ATOM     12  C   UNL     1       2.547   5.429  19.122  0.00  0.00    +0.000 A 
ATOM     13  C   UNL     1       3.947   5.500  19.001  0.00  0.00    +0.000 A 
BRANCH   8  14
ATOM     14  O   UNL     1       5.971   4.698  17.877  0.00  0.00    +0.000 OA
BRANCH  14  15
ATOM     15  C   UNL     1       6.494   5.909  17.330  0.00  0.00    +0.000 C 
BRANCH  15  17
ATOM     16  C   UNL     1       7.075   4.763  15.358  0.00  0.00    +0.000 C 
ATOM     17  O   UNL     1       6.419   5.902  15.901  0.00  0.00    +0.000 OA
ENDBRANCH  15  17
ENDBRANCH  14  15
ENDBRANCH   8  14
ENDBRANCH   7  12
ENDBRANCH   1   7
BRANCH   4  18
ATOM     18  O   UNL     1       0.922  11.024  20.544  0.00  0.00    +0.000 OA
BRANCH  18  19
ATOM     19  C   UNL     1      -0.097  11.636  21.232  0.00  0.00    +0.000 A 
ATOM     20  C   UNL     1      -0.653  11.194  22.429  0.00  0.00    +0.000 A 
ATOM     21  C   UNL     1      -1.704  11.875  23.041  0.00  0.00    +0.000 A 
ATOM     22  C   UNL     1      -2.232  13.025  22.470  0.00  0.00    +0.000 A 
ATOM     23  C   UNL     1      -1.662  13.492  21.280  0.00  0.00    +0.000 A 
ATOM     24  C   UNL     1      -0.599  12.813  20.672  0.00  0.00    +0.000 A 
BRANCH  22  25
ATOM     25  S   UNL     1      -3.647  13.733  23.290  0.00  0.00    +0.000 S 
ATOM     26  C   UNL     1      -4.096  12.424  24.446  0.00  0.00    +0.000 C 
ENDBRANCH  22  25
ENDBRANCH  18  19
ENDBRANCH   4  18
TORSDOF 8
ENDMDL
MODEL 5
REMARK VINA RESULT:      -6.6      3.430      5.735
REMARK  Name = 
REMARK  11 active torsions:
REMARK  status: ('A' for Active; 'I' for Inactive)
REMARK    1  A    between atoms: C_1  and  O_2
REMARK    2  A    between atoms: O_2  and  C_3
REMARK    3  A    between atoms: C_3  and  O_4
REMARK    4  A    between atoms: O_4  and  C_5
REMARK    5  A    between atoms: C_9  and  C_10
REMARK    6  A    between atoms: C_10  and  N_11
REMARK    7  A    between atoms: C_14  and  C_15
REMARK    8  A    between atoms: C_14  and  O_16
REMARK    9  A    between atoms: O_16  and  C_17
REMARK   10  A    between atoms: C_20  and  S_21
REMARK   11  A    between atoms: S_21  and  C_22
REMARK                            x       y       z     vdW  Elec       q    Type
REMARK                         _______ _______ _______ _____ _____    ______ ____
ROOT
ATOM      1  N   UNL     1       2.346   8.394  18.688  0.00  0.00    +0.000 NA
ATOM      2  C   UNL     1       2.010   9.438  17.727  0.00  0.00    +0.000 C 
ATOM      3  C   UNL     1       1.426  10.586  18.551  0.00  0.00    +0.000 C 
ATOM      4  C   UNL     1       0.783   9.942  19.798  0.00  0.00    +0.000 C 
ATOM      5  C   UNL     1      -0.732   9.802  19.557  0.00  0.00    +0.000 C 
ATOM      6  C   UNL     1       1.532   8.600  19.881  0.00  0.00    +0.000 C 
ENDROOT
BRANCH   1   7
ATOM      7  C   UNL     1       2.214   7.026  18.187  0.00  0.00    +0.000 C 
BRANCH   7  12
ATOM      8  C   UNL     1       4.788   4.336  18.970  0.00  0.00    +0.000 A 
ATOM      9  C   UNL     1       5.876   4.779  18.218  0.00  0.00    +0.000 A 
ATOM     10  C   UNL     1       5.776   5.928  17.432  0.00  0.00    +0.000 A 
ATOM     11  C   UNL     1       4.592   6.660  17.416  0.00  0.00    +0.000 A 
ATOM     12  C   UNL     1       3.506   6.254  18.198  0.00  0.00    +0.000 A 
ATOM     13  C   UNL     1       3.609   5.079  18.965  0.00  0.00    +0.000 A 
BRANCH   8  14
ATOM     14  O   UNL     1       5.004   3.208  19.710  0.00  0.00    +0.000 OA
BRANCH  14  15
ATOM     15  C   UNL     1       3.851   2.418  19.996  0.00  0.00    +0.000 C 
BRANCH  15  17
ATOM     16  C   UNL     1       2.140   2.709  21.586  0.00  0.00    +0.000 C 
ATOM     17  O   UNL     1       3.527   2.464  21.389  0.00  0.00    +0.000 OA
ENDBRANCH  15  17
ENDBRANCH  14  15
ENDBRANCH   8  14
ENDBRANCH   7  12
ENDBRANCH   1   7
BRANCH   4  18
ATOM     18  O   UNL     1       1.022  10.808  20.934  0.00  0.00    +0.000 OA
BRANCH  18  19
ATOM     19  C   UNL     1      -0.043  11.379  21.584  0.00  0.00    +0.000 A 
ATOM     20  C   UNL     1      -0.756  10.813  22.637  0.00  0.00    +0.000 A 
ATOM     21  C   UNL     1      -1.842  11.465  23.218  0.00  0.00    +0.000 A 
ATOM     22  C   UNL     1      -2.249  12.711  22.761  0.00  0.00    +0.000 A 
ATOM     23  C   UNL     1      -1.522  13.301  21.720  0.00  0.00    +0.000 A 
ATOM     24  C   UNL     1      -0.424  12.649  21.144  0.00  0.00    +0.000 A 
BRANCH  22  25
ATOM     25  S   UNL     1      -3.719  13.384  23.510  0.00  0.00    +0.000 S 
ATOM     26  C   UNL     1      -3.025  14.433  24.803  0.00  0.00    +0.000 C 
ENDBRANCH  22  25
ENDBRANCH  18  19
ENDBRANCH   4  18
TORSDOF 8
ENDMDL
MODEL 6
REMARK VINA RESULT:      -6.6      0.548      1.078
REMARK  Name = 
REMARK  11 active torsions:
REMARK  status: ('A' for Active; 'I' for Inactive)
REMARK    1  A    between atoms: C_1  and  O_2
REMARK    2  A    between atoms: O_2  and  C_3
REMARK    3  A    between atoms: C_3  and  O_4
REMARK    4  A    between atoms: O_4  and  C_5
REMARK    5  A    between atoms: C_9  and  C_10
REMARK    6  A    between atoms: C_10  and  N_11
REMARK    7  A    between atoms: C_14  and  C_15
REMARK    8  A    between atoms: C_14  and  O_16
REMARK    9  A    between atoms: O_16  and  C_17
REMARK   10  A    between atoms: C_20  and  S_21
REMARK   11  A    between atoms: S_21  and  C_22
REMARK                            x       y       z     vdW  Elec       q    Type
REMARK                         _______ _______ _______ _____ _____    ______ ____
ROOT
ATOM      1  N   UNL     1       3.161   3.934  18.135  0.00  0.00    +0.000 NA
ATOM      2  C   UNL     1       1.791   3.435  18.160  0.00  0.00    +0.000 C 
ATOM      3  C   UNL     1       1.183   3.959  19.462  0.00  0.00    +0.000 C 
ATOM      4  C   UNL     1       2.353   4.109  20.457  0.00  0.00    +0.000 C 
ATOM      5  C   UNL     1       2.386   2.872  21.374  0.00  0.00    +0.000 C 
ATOM      6  C   UNL     1       3.561   4.220  19.509  0.00  0.00    +0.000 C 
ENDROOT
BRANCH   1   7
ATOM      7  C   UNL     1       4.127   3.056  17.476  0.00  0.00    +0.000 C 
BRANCH   7  12
ATOM      8  C   UNL     1       6.768   5.489  16.218  0.00  0.00    +0.000 A 
ATOM      9  C   UNL     1       6.840   5.134  14.870  0.00  0.00    +0.000 A 
ATOM     10  C   UNL     1       6.061   4.091  14.368  0.00  0.00    +0.000 A 
ATOM     11  C   UNL     1       5.181   3.411  15.207  0.00  0.00    +0.000 A 
ATOM     12  C   UNL     1       5.065   3.784  16.550  0.00  0.00    +0.000 A 
ATOM     13  C   UNL     1       5.875   4.819  17.052  0.00  0.00    +0.000 A 
BRANCH   8  14
ATOM     14  O   UNL     1       7.565   6.533  16.594  0.00  0.00    +0.000 OA
BRANCH  14  15
ATOM     15  C   UNL     1       7.266   7.121  17.860  0.00  0.00    +0.000 C 
BRANCH  15  17
ATOM     16  C   UNL     1       8.220   9.268  17.994  0.00  0.00    +0.000 C 
ATOM     17  O   UNL     1       8.368   7.897  18.341  0.00  0.00    +0.000 OA
ENDBRANCH  15  17
ENDBRANCH  14  15
ENDBRANCH   8  14
ENDBRANCH   7  12
ENDBRANCH   1   7
BRANCH   4  18
ATOM     18  O   UNL     1       2.130   5.302  21.249  0.00  0.00    +0.000 OA
BRANCH  18  19
ATOM     19  C   UNL     1       1.939   6.506  20.618  0.00  0.00    +0.000 A 
ATOM     20  C   UNL     1       1.183   7.569  21.102  0.00  0.00    +0.000 A 
ATOM     21  C   UNL     1       1.030   8.748  20.374  0.00  0.00    +0.000 A 
ATOM     22  C   UNL     1       1.633   8.898  19.132  0.00  0.00    +0.000 A 
ATOM     23  C   UNL     1       2.417   7.844  18.649  0.00  0.00    +0.000 A 
ATOM     24  C   UNL     1       2.579   6.665  19.387  0.00  0.00    +0.000 A 
BRANCH  22  25
ATOM     25  S   UNL     1       1.266  10.404  18.255  0.00  0.00    +0.000 S 
ATOM     26  C   UNL     1      -0.160  11.025  19.170  0.00  0.00    +0.000 C 
ENDBRANCH  22  25
ENDBRANCH  18  19
ENDBRANCH   4  18
TORSDOF 8
ENDMDL
MODEL 7
REMARK VINA RESULT:      -6.5      3.463      5.646
REMARK  Name = 
REMARK  11 active torsions:
REMARK  status: ('A' for Active; 'I' for Inactive)
REMARK    1  A    between atoms: C_1  and  O_2
REMARK    2  A    between atoms: O_2  and  C_3
REMARK    3  A    between atoms: C_3  and  O_4
REMARK    4  A    between atoms: O_4  and  C_5
REMARK    5  A    between atoms: C_9  and  C_10
REMARK    6  A    between atoms: C_10  and  N_11
REMARK    7  A    between atoms: C_14  and  C_15
REMARK    8  A    between atoms: C_14  and  O_16
REMARK    9  A    between atoms: O_16  and  C_17
REMARK   10  A    between atoms: C_20  and  S_21
REMARK   11  A    between atoms: S_21  and  C_22
REMARK                            x       y       z     vdW  Elec       q    Type
REMARK                         _______ _______ _______ _____ _____    ______ ____
ROOT
ATOM      1  N   UNL     1       2.306   8.531  18.762  0.00  0.00    +0.000 NA
ATOM      2  C   UNL     1       2.090   9.618  17.816  0.00  0.00    +0.000 C 
ATOM      3  C   UNL     1       1.469  10.756  18.627  0.00  0.00    +0.000 C 
ATOM      4  C   UNL     1       0.697  10.090  19.786  0.00  0.00    +0.000 C 
ATOM      5  C   UNL     1      -0.794  10.010  19.406  0.00  0.00    +0.000 C 
ATOM      6  C   UNL     1       1.394   8.722  19.885  0.00  0.00    +0.000 C 
ENDROOT
BRANCH   1   7
ATOM      7  C   UNL     1       2.178   7.186  18.199  0.00  0.00    +0.000 C 
BRANCH   7  12
ATOM      8  C   UNL     1       4.886   4.586  18.813  0.00  0.00    +0.000 A 
ATOM      9  C   UNL     1       5.884   5.027  17.943  0.00  0.00    +0.000 A 
ATOM     10  C   UNL     1       5.678   6.145  17.134  0.00  0.00    +0.000 A 
ATOM     11  C   UNL     1       4.479   6.848  17.210  0.00  0.00    +0.000 A 
ATOM     12  C   UNL     1       3.485   6.446  18.109  0.00  0.00    +0.000 A 
ATOM     13  C   UNL     1       3.693   5.301  18.900  0.00  0.00    +0.000 A 
BRANCH   8  14
ATOM     14  O   UNL     1       5.204   3.491  19.566  0.00  0.00    +0.000 OA
BRANCH  14  15
ATOM     15  C   UNL     1       4.132   2.590  19.840  0.00  0.00    +0.000 C 
BRANCH  15  17
ATOM     16  C   UNL     1       2.302   1.920  18.520  0.00  0.00    +0.000 C 
ATOM     17  O   UNL     1       3.717   1.906  18.653  0.00  0.00    +0.000 OA
ENDBRANCH  15  17
ENDBRANCH  14  15
ENDBRANCH   8  14
ENDBRANCH   7  12
ENDBRANCH   1   7
BRANCH   4  18
ATOM     18  O   UNL     1       0.859  10.907  20.972  0.00  0.00    +0.000 OA
BRANCH  18  19
ATOM     19  C   UNL     1      -0.252  11.408  21.603  0.00  0.00    +0.000 A 
ATOM     20  C   UNL     1      -0.952  12.553  21.235  0.00  0.00    +0.000 A 
ATOM     21  C   UNL     1      -2.060  12.996  21.956  0.00  0.00    +0.000 A 
ATOM     22  C   UNL     1      -2.502  12.302  23.075  0.00  0.00    +0.000 A 
ATOM     23  C   UNL     1      -1.820  11.134  23.437  0.00  0.00    +0.000 A 
ATOM     24  C   UNL     1      -0.715  10.684  22.705  0.00  0.00    +0.000 A 
BRANCH  22  25
ATOM     25  S   UNL     1      -3.854  13.035  23.974  0.00  0.00    +0.000 S 
ATOM     26  C   UNL     1      -5.147  13.088  22.716  0.00  0.00    +0.000 C 
ENDBRANCH  22  25
ENDBRANCH  18  19
ENDBRANCH   4  18
TORSDOF 8
ENDMDL
MODEL 8
REMARK VINA RESULT:      -6.5      3.195      4.870
REMARK  Name = 
REMARK  11 active torsions:
REMARK  status: ('A' for Active; 'I' for Inactive)
REMARK    1  A    between atoms: C_1  and  O_2
REMARK    2  A    between atoms: O_2  and  C_3
REMARK    3  A    between atoms: C_3  and  O_4
REMARK    4  A    between atoms: O_4  and  C_5
REMARK    5  A    between atoms: C_9  and  C_10
REMARK    6  A    between atoms: C_10  and  N_11
REMARK    7  A    between atoms: C_14  and  C_15
REMARK    8  A    between atoms: C_14  and  O_16
REMARK    9  A    between atoms: O_16  and  C_17
REMARK   10  A    between atoms: C_20  and  S_21
REMARK   11  A    between atoms: S_21  and  C_22
REMARK                            x       y       z     vdW  Elec       q    Type
REMARK                         _______ _______ _______ _____ _____    ______ ____
ROOT
ATOM      1  N   UNL     1       2.223   7.858  19.365  0.00  0.00    +0.000 NA
ATOM      2  C   UNL     1       1.994   8.381  18.024  0.00  0.00    +0.000 C 
ATOM      3  C   UNL     1       1.483   9.809  18.217  0.00  0.00    +0.000 C 
ATOM      4  C   UNL     1       0.761   9.830  19.581  0.00  0.00    +0.000 C 
ATOM      5  C   UNL     1      -0.754   9.689  19.342  0.00  0.00    +0.000 C 
ATOM      6  C   UNL     1       1.399   8.625  20.294  0.00  0.00    +0.000 C 
ENDROOT
BRANCH   1   7
ATOM      7  C   UNL     1       1.994   6.421  19.518  0.00  0.00    +0.000 C 
BRANCH   7  12
ATOM      8  C   UNL     1       4.818   5.199  17.281  0.00  0.00    +0.000 A 
ATOM      9  C   UNL     1       4.259   4.034  16.754  0.00  0.00    +0.000 A 
ATOM     10  C   UNL     1       2.983   3.622  17.140  0.00  0.00    +0.000 A 
ATOM     11  C   UNL     1       2.244   4.389  18.036  0.00  0.00    +0.000 A 
ATOM     12  C   UNL     1       2.773   5.582  18.540  0.00  0.00    +0.000 A 
ATOM     13  C   UNL     1       4.071   5.974  18.166  0.00  0.00    +0.000 A 
BRANCH   8  14
ATOM     14  O   UNL     1       6.067   5.511  16.822  0.00  0.00    +0.000 OA
BRANCH  14  15
ATOM     15  C   UNL     1       7.138   4.725  17.343  0.00  0.00    +0.000 C 
BRANCH  15  17
ATOM     16  C   UNL     1       7.931   5.716  19.325  0.00  0.00    +0.000 C 
ATOM     17  O   UNL     1       7.107   4.697  18.774  0.00  0.00    +0.000 OA
ENDBRANCH  15  17
ENDBRANCH  14  15
ENDBRANCH   8  14
ENDBRANCH   7  12
ENDBRANCH   1   7
BRANCH   4  18
ATOM     18  O   UNL     1       1.041  11.096  20.227  0.00  0.00    +0.000 OA
BRANCH  18  19
ATOM     19  C   UNL     1       0.044  11.735  20.922  0.00  0.00    +0.000 A 
ATOM     20  C   UNL     1      -0.665  12.852  20.488  0.00  0.00    +0.000 A 
ATOM     21  C   UNL     1      -1.649  13.444  21.279  0.00  0.00    +0.000 A 
ATOM     22  C   UNL     1      -1.953  12.935  22.534  0.00  0.00    +0.000 A 
ATOM     23  C   UNL     1      -1.263  11.796  22.968  0.00  0.00    +0.000 A 
ATOM     24  C   UNL     1      -0.284  11.195  22.168  0.00  0.00    +0.000 A 
BRANCH  22  25
ATOM     25  S   UNL     1      -3.145  13.852  23.489  0.00  0.00    +0.000 S 
ATOM     26  C   UNL     1      -4.043  12.529  24.325  0.00  0.00    +0.000 C 
ENDBRANCH  22  25
ENDBRANCH  18  19
ENDBRANCH   4  18
TORSDOF 8
ENDMDL
MODEL 9
REMARK VINA RESULT:      -6.5      3.046      4.496
REMARK  Name = 
REMARK  11 active torsions:
REMARK  status: ('A' for Active; 'I' for Inactive)
REMARK    1  A    between atoms: C_1  and  O_2
REMARK    2  A    between atoms: O_2  and  C_3
REMARK    3  A    between atoms: C_3  and  O_4
REMARK    4  A    between atoms: O_4  and  C_5
REMARK    5  A    between atoms: C_9  and  C_10
REMARK    6  A    between atoms: C_10  and  N_11
REMARK    7  A    between atoms: C_14  and  C_15
REMARK    8  A    between atoms: C_14  and  O_16
REMARK    9  A    between atoms: O_16  and  C_17
REMARK   10  A    between atoms: C_20  and  S_21
REMARK   11  A    between atoms: S_21  and  C_22
REMARK                            x       y       z     vdW  Elec       q    Type
REMARK                         _______ _______ _______ _____ _____    ______ ____
ROOT
ATOM      1  N   UNL     1       2.356   7.904  18.772  0.00  0.00    +0.000 NA
ATOM      2  C   UNL     1       1.989   8.822  17.701  0.00  0.00    +0.000 C 
ATOM      3  C   UNL     1       1.489  10.090  18.396  0.00  0.00    +0.000 C 
ATOM      4  C   UNL     1       0.909   9.640  19.753  0.00  0.00    +0.000 C 
ATOM      5  C   UNL     1      -0.622   9.523  19.623  0.00  0.00    +0.000 C 
ATOM      6  C   UNL     1       1.624   8.295  19.972  0.00  0.00    +0.000 C 
ENDROOT
BRANCH   1   7
ATOM      7  C   UNL     1       2.155   6.487  18.468  0.00  0.00    +0.000 C 
BRANCH   7  12
ATOM      8  C   UNL     1       5.589   6.035  16.894  0.00  0.00    +0.000 A 
ATOM      9  C   UNL     1       5.548   4.685  16.543  0.00  0.00    +0.000 A 
ATOM     10  C   UNL     1       4.427   3.908  16.838  0.00  0.00    +0.000 A 
ATOM     11  C   UNL     1       3.324   4.485  17.464  0.00  0.00    +0.000 A 
ATOM     12  C   UNL     1       3.332   5.846  17.783  0.00  0.00    +0.000 A 
ATOM     13  C   UNL     1       4.478   6.614  17.506  0.00  0.00    +0.000 A 
BRANCH   8  14
ATOM     14  O   UNL     1       6.730   6.699  16.544  0.00  0.00    +0.000 OA
BRANCH  14  15
ATOM     15  C   UNL     1       7.423   7.352  17.607  0.00  0.00    +0.000 C 
BRANCH  15  17
ATOM     16  C   UNL     1       8.490   9.334  18.295  0.00  0.00    +0.000 C 
ATOM     17  O   UNL     1       7.799   8.682  17.236  0.00  0.00    +0.000 OA
ENDBRANCH  15  17
ENDBRANCH  14  15
ENDBRANCH   8  14
ENDBRANCH   7  12
ENDBRANCH   1   7
BRANCH   4  18
ATOM     18  O   UNL     1       1.242  10.639  20.747  0.00  0.00    +0.000 OA
BRANCH  18  19
ATOM     19  C   UNL     1       0.236  11.339  21.366  0.00  0.00    +0.000 A 
ATOM     20  C   UNL     1      -0.521  10.896  22.446  0.00  0.00    +0.000 A 
ATOM     21  C   UNL     1      -1.540  11.675  22.992  0.00  0.00    +0.000 A 
ATOM     22  C   UNL     1      -1.834  12.927  22.469  0.00  0.00    +0.000 A 
ATOM     23  C   UNL     1      -1.061  13.392  21.399  0.00  0.00    +0.000 A 
ATOM     24  C   UNL     1      -0.029  12.614  20.859  0.00  0.00    +0.000 A 
BRANCH  22  25
ATOM     25  S   UNL     1      -3.233  13.770  23.181  0.00  0.00    +0.000 S 
ATOM     26  C   UNL     1      -3.888  12.516  24.299  0.00  0.00    +0.000 C 
ENDBRANCH  22  25
ENDBRANCH  18  19
ENDBRANCH   4  18
TORSDOF 8
ENDMDL
