MODEL 1
REMARK VINA RESULT:      -8.2      0.000      0.000
REMARK  Name = 
REMARK  6 active torsions:
REMARK  status: ('A' for Active; 'I' for Inactive)
REMARK    1  A    between atoms: C_1  and  C_2
REMARK    2  A    between atoms: C_2  and  O_3
REMARK    3  A    between atoms: O_3  and  C_4
REMARK    4  A    between atoms: C_7  and  N_8
REMARK    5  A    between atoms: C_9  and  C_11
REMARK    6  A    between atoms: C_11  and  N_12
REMARK                            x       y       z     vdW  Elec       q    Type
REMARK                         _______ _______ _______ _____ _____    ______ ____
ROOT
ATOM      1  N   UNL     1       4.757   4.492  18.815  0.00  0.00    +0.000 N 
ATOM      2  C   UNL     1       5.812   5.371  18.901  0.00  0.00    +0.000 A 
ATOM      3  N   UNL     1       6.587   5.684  17.919  0.00  0.00    +0.000 NA
ATOM      4  C   UNL     1       6.322   5.098  16.675  0.00  0.00    +0.000 A 
ATOM      5  N   UNL     1       7.156   5.462  15.676  0.00  0.00    +0.000 NA
ATOM      6  C   UNL     1       6.948   4.923  14.445  0.00  0.00    +0.000 A 
ATOM      7  C   UNL     1       5.910   4.022  14.177  0.00  0.00    +0.000 A 
ATOM      8  C   UNL     1       5.070   3.655  15.225  0.00  0.00    +0.000 A 
ATOM      9  C   UNL     1       5.279   4.211  16.480  0.00  0.00    +0.000 A 
ATOM     10  C   UNL     1       4.409   3.903  17.615  0.00  0.00    +0.000 A 
ATOM     11  O   UNL     1       3.418   3.190  17.473  0.00  0.00    +0.000 OA
ATOM     12  C   UNL     1       5.717   3.394  12.825  0.00  0.00    +0.000 C 
ATOM     13  C   UNL     1       6.419   4.160  11.709  0.00  0.00    +0.000 C 
ATOM     14  C   UNL     1       7.851   4.485  12.117  0.00  0.00    +0.000 C 
ATOM     15  C   UNL     1       7.858   5.403  13.340  0.00  0.00    +0.000 C 
ENDROOT
BRANCH   1  16
ATOM     16  C   UNL     1       3.896   4.251  19.960  0.00  0.00    +0.000 C 
BRANCH  16  18
ATOM     17  N   UNL     1       3.055   6.552  19.846  0.00  0.00    +0.000 N 
ATOM     18  C   UNL     1       2.712   5.206  19.856  0.00  0.00    +0.000 C 
ATOM     19  O   UNL     1       1.575   4.739  19.864  0.00  0.00    +0.000 OA
ATOM     20  H   UNL     1       4.041   6.780  19.963  0.00  0.00    +0.000 HD
BRANCH  17  24
ATOM     21  C   UNL     1       0.393   9.830  19.463  0.00  0.00    +0.000 A 
ATOM     22  C   UNL     1       0.482   9.143  20.669  0.00  0.00    +0.000 A 
ATOM     23  C   UNL     1       1.359   8.066  20.815  0.00  0.00    +0.000 A 
ATOM     24  C   UNL     1       2.159   7.645  19.753  0.00  0.00    +0.000 A 
ATOM     25  C   UNL     1       2.057   8.329  18.533  0.00  0.00    +0.000 A 
ATOM     26  C   UNL     1       1.170   9.411  18.386  0.00  0.00    +0.000 A 
BRANCH  21  27
ATOM     27  O   UNL     1      -0.495  10.866  19.465  0.00  0.00    +0.000 OA
BRANCH  27  29
ATOM     28  C   UNL     1      -2.298  10.227  18.054  0.00  0.00    +0.000 C 
ATOM     29  C   UNL     1      -1.123  11.175  18.223  0.00  0.00    +0.000 C 
ENDBRANCH  27  29
ENDBRANCH  21  27
ENDBRANCH  17  24
ENDBRANCH  16  18
ENDBRANCH   1  16
TORSDOF 5
ENDMDL
MODEL 2
REMARK VINA RESULT:      -8.0      3.922      6.493
REMARK  Name = 
REMARK  6 active torsions:
REMARK  status: ('A' for Active; 'I' for Inactive)
REMARK    1  A    between atoms: C_1  and  C_2
REMARK    2  A    between atoms: C_2  and  O_3
REMARK    3  A    between atoms: O_3  and  C_4
REMARK    4  A    between atoms: C_7  and  N_8
REMARK    5  A    between atoms: C_9  and  C_11
REMARK    6  A    between atoms: C_11  and  N_12
REMARK                            x       y       z     vdW  Elec       q    Type
REMARK                         _______ _______ _______ _____ _____    ______ ____
ROOT
ATOM      1  N   UNL     1       1.502   9.530  19.209  0.00  0.00    +0.000 N 
ATOM      2  C   UNL     1       1.170   9.175  20.496  0.00  0.00    +0.000 A 
ATOM      3  N   UNL     1       1.266   7.981  20.975  0.00  0.00    +0.000 NA
ATOM      4  C   UNL     1       1.761   6.984  20.127  0.00  0.00    +0.000 A 
ATOM      5  N   UNL     1       1.850   5.752  20.675  0.00  0.00    +0.000 NA
ATOM      6  C   UNL     1       2.322   4.741  19.897  0.00  0.00    +0.000 A 
ATOM      7  C   UNL     1       2.721   4.930  18.568  0.00  0.00    +0.000 A 
ATOM      8  C   UNL     1       2.610   6.207  18.023  0.00  0.00    +0.000 A 
ATOM      9  C   UNL     1       2.135   7.239  18.820  0.00  0.00    +0.000 A 
ATOM     10  C   UNL     1       2.032   8.611  18.325  0.00  0.00    +0.000 A 
ATOM     11  O   UNL     1       2.432   8.907  17.201  0.00  0.00    +0.000 OA
ATOM     12  C   UNL     1       3.195   3.798  17.700  0.00  0.00    +0.000 C 
ATOM     13  C   UNL     1       3.642   2.581  18.503  0.00  0.00    +0.000 C 
ATOM     14  C   UNL     1       2.602   2.243  19.565  0.00  0.00    +0.000 C 
ATOM     15  C   UNL     1       2.470   3.394  20.563  0.00  0.00    +0.000 C 
ENDROOT
BRANCH   1  16
ATOM     16  C   UNL     1       1.424  10.915  18.778  0.00  0.00    +0.000 C 
BRANCH  16  18
ATOM     17  N   UNL     1      -0.837  10.929  17.827  0.00  0.00    +0.000 N 
ATOM     18  C   UNL     1      -0.034  11.350  18.880  0.00  0.00    +0.000 C 
ATOM     19  O   UNL     1      -0.369  12.077  19.813  0.00  0.00    +0.000 OA
ATOM     20  H   UNL     1      -0.380  10.427  17.068  0.00  0.00    +0.000 HD
BRANCH  17  24
ATOM     21  C   UNL     1      -4.974  11.666  17.265  0.00  0.00    +0.000 A 
ATOM     22  C   UNL     1      -4.406  11.813  18.526  0.00  0.00    +0.000 A 
ATOM     23  C   UNL     1      -3.044  11.582  18.728  0.00  0.00    +0.000 A 
ATOM     24  C   UNL     1      -2.220  11.187  17.673  0.00  0.00    +0.000 A 
ATOM     25  C   UNL     1      -2.797  11.026  16.405  0.00  0.00    +0.000 A 
ATOM     26  C   UNL     1      -4.171  11.254  16.204  0.00  0.00    +0.000 A 
BRANCH  21  27
ATOM     27  O   UNL     1      -6.311  11.935  17.210  0.00  0.00    +0.000 OA
BRANCH  27  29
ATOM     28  C   UNL     1      -6.851  14.201  16.738  0.00  0.00    +0.000 C 
ATOM     29  C   UNL     1      -6.748  13.144  17.825  0.00  0.00    +0.000 C 
ENDBRANCH  27  29
ENDBRANCH  21  27
ENDBRANCH  17  24
ENDBRANCH  16  18
ENDBRANCH   1  16
TORSDOF 5
ENDMDL
MODEL 3
REMARK VINA RESULT:      -7.9      5.538      7.523
REMARK  Name = 
REMARK  6 active torsions:
REMARK  status: ('A' for Active; 'I' for Inactive)
REMARK    1  A    between atoms: C_1  and  C_2
REMARK    2  A    between atoms: C_2  and  O_3
REMARK    3  A    between atoms: O_3  and  C_4
REMARK    4  A    between atoms: C_7  and  N_8
REMARK    5  A    between atoms: C_9  and  C_11
REMARK    6  A    between atoms: C_11  and  N_12
REMARK                            x       y       z     vdW  Elec       q    Type
REMARK                         _______ _______ _______ _____ _____    ______ ____
ROOT
ATOM      1  N   UNL     1       7.129   6.717  17.923  0.00  0.00    +0.000 N 
ATOM      2  C   UNL     1       7.491   6.076  19.086  0.00  0.00    +0.000 A 
ATOM      3  N   UNL     1       6.727   5.276  19.749  0.00  0.00    +0.000 NA
ATOM      4  C   UNL     1       5.448   5.032  19.237  0.00  0.00    +0.000 A 
ATOM      5  N   UNL     1       4.688   4.181  19.962  0.00  0.00    +0.000 NA
ATOM      6  C   UNL     1       3.434   3.907  19.513  0.00  0.00    +0.000 A 
ATOM      7  C   UNL     1       2.910   4.461  18.339  0.00  0.00    +0.000 A 
ATOM      8  C   UNL     1       3.709   5.342  17.614  0.00  0.00    +0.000 A 
ATOM      9  C   UNL     1       4.992   5.615  18.069  0.00  0.00    +0.000 A 
ATOM     10  C   UNL     1       5.899   6.498  17.335  0.00  0.00    +0.000 A 
ATOM     11  O   UNL     1       5.574   6.972  16.249  0.00  0.00    +0.000 OA
ATOM     12  C   UNL     1       1.506   4.192  17.876  0.00  0.00    +0.000 C 
ATOM     13  C   UNL     1       0.902   2.942  18.508  0.00  0.00    +0.000 C 
ATOM     14  C   UNL     1       1.140   2.949  20.014  0.00  0.00    +0.000 C 
ATOM     15  C   UNL     1       2.639   2.904  20.314  0.00  0.00    +0.000 C 
ENDROOT
BRANCH   1  16
ATOM     16  C   UNL     1       8.081   7.549  17.208  0.00  0.00    +0.000 C 
BRANCH  16  18
ATOM     17  N   UNL     1       9.143   9.166  18.714  0.00  0.00    +0.000 N 
ATOM     18  C   UNL     1       8.074   8.927  17.860  0.00  0.00    +0.000 C 
ATOM     19  O   UNL     1       7.120   9.674  17.651  0.00  0.00    +0.000 OA
ATOM     20  H   UNL     1       9.793   8.397  18.871  0.00  0.00    +0.000 HD
BRANCH  17  24
ATOM     21  C   UNL     1       9.898  12.778  20.803  0.00  0.00    +0.000 A 
ATOM     22  C   UNL     1       9.256  11.724  21.445  0.00  0.00    +0.000 A 
ATOM     23  C   UNL     1       9.006  10.525  20.775  0.00  0.00    +0.000 A 
ATOM     24  C   UNL     1       9.383  10.357  19.442  0.00  0.00    +0.000 A 
ATOM     25  C   UNL     1      10.018  11.426  18.792  0.00  0.00    +0.000 A 
ATOM     26  C   UNL     1      10.264  12.635  19.467  0.00  0.00    +0.000 A 
BRANCH  21  27
ATOM     27  O   UNL     1      10.087  13.884  21.580  0.00  0.00    +0.000 OA
BRANCH  27  29
ATOM     28  C   UNL     1       9.267  15.598  23.009  0.00  0.00    +0.000 C 
ATOM     29  C   UNL     1       9.088  14.158  22.559  0.00  0.00    +0.000 C 
ENDBRANCH  27  29
ENDBRANCH  21  27
ENDBRANCH  17  24
ENDBRANCH  16  18
ENDBRANCH   1  16
TORSDOF 5
ENDMDL
MODEL 4
REMARK VINA RESULT:      -7.9      5.605      7.640
REMARK  Name = 
REMARK  6 active torsions:
REMARK  status: ('A' for Active; 'I' for Inactive)
REMARK    1  A    between atoms: C_1  and  C_2
REMARK    2  A    between atoms: C_2  and  O_3
REMARK    3  A    between atoms: O_3  and  C_4
REMARK    4  A    between atoms: C_7  and  N_8
REMARK    5  A    between atoms: C_9  and  C_11
REMARK    6  A    between atoms: C_11  and  N_12
REMARK                            x       y       z     vdW  Elec       q    Type
REMARK                         _______ _______ _______ _____ _____    ______ ____
ROOT
ATOM      1  N   UNL     1       7.037   6.387  18.065  0.00  0.00    +0.000 N 
ATOM      2  C   UNL     1       6.252   6.733  16.989  0.00  0.00    +0.000 A 
ATOM      3  N   UNL     1       5.049   6.313  16.795  0.00  0.00    +0.000 NA
ATOM      4  C   UNL     1       4.500   5.459  17.759  0.00  0.00    +0.000 A 
ATOM      5  N   UNL     1       3.234   5.052  17.516  0.00  0.00    +0.000 NA
ATOM      6  C   UNL     1       2.649   4.220  18.418  0.00  0.00    +0.000 A 
ATOM      7  C   UNL     1       3.299   3.780  19.578  0.00  0.00    +0.000 A 
ATOM      8  C   UNL     1       4.606   4.206  19.801  0.00  0.00    +0.000 A 
ATOM      9  C   UNL     1       5.200   5.061  18.884  0.00  0.00    +0.000 A 
ATOM     10  C   UNL     1       6.554   5.581  19.077  0.00  0.00    +0.000 A 
ATOM     11  O   UNL     1       7.185   5.327  20.101  0.00  0.00    +0.000 OA
ATOM     12  C   UNL     1       2.663   2.821  20.545  0.00  0.00    +0.000 C 
ATOM     13  C   UNL     1       1.145   2.758  20.407  0.00  0.00    +0.000 C 
ATOM     14  C   UNL     1       0.758   2.612  18.939  0.00  0.00    +0.000 C 
ATOM     15  C   UNL     1       1.213   3.839  18.147  0.00  0.00    +0.000 C 
ENDROOT
BRANCH   1  16
ATOM     16  C   UNL     1       8.360   6.963  18.235  0.00  0.00    +0.000 C 
BRANCH  16  18
ATOM     17  N   UNL     1       9.116   9.138  19.079  0.00  0.00    +0.000 N 
ATOM     18  C   UNL     1       8.204   8.480  18.263  0.00  0.00    +0.000 C 
ATOM     19  O   UNL     1       7.272   8.989  17.645  0.00  0.00    +0.000 OA
ATOM     20  H   UNL     1       9.757   8.559  19.619  0.00  0.00    +0.000 HD
BRANCH  17  24
ATOM     21  C   UNL     1       9.350  13.341  19.587  0.00  0.00    +0.000 A 
ATOM     22  C   UNL     1       9.325  12.506  20.699  0.00  0.00    +0.000 A 
ATOM     23  C   UNL     1       9.255  11.119  20.550  0.00  0.00    +0.000 A 
ATOM     24  C   UNL     1       9.199  10.537  19.284  0.00  0.00    +0.000 A 
ATOM     25  C   UNL     1       9.209  11.381  18.164  0.00  0.00    +0.000 A 
ATOM     26  C   UNL     1       9.273  12.778  18.315  0.00  0.00    +0.000 A 
BRANCH  21  27
ATOM     27  O   UNL     1       9.429  14.672  19.879  0.00  0.00    +0.000 OA
BRANCH  27  29
ATOM     28  C   UNL     1      11.762  15.127  19.854  0.00  0.00    +0.000 C 
ATOM     29  C   UNL     1      10.427  15.421  19.190  0.00  0.00    +0.000 C 
ENDBRANCH  27  29
ENDBRANCH  21  27
ENDBRANCH  17  24
ENDBRANCH  16  18
ENDBRANCH   1  16
TORSDOF 5
ENDMDL
MODEL 5
REMARK VINA RESULT:      -7.9      3.937      6.240
REMARK  Name = 
REMARK  6 active torsions:
REMARK  status: ('A' for Active; 'I' for Inactive)
REMARK    1  A    between atoms: C_1  and  C_2
REMARK    2  A    between atoms: C_2  and  O_3
REMARK    3  A    between atoms: O_3  and  C_4
REMARK    4  A    between atoms: C_7  and  N_8
REMARK    5  A    between atoms: C_9  and  C_11
REMARK    6  A    between atoms: C_11  and  N_12
REMARK                            x       y       z     vdW  Elec       q    Type
REMARK                         _______ _______ _______ _____ _____    ______ ____
ROOT
ATOM      1  N   UNL     1       1.702   9.178  19.155  0.00  0.00    +0.000 N 
ATOM      2  C   UNL     1       1.328   8.823  20.431  0.00  0.00    +0.000 A 
ATOM      3  N   UNL     1       1.335   7.617  20.887  0.00  0.00    +0.000 NA
ATOM      4  C   UNL     1       1.771   6.603  20.026  0.00  0.00    +0.000 A 
ATOM      5  N   UNL     1       1.767   5.358  20.552  0.00  0.00    +0.000 NA
ATOM      6  C   UNL     1       2.179   4.331  19.761  0.00  0.00    +0.000 A 
ATOM      7  C   UNL     1       2.608   4.516  18.441  0.00  0.00    +0.000 A 
ATOM      8  C   UNL     1       2.594   5.807  17.919  0.00  0.00    +0.000 A 
ATOM      9  C   UNL     1       2.180   6.855  18.730  0.00  0.00    +0.000 A 
ATOM     10  C   UNL     1       2.180   8.240  18.260  0.00  0.00    +0.000 A 
ATOM     11  O   UNL     1       2.615   8.528  17.147  0.00  0.00    +0.000 OA
ATOM     12  C   UNL     1       3.015   3.370  17.557  0.00  0.00    +0.000 C 
ATOM     13  C   UNL     1       3.365   2.110  18.343  0.00  0.00    +0.000 C 
ATOM     14  C   UNL     1       2.288   1.826  19.384  0.00  0.00    +0.000 C 
ATOM     15  C   UNL     1       2.222   2.965  20.403  0.00  0.00    +0.000 C 
ENDROOT
BRANCH   1  16
ATOM     16  C   UNL     1       1.727  10.572  18.750  0.00  0.00    +0.000 C 
BRANCH  16  18
ATOM     17  N   UNL     1      -0.576  10.589  17.907  0.00  0.00    +0.000 N 
ATOM     18  C   UNL     1       0.303  11.108  18.849  0.00  0.00    +0.000 C 
ATOM     19  O   UNL     1       0.058  11.983  19.677  0.00  0.00    +0.000 OA
ATOM     20  H   UNL     1      -0.188   9.954  17.211  0.00  0.00    +0.000 HD
BRANCH  17  24
ATOM     21  C   UNL     1      -4.692  11.488  17.426  0.00  0.00    +0.000 A 
ATOM     22  C   UNL     1      -4.028  11.868  18.587  0.00  0.00    +0.000 A 
ATOM     23  C   UNL     1      -2.671  11.587  18.760  0.00  0.00    +0.000 A 
ATOM     24  C   UNL     1      -1.949  10.909  17.777  0.00  0.00    +0.000 A 
ATOM     25  C   UNL     1      -2.624  10.513  16.613  0.00  0.00    +0.000 A 
ATOM     26  C   UNL     1      -3.993  10.792  16.443  0.00  0.00    +0.000 A 
BRANCH  21  27
ATOM     27  O   UNL     1      -6.011  11.835  17.388  0.00  0.00    +0.000 OA
BRANCH  27  29
ATOM     28  C   UNL     1      -6.978  10.199  18.816  0.00  0.00    +0.000 C 
ATOM     29  C   UNL     1      -6.749  11.685  18.598  0.00  0.00    +0.000 C 
ENDBRANCH  27  29
ENDBRANCH  21  27
ENDBRANCH  17  24
ENDBRANCH  16  18
ENDBRANCH   1  16
TORSDOF 5
ENDMDL
MODEL 6
REMARK VINA RESULT:      -7.8      5.571      7.566
REMARK  Name = 
REMARK  6 active torsions:
REMARK  status: ('A' for Active; 'I' for Inactive)
REMARK    1  A    between atoms: C_1  and  C_2
REMARK    2  A    between atoms: C_2  and  O_3
REMARK    3  A    between atoms: O_3  and  C_4
REMARK    4  A    between atoms: C_7  and  N_8
REMARK    5  A    between atoms: C_9  and  C_11
REMARK    6  A    between atoms: C_11  and  N_12
REMARK                            x       y       z     vdW  Elec       q    Type
REMARK                         _______ _______ _______ _____ _____    ______ ____
ROOT
ATOM      1  N   UNL     1       6.977   6.529  17.843  0.00  0.00    +0.000 N 
ATOM      2  C   UNL     1       7.357   5.930  19.022  0.00  0.00    +0.000 A 
ATOM      3  N   UNL     1       6.611   5.140  19.716  0.00  0.00    +0.000 NA
ATOM      4  C   UNL     1       5.331   4.863  19.223  0.00  0.00    +0.000 A 
ATOM      5  N   UNL     1       4.589   4.025  19.982  0.00  0.00    +0.000 NA
ATOM      6  C   UNL     1       3.335   3.721  19.553  0.00  0.00    +0.000 A 
ATOM      7  C   UNL     1       2.793   4.230  18.367  0.00  0.00    +0.000 A 
ATOM      8  C   UNL     1       3.574   5.098  17.607  0.00  0.00    +0.000 A 
ATOM      9  C   UNL     1       4.857   5.403  18.042  0.00  0.00    +0.000 A 
ATOM     10  C   UNL     1       5.745   6.274  17.273  0.00  0.00    +0.000 A 
ATOM     11  O   UNL     1       5.404   6.710  16.175  0.00  0.00    +0.000 OA
ATOM     12  C   UNL     1       1.389   3.927  17.925  0.00  0.00    +0.000 C 
ATOM     13  C   UNL     1       0.808   2.689  18.602  0.00  0.00    +0.000 C 
ATOM     14  C   UNL     1       1.059   2.747  20.105  0.00  0.00    +0.000 C 
ATOM     15  C   UNL     1       2.561   2.732  20.393  0.00  0.00    +0.000 C 
ENDROOT
BRANCH   1  16
ATOM     16  C   UNL     1       7.911   7.351  17.093  0.00  0.00    +0.000 C 
BRANCH  16  18
ATOM     17  N   UNL     1       8.970   9.195  18.314  0.00  0.00    +0.000 N 
ATOM     18  C   UNL     1       7.828   8.768  17.647  0.00  0.00    +0.000 C 
ATOM     19  O   UNL     1       6.771   9.386  17.533  0.00  0.00    +0.000 OA
ATOM     20  H   UNL     1       9.723   8.518  18.422  0.00  0.00    +0.000 HD
BRANCH  17  24
ATOM     21  C   UNL     1       9.531  13.033  20.026  0.00  0.00    +0.000 A 
ATOM     22  C   UNL     1       9.502  11.906  20.840  0.00  0.00    +0.000 A 
ATOM     23  C   UNL     1       9.326  10.633  20.293  0.00  0.00    +0.000 A 
ATOM     24  C   UNL     1       9.163  10.461  18.918  0.00  0.00    +0.000 A 
ATOM     25  C   UNL     1       9.178  11.601  18.100  0.00  0.00    +0.000 A 
ATOM     26  C   UNL     1       9.350  12.883  18.653  0.00  0.00    +0.000 A 
BRANCH  21  27
ATOM     27  O   UNL     1       9.721  14.208  20.693  0.00  0.00    +0.000 OA
BRANCH  27  29
ATOM     28  C   UNL     1      10.826  16.107  19.785  0.00  0.00    +0.000 C 
ATOM     29  C   UNL     1      11.004  14.817  20.567  0.00  0.00    +0.000 C 
ENDBRANCH  27  29
ENDBRANCH  21  27
ENDBRANCH  17  24
ENDBRANCH  16  18
ENDBRANCH   1  16
TORSDOF 5
ENDMDL
MODEL 7
REMARK VINA RESULT:      -7.8      5.339      7.855
REMARK  Name = 
REMARK  6 active torsions:
REMARK  status: ('A' for Active; 'I' for Inactive)
REMARK    1  A    between atoms: C_1  and  C_2
REMARK    2  A    between atoms: C_2  and  O_3
REMARK    3  A    between atoms: O_3  and  C_4
REMARK    4  A    between atoms: C_7  and  N_8
REMARK    5  A    between atoms: C_9  and  C_11
REMARK    6  A    between atoms: C_11  and  N_12
REMARK                            x       y       z     vdW  Elec       q    Type
REMARK                         _______ _______ _______ _____ _____    ______ ____
ROOT
ATOM      1  N   UNL     1       6.202   6.500  17.422  0.00  0.00    +0.000 N 
ATOM      2  C   UNL     1       5.085   7.280  17.225  0.00  0.00    +0.000 A 
ATOM      3  N   UNL     1       3.913   7.013  17.694  0.00  0.00    +0.000 NA
ATOM      4  C   UNL     1       3.777   5.857  18.472  0.00  0.00    +0.000 A 
ATOM      5  N   UNL     1       2.534   5.623  18.947  0.00  0.00    +0.000 NA
ATOM      6  C   UNL     1       2.341   4.513  19.708  0.00  0.00    +0.000 A 
ATOM      7  C   UNL     1       3.372   3.618  20.020  0.00  0.00    +0.000 A 
ATOM      8  C   UNL     1       4.642   3.876  19.511  0.00  0.00    +0.000 A 
ATOM      9  C   UNL     1       4.840   5.013  18.740  0.00  0.00    +0.000 A 
ATOM     10  C   UNL     1       6.156   5.366  18.209  0.00  0.00    +0.000 A 
ATOM     11  O   UNL     1       7.148   4.697  18.490  0.00  0.00    +0.000 OA
ATOM     12  C   UNL     1       3.140   2.368  20.821  0.00  0.00    +0.000 C 
ATOM     13  C   UNL     1       1.849   2.413  21.631  0.00  0.00    +0.000 C 
ATOM     14  C   UNL     1       0.696   2.892  20.755  0.00  0.00    +0.000 C 
ATOM     15  C   UNL     1       0.954   4.321  20.274  0.00  0.00    +0.000 C 
ENDROOT
BRANCH   1  16
ATOM     16  C   UNL     1       7.496   6.916  16.911  0.00  0.00    +0.000 C 
BRANCH  16  18
ATOM     17  N   UNL     1       8.164   9.204  17.488  0.00  0.00    +0.000 N 
ATOM     18  C   UNL     1       8.103   7.885  17.920  0.00  0.00    +0.000 C 
ATOM     19  O   UNL     1       8.546   7.438  18.975  0.00  0.00    +0.000 OA
ATOM     20  H   UNL     1       7.858   9.395  16.534  0.00  0.00    +0.000 HD
BRANCH  17  24
ATOM     21  C   UNL     1       9.638  12.563  19.614  0.00  0.00    +0.000 A 
ATOM     22  C   UNL     1       9.825  11.282  20.122  0.00  0.00    +0.000 A 
ATOM     23  C   UNL     1       9.352  10.164  19.431  0.00  0.00    +0.000 A 
ATOM     24  C   UNL     1       8.673  10.303  18.221  0.00  0.00    +0.000 A 
ATOM     25  C   UNL     1       8.473  11.597  17.718  0.00  0.00    +0.000 A 
ATOM     26  C   UNL     1       8.944  12.724  18.417  0.00  0.00    +0.000 A 
BRANCH  21  27
ATOM     27  O   UNL     1      10.160  13.560  20.386  0.00  0.00    +0.000 OA
BRANCH  27  29
ATOM     28  C   UNL     1      12.291  14.046  19.452  0.00  0.00    +0.000 C 
ATOM     29  C   UNL     1      10.891  14.579  19.710  0.00  0.00    +0.000 C 
ENDBRANCH  27  29
ENDBRANCH  21  27
ENDBRANCH  17  24
ENDBRANCH  16  18
ENDBRANCH   1  16
TORSDOF 5
ENDMDL
MODEL 8
REMARK VINA RESULT:      -7.8      5.403      7.405
REMARK  Name = 
REMARK  6 active torsions:
REMARK  status: ('A' for Active; 'I' for Inactive)
REMARK    1  A    between atoms: C_1  and  C_2
REMARK    2  A    between atoms: C_2  and  O_3
REMARK    3  A    between atoms: O_3  and  C_4
REMARK    4  A    between atoms: C_7  and  N_8
REMARK    5  A    between atoms: C_9  and  C_11
REMARK    6  A    between atoms: C_11  and  N_12
REMARK                            x       y       z     vdW  Elec       q    Type
REMARK                         _______ _______ _______ _____ _____    ______ ____
ROOT
ATOM      1  N   UNL     1       7.040   6.624  17.878  0.00  0.00    +0.000 N 
ATOM      2  C   UNL     1       7.411   6.006  19.050  0.00  0.00    +0.000 A 
ATOM      3  N   UNL     1       6.655   5.215  19.732  0.00  0.00    +0.000 NA
ATOM      4  C   UNL     1       5.373   4.957  19.233  0.00  0.00    +0.000 A 
ATOM      5  N   UNL     1       4.621   4.118  19.979  0.00  0.00    +0.000 NA
ATOM      6  C   UNL     1       3.365   3.831  19.543  0.00  0.00    +0.000 A 
ATOM      7  C   UNL     1       2.831   4.362  18.362  0.00  0.00    +0.000 A 
ATOM      8  C   UNL     1       3.623   5.232  17.616  0.00  0.00    +0.000 A 
ATOM      9  C   UNL     1       4.907   5.518  18.058  0.00  0.00    +0.000 A 
ATOM     10  C   UNL     1       5.807   6.390  17.302  0.00  0.00    +0.000 A 
ATOM     11  O   UNL     1       5.473   6.844  16.210  0.00  0.00    +0.000 OA
ATOM     12  C   UNL     1       1.425   4.079  17.914  0.00  0.00    +0.000 C 
ATOM     13  C   UNL     1       0.830   2.839  18.573  0.00  0.00    +0.000 C 
ATOM     14  C   UNL     1       1.078   2.875  20.077  0.00  0.00    +0.000 C 
ATOM     15  C   UNL     1       2.579   2.840  20.368  0.00  0.00    +0.000 C 
ENDROOT
BRANCH   1  16
ATOM     16  C   UNL     1       7.984   7.446  17.141  0.00  0.00    +0.000 C 
BRANCH  16  18
ATOM     17  N   UNL     1       9.037   9.272  18.394  0.00  0.00    +0.000 N 
ATOM     18  C   UNL     1       7.904   8.861  17.704  0.00  0.00    +0.000 C 
ATOM     19  O   UNL     1       6.855   9.488  17.577  0.00  0.00    +0.000 OA
ATOM     20  H   UNL     1       9.783   8.588  18.510  0.00  0.00    +0.000 HD
BRANCH  17  24
ATOM     21  C   UNL     1       9.631  12.994  20.336  0.00  0.00    +0.000 A 
ATOM     22  C   UNL     1       9.533  12.941  18.949  0.00  0.00    +0.000 A 
ATOM     23  C   UNL     1       9.330  11.725  18.294  0.00  0.00    +0.000 A 
ATOM     24  C   UNL     1       9.231  10.532  19.011  0.00  0.00    +0.000 A 
ATOM     25  C   UNL     1       9.345  10.586  20.408  0.00  0.00    +0.000 A 
ATOM     26  C   UNL     1       9.555  11.811  21.067  0.00  0.00    +0.000 A 
BRANCH  21  27
ATOM     27  O   UNL     1       9.819  14.248  20.842  0.00  0.00    +0.000 OA
BRANCH  27  29
ATOM     28  C   UNL     1       8.178  15.963  20.714  0.00  0.00    +0.000 C 
ATOM     29  C   UNL     1       8.725  14.821  21.554  0.00  0.00    +0.000 C 
ENDBRANCH  27  29
ENDBRANCH  21  27
ENDBRANCH  17  24
ENDBRANCH  16  18
ENDBRANCH   1  16
TORSDOF 5
ENDMDL
MODEL 9
REMARK VINA RESULT:      -7.7      5.654      8.004
REMARK  Name = 
REMARK  6 active torsions:
REMARK  status: ('A' for Active; 'I' for Inactive)
REMARK    1  A    between atoms: C_1  and  C_2
REMARK    2  A    between atoms: C_2  and  O_3
REMARK    3  A    between atoms: O_3  and  C_4
REMARK    4  A    between atoms: C_7  and  N_8
REMARK    5  A    between atoms: C_9  and  C_11
REMARK    6  A    between atoms: C_11  and  N_12
REMARK                            x       y       z     vdW  Elec       q    Type
REMARK                         _______ _______ _______ _____ _____    ______ ____
ROOT
ATOM      1  N   UNL     1       6.684   6.478  17.702  0.00  0.00    +0.000 N 
ATOM      2  C   UNL     1       7.323   5.312  18.059  0.00  0.00    +0.000 A 
ATOM      3  N   UNL     1       6.759   4.325  18.669  0.00  0.00    +0.000 NA
ATOM      4  C   UNL     1       5.398   4.446  18.971  0.00  0.00    +0.000 A 
ATOM      5  N   UNL     1       4.851   3.384  19.603  0.00  0.00    +0.000 NA
ATOM      6  C   UNL     1       3.531   3.445  19.925  0.00  0.00    +0.000 A 
ATOM      7  C   UNL     1       2.727   4.551  19.622  0.00  0.00    +0.000 A 
ATOM      8  C   UNL     1       3.316   5.636  18.979  0.00  0.00    +0.000 A 
ATOM      9  C   UNL     1       4.662   5.570  18.645  0.00  0.00    +0.000 A 
ATOM     10  C   UNL     1       5.334   6.656  17.933  0.00  0.00    +0.000 A 
ATOM     11  O   UNL     1       4.705   7.638  17.544  0.00  0.00    +0.000 OA
ATOM     12  C   UNL     1       1.281   4.630  20.024  0.00  0.00    +0.000 C 
ATOM     13  C   UNL     1       0.677   3.266  20.343  0.00  0.00    +0.000 C 
ATOM     14  C   UNL     1       1.606   2.485  21.266  0.00  0.00    +0.000 C 
ATOM     15  C   UNL     1       2.941   2.215  20.571  0.00  0.00    +0.000 C 
ENDROOT
BRANCH   1  16
ATOM     16  C   UNL     1       7.384   7.509  16.957  0.00  0.00    +0.000 C 
BRANCH  16  18
ATOM     17  N   UNL     1       8.291   9.693  17.608  0.00  0.00    +0.000 N 
ATOM     18  C   UNL     1       8.166   8.354  17.957  0.00  0.00    +0.000 C 
ATOM     19  O   UNL     1       8.675   7.798  18.928  0.00  0.00    +0.000 OA
ATOM     20  H   UNL     1       7.908   9.975  16.707  0.00  0.00    +0.000 HD
BRANCH  17  24
ATOM     21  C   UNL     1      10.307  12.619  19.921  0.00  0.00    +0.000 A 
ATOM     22  C   UNL     1       9.934  12.903  18.612  0.00  0.00    +0.000 A 
ATOM     23  C   UNL     1       9.263  11.954  17.838  0.00  0.00    +0.000 A 
ATOM     24  C   UNL     1       8.959  10.694  18.354  0.00  0.00    +0.000 A 
ATOM     25  C   UNL     1       9.349  10.404  19.669  0.00  0.00    +0.000 A 
ATOM     26  C   UNL     1      10.030  11.359  20.447  0.00  0.00    +0.000 A 
BRANCH  21  27
ATOM     27  O   UNL     1      10.945  13.640  20.563  0.00  0.00    +0.000 OA
BRANCH  27  29
ATOM     28  C   UNL     1      11.853  15.779  20.057  0.00  0.00    +0.000 C 
ATOM     29  C   UNL     1      10.576  14.964  20.186  0.00  0.00    +0.000 C 
ENDBRANCH  27  29
ENDBRANCH  21  27
ENDBRANCH  17  24
ENDBRANCH  16  18
ENDBRANCH   1  16
TORSDOF 5
ENDMDL
