MODEL 1
REMARK VINA RESULT:      -6.9      0.000      0.000
REMARK  Name = 
REMARK  5 active torsions:
REMARK  status: ('A' for Active; 'I' for Inactive)
REMARK    1  A    between atoms: C_1  and  O_2
REMARK    2  A    between atoms: O_2  and  C_3
REMARK    3  A    between atoms: C_3  and  C_5
REMARK    4  A    between atoms: N_9  and  C_10
REMARK    5  A    between atoms: N_18  and  C_19
REMARK                            x       y       z     vdW  Elec       q    Type
REMARK                         _______ _______ _______ _____ _____    ______ ____
ROOT
ATOM      1  C   UNL     1       1.927   3.072  18.922  0.00  0.00    +0.000 A 
ATOM      2  C   UNL     1       2.986   2.346  18.565  0.00  0.00    +0.000 A 
ATOM      3  C   UNL     1       3.926   2.781  17.523  0.00  0.00    +0.000 A 
ATOM      4  O   UNL     1       4.546   1.887  16.944  0.00  0.00    +0.000 OA
ATOM      5  N   UNL     1       4.067   4.161  17.304  0.00  0.00    +0.000 N 
ATOM      6  C   UNL     1       3.190   5.147  17.791  0.00  0.00    +0.000 A 
ATOM      7  N   UNL     1       3.587   6.386  17.906  0.00  0.00    +0.000 NA
ATOM      8  S   UNL     1       1.575   4.580  18.186  0.00  0.00    +0.000 S 
ENDROOT
BRANCH   5   9
ATOM      9  C   UNL     1       5.107   4.545  16.388  0.00  0.00    +0.000 A 
ATOM     10  C   UNL     1       4.859   4.575  15.005  0.00  0.00    +0.000 A 
ATOM     11  C   UNL     1       5.908   4.779  14.104  0.00  0.00    +0.000 A 
ATOM     12  C   UNL     1       7.196   4.992  14.583  0.00  0.00    +0.000 A 
ATOM     13  F   UNL     1       8.202   5.166  13.717  0.00  0.00    +0.000 F 
ATOM     14  C   UNL     1       7.457   5.010  15.946  0.00  0.00    +0.000 A 
ATOM     15  C   UNL     1       6.415   4.775  16.848  0.00  0.00    +0.000 A 
ENDBRANCH   5   9
BRANCH   7  16
ATOM     16  C   UNL     1       2.765   7.403  18.426  0.00  0.00    +0.000 A 
ATOM     17  C   UNL     1       2.351   7.421  19.766  0.00  0.00    +0.000 A 
ATOM     18  C   UNL     1       1.419   8.357  20.217  0.00  0.00    +0.000 A 
ATOM     19  C   UNL     1       0.977   9.346  19.351  0.00  0.00    +0.000 A 
ATOM     20  F   UNL     1       0.063  10.229  19.771  0.00  0.00    +0.000 F 
ATOM     21  C   UNL     1       1.475   9.432  18.056  0.00  0.00    +0.000 A 
ATOM     22  C   UNL     1       2.367   8.458  17.594  0.00  0.00    +0.000 A 
ENDBRANCH   7  16
BRANCH   1  23
ATOM     23  C   UNL     1       0.985   2.579  19.963  0.00  0.00    +0.000 C 
ATOM     24  O   UNL     1      -0.211   2.404  19.787  0.00  0.00    +0.000 OA
BRANCH  23  26
ATOM     25  C   UNL     1       2.182   3.505  21.758  0.00  0.00    +0.000 C 
ATOM     26  O   UNL     1       1.659   2.340  21.124  0.00  0.00    +0.000 OA
ENDBRANCH  23  26
ENDBRANCH   1  23
TORSDOF 4
ENDMDL
MODEL 2
REMARK VINA RESULT:      -6.8      2.001      2.528
REMARK  Name = 
REMARK  5 active torsions:
REMARK  status: ('A' for Active; 'I' for Inactive)
REMARK    1  A    between atoms: C_1  and  O_2
REMARK    2  A    between atoms: O_2  and  C_3
REMARK    3  A    between atoms: C_3  and  C_5
REMARK    4  A    between atoms: N_9  and  C_10
REMARK    5  A    between atoms: N_18  and  C_19
REMARK                            x       y       z     vdW  Elec       q    Type
REMARK                         _______ _______ _______ _____ _____    ______ ____
ROOT
ATOM      1  C   UNL     1       1.905   3.560  18.610  0.00  0.00    +0.000 A 
ATOM      2  C   UNL     1       3.129   3.042  18.518  0.00  0.00    +0.000 A 
ATOM      3  C   UNL     1       4.291   3.835  18.092  0.00  0.00    +0.000 A 
ATOM      4  O   UNL     1       5.222   3.205  17.587  0.00  0.00    +0.000 OA
ATOM      5  N   UNL     1       4.260   5.219  18.328  0.00  0.00    +0.000 N 
ATOM      6  C   UNL     1       3.111   5.952  18.676  0.00  0.00    +0.000 A 
ATOM      7  N   UNL     1       3.220   7.110  19.269  0.00  0.00    +0.000 NA
ATOM      8  S   UNL     1       1.586   5.201  18.231  0.00  0.00    +0.000 S 
ENDROOT
BRANCH   5   9
ATOM      9  C   UNL     1       5.477   5.929  18.039  0.00  0.00    +0.000 A 
ATOM     10  C   UNL     1       6.615   5.742  18.843  0.00  0.00    +0.000 A 
ATOM     11  C   UNL     1       7.740   6.554  18.672  0.00  0.00    +0.000 A 
ATOM     12  C   UNL     1       7.746   7.523  17.675  0.00  0.00    +0.000 A 
ATOM     13  F   UNL     1       8.817   8.314  17.529  0.00  0.00    +0.000 F 
ATOM     14  C   UNL     1       6.650   7.696  16.842  0.00  0.00    +0.000 A 
ATOM     15  C   UNL     1       5.512   6.907  17.031  0.00  0.00    +0.000 A 
ENDBRANCH   5   9
BRANCH   7  16
ATOM     16  C   UNL     1       2.103   7.865  19.676  0.00  0.00    +0.000 A 
ATOM     17  C   UNL     1       1.534   8.857  18.864  0.00  0.00    +0.000 A 
ATOM     18  C   UNL     1       0.524   9.689  19.350  0.00  0.00    +0.000 A 
ATOM     19  C   UNL     1       0.007   9.459  20.616  0.00  0.00    +0.000 A 
ATOM     20  F   UNL     1      -0.944  10.271  21.097  0.00  0.00    +0.000 F 
ATOM     21  C   UNL     1       0.460   8.396  21.388  0.00  0.00    +0.000 A 
ATOM     22  C   UNL     1       1.511   7.600  20.917  0.00  0.00    +0.000 A 
ENDBRANCH   7  16
BRANCH   1  23
ATOM     23  C   UNL     1       0.751   2.712  19.018  0.00  0.00    +0.000 C 
ATOM     24  O   UNL     1       0.245   1.849  18.319  0.00  0.00    +0.000 OA
BRANCH  23  26
ATOM     25  C   UNL     1       1.348   2.786  21.288  0.00  0.00    +0.000 C 
ATOM     26  O   UNL     1       0.364   3.034  20.285  0.00  0.00    +0.000 OA
ENDBRANCH  23  26
ENDBRANCH   1  23
TORSDOF 4
ENDMDL
MODEL 3
REMARK VINA RESULT:      -6.7      0.313      1.376
REMARK  Name = 
REMARK  5 active torsions:
REMARK  status: ('A' for Active; 'I' for Inactive)
REMARK    1  A    between atoms: C_1  and  O_2
REMARK    2  A    between atoms: O_2  and  C_3
REMARK    3  A    between atoms: C_3  and  C_5
REMARK    4  A    between atoms: N_9  and  C_10
REMARK    5  A    between atoms: N_18  and  C_19
REMARK                            x       y       z     vdW  Elec       q    Type
REMARK                         _______ _______ _______ _____ _____    ______ ____
ROOT
ATOM      1  C   UNL     1       1.922   2.943  18.952  0.00  0.00    +0.000 A 
ATOM      2  C   UNL     1       2.960   2.166  18.645  0.00  0.00    +0.000 A 
ATOM      3  C   UNL     1       3.926   2.518  17.594  0.00  0.00    +0.000 A 
ATOM      4  O   UNL     1       4.522   1.576  17.068  0.00  0.00    +0.000 OA
ATOM      5  N   UNL     1       4.115   3.880  17.309  0.00  0.00    +0.000 N 
ATOM      6  C   UNL     1       3.266   4.917  17.736  0.00  0.00    +0.000 A 
ATOM      7  N   UNL     1       3.702   6.147  17.796  0.00  0.00    +0.000 NA
ATOM      8  S   UNL     1       1.628   4.423  18.138  0.00  0.00    +0.000 S 
ENDROOT
BRANCH   5   9
ATOM      9  C   UNL     1       5.177   4.184  16.389  0.00  0.00    +0.000 A 
ATOM     10  C   UNL     1       6.455   4.521  16.868  0.00  0.00    +0.000 A 
ATOM     11  C   UNL     1       7.439   4.983  15.988  0.00  0.00    +0.000 A 
ATOM     12  C   UNL     1       7.161   5.071  14.629  0.00  0.00    +0.000 A 
ATOM     13  F   UNL     1       8.098   5.534  13.792  0.00  0.00    +0.000 F 
ATOM     14  C   UNL     1       5.920   4.703  14.129  0.00  0.00    +0.000 A 
ATOM     15  C   UNL     1       4.925   4.270  15.009  0.00  0.00    +0.000 A 
ENDBRANCH   5   9
BRANCH   7  16
ATOM     16  C   UNL     1       2.909   7.215  18.254  0.00  0.00    +0.000 A 
ATOM     17  C   UNL     1       2.520   8.272  17.419  0.00  0.00    +0.000 A 
ATOM     18  C   UNL     1       1.861   9.389  17.935  0.00  0.00    +0.000 A 
ATOM     19  C   UNL     1       1.493   9.402  19.272  0.00  0.00    +0.000 A 
ATOM     20  F   UNL     1       0.884  10.483  19.777  0.00  0.00    +0.000 F 
ATOM     21  C   UNL     1       1.746   8.308  20.090  0.00  0.00    +0.000 A 
ATOM     22  C   UNL     1       2.458   7.215  19.581  0.00  0.00    +0.000 A 
ENDBRANCH   7  16
BRANCH   1  23
ATOM     23  C   UNL     1       0.953   2.533  20.004  0.00  0.00    +0.000 C 
ATOM     24  O   UNL     1      -0.249   2.411  19.828  0.00  0.00    +0.000 OA
BRANCH  23  26
ATOM     25  C   UNL     1       2.139   3.469  21.802  0.00  0.00    +0.000 C 
ATOM     26  O   UNL     1       1.609   2.301  21.176  0.00  0.00    +0.000 OA
ENDBRANCH  23  26
ENDBRANCH   1  23
TORSDOF 4
ENDMDL
MODEL 4
REMARK VINA RESULT:      -6.5      9.428     11.361
REMARK  Name = 
REMARK  5 active torsions:
REMARK  status: ('A' for Active; 'I' for Inactive)
REMARK    1  A    between atoms: C_1  and  O_2
REMARK    2  A    between atoms: O_2  and  C_3
REMARK    3  A    between atoms: C_3  and  C_5
REMARK    4  A    between atoms: N_9  and  C_10
REMARK    5  A    between atoms: N_18  and  C_19
REMARK                            x       y       z     vdW  Elec       q    Type
REMARK                         _______ _______ _______ _____ _____    ______ ____
ROOT
ATOM      1  C   UNL     1      -6.818  12.154  21.397  0.00  0.00    +0.000 A 
ATOM      2  C   UNL     1      -7.093  11.158  20.556  0.00  0.00    +0.000 A 
ATOM      3  C   UNL     1      -6.381  10.982  19.282  0.00  0.00    +0.000 A 
ATOM      4  O   UNL     1      -6.993  10.380  18.397  0.00  0.00    +0.000 OA
ATOM      5  N   UNL     1      -5.068  11.473  19.193  0.00  0.00    +0.000 N 
ATOM      6  C   UNL     1      -4.477  12.361  20.109  0.00  0.00    +0.000 A 
ATOM      7  N   UNL     1      -3.177  12.447  20.202  0.00  0.00    +0.000 NA
ATOM      8  S   UNL     1      -5.606  13.318  21.056  0.00  0.00    +0.000 S 
ENDROOT
BRANCH   5   9
ATOM      9  C   UNL     1      -4.358  11.143  17.987  0.00  0.00    +0.000 A 
ATOM     10  C   UNL     1      -4.655  11.806  16.784  0.00  0.00    +0.000 A 
ATOM     11  C   UNL     1      -4.093  11.371  15.580  0.00  0.00    +0.000 A 
ATOM     12  C   UNL     1      -3.205  10.301  15.582  0.00  0.00    +0.000 A 
ATOM     13  F   UNL     1      -2.685   9.873  14.424  0.00  0.00    +0.000 F 
ATOM     14  C   UNL     1      -2.864   9.658  16.764  0.00  0.00    +0.000 A 
ATOM     15  C   UNL     1      -3.449  10.071  17.964  0.00  0.00    +0.000 A 
ENDBRANCH   5   9
BRANCH   7  16
ATOM     16  C   UNL     1      -2.534  13.287  21.130  0.00  0.00    +0.000 A 
ATOM     17  C   UNL     1      -2.199  14.616  20.831  0.00  0.00    +0.000 A 
ATOM     18  C   UNL     1      -1.432  15.378  21.713  0.00  0.00    +0.000 A 
ATOM     19  C   UNL     1      -1.087  14.846  22.947  0.00  0.00    +0.000 A 
ATOM     20  F   UNL     1      -0.329  15.564  23.785  0.00  0.00    +0.000 F 
ATOM     21  C   UNL     1      -1.523  13.581  23.323  0.00  0.00    +0.000 A 
ATOM     22  C   UNL     1      -2.244  12.801  22.411  0.00  0.00    +0.000 A 
ENDBRANCH   7  16
BRANCH   1  23
ATOM     23  C   UNL     1      -7.584  12.311  22.664  0.00  0.00    +0.000 C 
ATOM     24  O   UNL     1      -7.854  11.396  23.426  0.00  0.00    +0.000 OA
BRANCH  23  26
ATOM     25  C   UNL     1      -7.901  14.052  24.206  0.00  0.00    +0.000 C 
ATOM     26  O   UNL     1      -7.916  13.620  22.847  0.00  0.00    +0.000 OA
ENDBRANCH  23  26
ENDBRANCH   1  23
TORSDOF 4
ENDMDL
MODEL 5
REMARK VINA RESULT:      -6.4      8.449     11.620
REMARK  Name = 
REMARK  5 active torsions:
REMARK  status: ('A' for Active; 'I' for Inactive)
REMARK    1  A    between atoms: C_1  and  O_2
REMARK    2  A    between atoms: O_2  and  C_3
REMARK    3  A    between atoms: C_3  and  C_5
REMARK    4  A    between atoms: N_9  and  C_10
REMARK    5  A    between atoms: N_18  and  C_19
REMARK                            x       y       z     vdW  Elec       q    Type
REMARK                         _______ _______ _______ _____ _____    ______ ____
ROOT
ATOM      1  C   UNL     1       1.173  13.501  19.761  0.00  0.00    +0.000 A 
ATOM      2  C   UNL     1       1.172  13.735  21.072  0.00  0.00    +0.000 A 
ATOM      3  C   UNL     1      -0.067  13.929  21.838  0.00  0.00    +0.000 A 
ATOM      4  O   UNL     1       0.032  14.592  22.872  0.00  0.00    +0.000 OA
ATOM      5  N   UNL     1      -1.236  13.318  21.355  0.00  0.00    +0.000 N 
ATOM      6  C   UNL     1      -1.389  12.777  20.066  0.00  0.00    +0.000 A 
ATOM      7  N   UNL     1      -2.314  11.887  19.827  0.00  0.00    +0.000 NA
ATOM      8  S   UNL     1      -0.281  13.408  18.857  0.00  0.00    +0.000 S 
ENDROOT
BRANCH   5   9
ATOM      9  C   UNL     1      -2.386  13.403  22.215  0.00  0.00    +0.000 A 
ATOM     10  C   UNL     1      -2.583  12.452  23.231  0.00  0.00    +0.000 A 
ATOM     11  C   UNL     1      -3.780  12.429  23.954  0.00  0.00    +0.000 A 
ATOM     12  C   UNL     1      -4.761  13.377  23.690  0.00  0.00    +0.000 A 
ATOM     13  F   UNL     1      -5.916  13.339  24.369  0.00  0.00    +0.000 F 
ATOM     14  C   UNL     1      -4.571  14.351  22.721  0.00  0.00    +0.000 A 
ATOM     15  C   UNL     1      -3.389  14.358  21.976  0.00  0.00    +0.000 A 
ENDBRANCH   5   9
BRANCH   7  16
ATOM     16  C   UNL     1      -2.483  11.284  18.567  0.00  0.00    +0.000 A 
ATOM     17  C   UNL     1      -1.635  10.268  18.102  0.00  0.00    +0.000 A 
ATOM     18  C   UNL     1      -1.734   9.794  16.794  0.00  0.00    +0.000 A 
ATOM     19  C   UNL     1      -2.754  10.260  15.978  0.00  0.00    +0.000 A 
ATOM     20  F   UNL     1      -2.837   9.826  14.714  0.00  0.00    +0.000 F 
ATOM     21  C   UNL     1      -3.691  11.166  16.459  0.00  0.00    +0.000 A 
ATOM     22  C   UNL     1      -3.553  11.681  17.754  0.00  0.00    +0.000 A 
ENDBRANCH   7  16
BRANCH   1  23
ATOM     23  C   UNL     1       2.454  13.339  19.020  0.00  0.00    +0.000 C 
ATOM     24  O   UNL     1       2.605  12.614  18.049  0.00  0.00    +0.000 OA
BRANCH  23  26
ATOM     25  C   UNL     1       4.245  14.807  18.634  0.00  0.00    +0.000 C 
ATOM     26  O   UNL     1       3.415  14.130  19.576  0.00  0.00    +0.000 OA
ENDBRANCH  23  26
ENDBRANCH   1  23
TORSDOF 4
ENDMDL
MODEL 6
REMARK VINA RESULT:      -6.4      5.309      8.689
REMARK  Name = 
REMARK  5 active torsions:
REMARK  status: ('A' for Active; 'I' for Inactive)
REMARK    1  A    between atoms: C_1  and  O_2
REMARK    2  A    between atoms: O_2  and  C_3
REMARK    3  A    between atoms: C_3  and  C_5
REMARK    4  A    between atoms: N_9  and  C_10
REMARK    5  A    between atoms: N_18  and  C_19
REMARK                            x       y       z     vdW  Elec       q    Type
REMARK                         _______ _______ _______ _____ _____    ______ ____
ROOT
ATOM      1  C   UNL     1      -1.750  10.950  18.035  0.00  0.00    +0.000 A 
ATOM      2  C   UNL     1      -1.474  12.223  17.750  0.00  0.00    +0.000 A 
ATOM      3  C   UNL     1      -0.354  12.945  18.369  0.00  0.00    +0.000 A 
ATOM      4  O   UNL     1      -0.465  14.171  18.428  0.00  0.00    +0.000 OA
ATOM      5  N   UNL     1       0.751  12.192  18.800  0.00  0.00    +0.000 N 
ATOM      6  C   UNL     1       0.764  10.794  18.949  0.00  0.00    +0.000 A 
ATOM      7  N   UNL     1       1.894  10.139  18.947  0.00  0.00    +0.000 NA
ATOM      8  S   UNL     1      -0.815  10.051  19.156  0.00  0.00    +0.000 S 
ENDROOT
BRANCH   5   9
ATOM      9  C   UNL     1       1.885  12.951  19.254  0.00  0.00    +0.000 A 
ATOM     10  C   UNL     1       2.050  13.229  20.621  0.00  0.00    +0.000 A 
ATOM     11  C   UNL     1       3.051  14.108  21.047  0.00  0.00    +0.000 A 
ATOM     12  C   UNL     1       3.910  14.677  20.114  0.00  0.00    +0.000 A 
ATOM     13  F   UNL     1       4.854  15.535  20.523  0.00  0.00    +0.000 F 
ATOM     14  C   UNL     1       3.793  14.383  18.763  0.00  0.00    +0.000 A 
ATOM     15  C   UNL     1       2.773  13.530  18.331  0.00  0.00    +0.000 A 
ENDBRANCH   5   9
BRANCH   7  16
ATOM     16  C   UNL     1       1.961   8.737  19.052  0.00  0.00    +0.000 A 
ATOM     17  C   UNL     1       1.705   8.062  20.255  0.00  0.00    +0.000 A 
ATOM     18  C   UNL     1       1.923   6.688  20.367  0.00  0.00    +0.000 A 
ATOM     19  C   UNL     1       2.297   5.967  19.243  0.00  0.00    +0.000 A 
ATOM     20  F   UNL     1       2.533   4.653  19.352  0.00  0.00    +0.000 F 
ATOM     21  C   UNL     1       2.425   6.590  18.008  0.00  0.00    +0.000 A 
ATOM     22  C   UNL     1       2.260   7.977  17.914  0.00  0.00    +0.000 A 
ENDBRANCH   7  16
BRANCH   1  23
ATOM     23  C   UNL     1      -2.913  10.267  17.406  0.00  0.00    +0.000 C 
ATOM     24  O   UNL     1      -3.454   9.268  17.854  0.00  0.00    +0.000 OA
BRANCH  23  26
ATOM     25  C   UNL     1      -3.014  10.233  15.060  0.00  0.00    +0.000 C 
ATOM     26  O   UNL     1      -3.286  10.930  16.275  0.00  0.00    +0.000 OA
ENDBRANCH  23  26
ENDBRANCH   1  23
TORSDOF 4
ENDMDL
MODEL 7
REMARK VINA RESULT:      -6.4      8.475     11.424
REMARK  Name = 
REMARK  5 active torsions:
REMARK  status: ('A' for Active; 'I' for Inactive)
REMARK    1  A    between atoms: C_1  and  O_2
REMARK    2  A    between atoms: O_2  and  C_3
REMARK    3  A    between atoms: C_3  and  C_5
REMARK    4  A    between atoms: N_9  and  C_10
REMARK    5  A    between atoms: N_18  and  C_19
REMARK                            x       y       z     vdW  Elec       q    Type
REMARK                         _______ _______ _______ _____ _____    ______ ____
ROOT
ATOM      1  C   UNL     1       1.014  13.258  19.145  0.00  0.00    +0.000 A 
ATOM      2  C   UNL     1       1.087  13.420  20.466  0.00  0.00    +0.000 A 
ATOM      3  C   UNL     1      -0.106  13.569  21.310  0.00  0.00    +0.000 A 
ATOM      4  O   UNL     1       0.052  14.174  22.372  0.00  0.00    +0.000 OA
ATOM      5  N   UNL     1      -1.302  12.985  20.861  0.00  0.00    +0.000 N 
ATOM      6  C   UNL     1      -1.529  12.516  19.555  0.00  0.00    +0.000 A 
ATOM      7  N   UNL     1      -2.467  11.640  19.320  0.00  0.00    +0.000 NA
ATOM      8  S   UNL     1      -0.489  13.214  18.321  0.00  0.00    +0.000 S 
ENDROOT
BRANCH   5   9
ATOM      9  C   UNL     1      -2.401  13.021  21.788  0.00  0.00    +0.000 A 
ATOM     10  C   UNL     1      -3.360  14.046  21.711  0.00  0.00    +0.000 A 
ATOM     11  C   UNL     1      -4.328  14.183  22.711  0.00  0.00    +0.000 A 
ATOM     12  C   UNL     1      -4.364  13.276  23.764  0.00  0.00    +0.000 A 
ATOM     13  F   UNL     1      -5.278  13.423  24.731  0.00  0.00    +0.000 F 
ATOM     14  C   UNL     1      -3.454  12.231  23.837  0.00  0.00    +0.000 A 
ATOM     15  C   UNL     1      -2.466  12.110  22.856  0.00  0.00    +0.000 A 
ENDBRANCH   5   9
BRANCH   7  16
ATOM     16  C   UNL     1      -2.709  11.107  18.040  0.00  0.00    +0.000 A 
ATOM     17  C   UNL     1      -1.925  10.078  17.497  0.00  0.00    +0.000 A 
ATOM     18  C   UNL     1      -2.093   9.672  16.172  0.00  0.00    +0.000 A 
ATOM     19  C   UNL     1      -3.119  10.223  15.418  0.00  0.00    +0.000 A 
ATOM     20  F   UNL     1      -3.266   9.855  14.139  0.00  0.00    +0.000 F 
ATOM     21  C   UNL     1      -3.995  11.145  15.976  0.00  0.00    +0.000 A 
ATOM     22  C   UNL     1      -3.787  11.589  17.287  0.00  0.00    +0.000 A 
ENDBRANCH   7  16
BRANCH   1  23
ATOM     23  C   UNL     1       2.250  13.139  18.325  0.00  0.00    +0.000 C 
ATOM     24  O   UNL     1       2.736  12.081  17.955  0.00  0.00    +0.000 OA
BRANCH  23  26
ATOM     25  C   UNL     1       4.129  14.547  18.323  0.00  0.00    +0.000 C 
ATOM     26  O   UNL     1       2.741  14.378  18.042  0.00  0.00    +0.000 OA
ENDBRANCH  23  26
ENDBRANCH   1  23
TORSDOF 4
ENDMDL
MODEL 8
REMARK VINA RESULT:      -6.2      8.471     11.515
REMARK  Name = 
REMARK  5 active torsions:
REMARK  status: ('A' for Active; 'I' for Inactive)
REMARK    1  A    between atoms: C_1  and  O_2
REMARK    2  A    between atoms: O_2  and  C_3
REMARK    3  A    between atoms: C_3  and  C_5
REMARK    4  A    between atoms: N_9  and  C_10
REMARK    5  A    between atoms: N_18  and  C_19
REMARK                            x       y       z     vdW  Elec       q    Type
REMARK                         _______ _______ _______ _____ _____    ______ ____
ROOT
ATOM      1  C   UNL     1       1.056  13.244  19.562  0.00  0.00    +0.000 A 
ATOM      2  C   UNL     1       1.052  13.377  20.888  0.00  0.00    +0.000 A 
ATOM      3  C   UNL     1      -0.187  13.549  21.659  0.00  0.00    +0.000 A 
ATOM      4  O   UNL     1      -0.076  14.127  22.742  0.00  0.00    +0.000 OA
ATOM      5  N   UNL     1      -1.370  13.012  21.125  0.00  0.00    +0.000 N 
ATOM      6  C   UNL     1      -1.529  12.577  19.797  0.00  0.00    +0.000 A 
ATOM      7  N   UNL     1      -2.478  11.737  19.485  0.00  0.00    +0.000 NA
ATOM      8  S   UNL     1      -0.393  13.265  18.646  0.00  0.00    +0.000 S 
ENDROOT
BRANCH   5   9
ATOM      9  C   UNL     1      -2.523  13.066  21.982  0.00  0.00    +0.000 A 
ATOM     10  C   UNL     1      -3.479  14.083  21.822  0.00  0.00    +0.000 A 
ATOM     11  C   UNL     1      -4.506  14.240  22.758  0.00  0.00    +0.000 A 
ATOM     12  C   UNL     1      -4.602  13.359  23.829  0.00  0.00    +0.000 A 
ATOM     13  F   UNL     1      -5.574  13.525  24.736  0.00  0.00    +0.000 F 
ATOM     14  C   UNL     1      -3.694  12.321  23.984  0.00  0.00    +0.000 A 
ATOM     15  C   UNL     1      -2.648  12.181  23.067  0.00  0.00    +0.000 A 
ENDBRANCH   5   9
BRANCH   7  16
ATOM     16  C   UNL     1      -2.655  11.238  18.181  0.00  0.00    +0.000 A 
ATOM     17  C   UNL     1      -3.674  11.700  17.334  0.00  0.00    +0.000 A 
ATOM     18  C   UNL     1      -3.918  11.085  16.106  0.00  0.00    +0.000 A 
ATOM     19  C   UNL     1      -3.074  10.073  15.673  0.00  0.00    +0.000 A 
ATOM     20  F   UNL     1      -3.321   9.462  14.507  0.00  0.00    +0.000 F 
ATOM     21  C   UNL     1      -1.976   9.689  16.433  0.00  0.00    +0.000 A 
ATOM     22  C   UNL     1      -1.769  10.270  17.689  0.00  0.00    +0.000 A 
ENDBRANCH   7  16
BRANCH   1  23
ATOM     23  C   UNL     1       2.337  13.101  18.817  0.00  0.00    +0.000 C 
ATOM     24  O   UNL     1       2.560  12.239  17.982  0.00  0.00    +0.000 OA
BRANCH  23  26
ATOM     25  C   UNL     1       3.843  14.761  18.116  0.00  0.00    +0.000 C 
ATOM     26  O   UNL     1       3.206  14.081  19.196  0.00  0.00    +0.000 OA
ENDBRANCH  23  26
ENDBRANCH   1  23
TORSDOF 4
ENDMDL
MODEL 9
REMARK VINA RESULT:      -6.2      1.712      6.199
REMARK  Name = 
REMARK  5 active torsions:
REMARK  status: ('A' for Active; 'I' for Inactive)
REMARK    1  A    between atoms: C_1  and  O_2
REMARK    2  A    between atoms: O_2  and  C_3
REMARK    3  A    between atoms: C_3  and  C_5
REMARK    4  A    between atoms: N_9  and  C_10
REMARK    5  A    between atoms: N_18  and  C_19
REMARK                            x       y       z     vdW  Elec       q    Type
REMARK                         _______ _______ _______ _____ _____    ______ ____
ROOT
ATOM      1  C   UNL     1       2.771   4.113  20.408  0.00  0.00    +0.000 A 
ATOM      2  C   UNL     1       1.647   4.754  20.726  0.00  0.00    +0.000 A 
ATOM      3  C   UNL     1       1.489   6.204  20.548  0.00  0.00    +0.000 A 
ATOM      4  O   UNL     1       0.665   6.754  21.281  0.00  0.00    +0.000 OA
ATOM      5  N   UNL     1       2.250   6.827  19.545  0.00  0.00    +0.000 N 
ATOM      6  C   UNL     1       3.349   6.244  18.889  0.00  0.00    +0.000 A 
ATOM      7  N   UNL     1       3.736   6.690  17.725  0.00  0.00    +0.000 NA
ATOM      8  S   UNL     1       4.131   4.936  19.763  0.00  0.00    +0.000 S 
ENDROOT
BRANCH   5   9
ATOM      9  C   UNL     1       1.949   8.212  19.302  0.00  0.00    +0.000 A 
ATOM     10  C   UNL     1       1.388   9.004  20.319  0.00  0.00    +0.000 A 
ATOM     11  C   UNL     1       0.937  10.297  20.038  0.00  0.00    +0.000 A 
ATOM     12  C   UNL     1       1.080  10.813  18.755  0.00  0.00    +0.000 A 
ATOM     13  F   UNL     1       0.626  12.044  18.483  0.00  0.00    +0.000 F 
ATOM     14  C   UNL     1       1.670  10.064  17.746  0.00  0.00    +0.000 A 
ATOM     15  C   UNL     1       2.094   8.761  18.017  0.00  0.00    +0.000 A 
ENDBRANCH   5   9
BRANCH   7  16
ATOM     16  C   UNL     1       4.803   6.116  17.007  0.00  0.00    +0.000 A 
ATOM     17  C   UNL     1       6.112   6.616  17.084  0.00  0.00    +0.000 A 
ATOM     18  C   UNL     1       7.117   6.123  16.250  0.00  0.00    +0.000 A 
ATOM     19  C   UNL     1       6.840   5.055  15.411  0.00  0.00    +0.000 A 
ATOM     20  F   UNL     1       7.794   4.596  14.590  0.00  0.00    +0.000 F 
ATOM     21  C   UNL     1       5.587   4.454  15.414  0.00  0.00    +0.000 A 
ATOM     22  C   UNL     1       4.568   4.988  16.211  0.00  0.00    +0.000 A 
ENDBRANCH   7  16
BRANCH   1  23
ATOM     23  C   UNL     1       2.898   2.647  20.631  0.00  0.00    +0.000 C 
ATOM     24  O   UNL     1       3.563   2.138  21.520  0.00  0.00    +0.000 OA
BRANCH  23  26
ATOM     25  C   UNL     1       2.708   1.943  18.400  0.00  0.00    +0.000 C 
ATOM     26  O   UNL     1       2.152   1.971  19.713  0.00  0.00    +0.000 OA
ENDBRANCH  23  26
ENDBRANCH   1  23
TORSDOF 4
ENDMDL
