MODEL 1
REMARK VINA RESULT:      -7.3      0.000      0.000
REMARK  Name = 
REMARK  9 active torsions:
REMARK  status: ('A' for Active; 'I' for Inactive)
REMARK    1  A    between atoms: C_2  and  C_3
REMARK    2  A    between atoms: C_3  and  C_4
REMARK    3  A    between atoms: C_3  and  C_5
REMARK    4  A    between atoms: C_3  and  C_6
REMARK    5  A    between atoms: C_8  and  C_9
REMARK    6  A    between atoms: C_14  and  O_15
REMARK    7  A    between atoms: C_17  and  O_18
REMARK    8  A    between atoms: C_22  and  O_23
REMARK    9  A    between atoms: C_25  and  O_26
REMARK                            x       y       z     vdW  Elec       q    Type
REMARK                         _______ _______ _______ _____ _____    ______ ____
ROOT
ATOM      1  C   UNL     1      -0.621  10.550  19.320  0.00  0.00    +0.000 A 
ATOM      2  C   UNL     1       0.446   9.648  19.086  0.00  0.00    +0.000 A 
ATOM      3  C   UNL     1       1.257   9.083  20.114  0.00  0.00    +0.000 A 
ATOM      4  C   UNL     1       1.064   9.571  21.417  0.00  0.00    +0.000 A 
ATOM      5  C   UNL     1       0.069  10.509  21.679  0.00  0.00    +0.000 A 
ATOM      6  C   UNL     1      -0.766  10.976  20.654  0.00  0.00    +0.000 A 
ENDROOT
BRANCH   3   7
ATOM      7  C   UNL     1       2.080   7.851  19.847  0.00  0.00    +0.000 A 
ATOM      8  C   UNL     1       2.449   7.629  18.585  0.00  0.00    +0.000 A 
ATOM      9  C   UNL     1       2.780   6.253  18.209  0.00  0.00    +0.000 A 
ATOM     10  O   UNL     1       3.424   5.987  17.214  0.00  0.00    +0.000 OA
ATOM     11  C   UNL     1       2.166   5.257  19.071  0.00  0.00    +0.000 A 
ATOM     12  C   UNL     1       1.579   4.108  18.565  0.00  0.00    +0.000 A 
ATOM     13  C   UNL     1       1.256   3.076  19.426  0.00  0.00    +0.000 A 
ATOM     14  C   UNL     1       1.507   3.235  20.788  0.00  0.00    +0.000 A 
ATOM     15  C   UNL     1       1.914   4.481  21.307  0.00  0.00    +0.000 A 
ATOM     16  C   UNL     1       2.146   5.534  20.429  0.00  0.00    +0.000 A 
ATOM     17  O   UNL     1       2.200   6.860  20.863  0.00  0.00    +0.000 OA
BRANCH  12  18
ATOM     18  O   UNL     1       1.184   3.993  17.263  0.00  0.00    +0.000 OA
ATOM     19  H   UNL     1       1.585   4.727  16.752  0.00  0.00    +0.000 HD
ENDBRANCH  12  18
BRANCH  14  20
ATOM     20  O   UNL     1       1.308   2.191  21.636  0.00  0.00    +0.000 OA
ATOM     21  H   UNL     1       2.107   1.631  21.637  0.00  0.00    +0.000 HD
ENDBRANCH  14  20
ENDBRANCH   3   7
BRANCH   1  22
ATOM     22  C   UNL     1      -1.628  10.975  18.209  0.00  0.00    +0.000 C 
ATOM     23  C   UNL     1      -1.635   9.947  17.050  0.00  0.00    +0.000 C 
ATOM     24  C   UNL     1      -1.217  12.356  17.634  0.00  0.00    +0.000 C 
BRANCH  22  26
ATOM     25  C   UNL     1      -4.208  10.918  17.914  0.00  0.00    +0.000 C 
ATOM     26  C   UNL     1      -3.098  11.021  18.672  0.00  0.00    +0.000 C 
ENDBRANCH  22  26
ENDBRANCH   1  22
BRANCH   4  27
ATOM     27  O   UNL     1       1.768   9.154  22.510  0.00  0.00    +0.000 OA
ATOM     28  H   UNL     1       2.692   8.994  22.240  0.00  0.00    +0.000 HD
ENDBRANCH   4  27
BRANCH   6  29
ATOM     29  O   UNL     1      -1.757  11.855  20.978  0.00  0.00    +0.000 OA
ATOM     30  H   UNL     1      -2.366  11.431  21.608  0.00  0.00    +0.000 HD
ENDBRANCH   6  29
TORSDOF 7
ENDMDL
MODEL 2
REMARK VINA RESULT:      -7.2      1.175      1.701
REMARK  Name = 
REMARK  9 active torsions:
REMARK  status: ('A' for Active; 'I' for Inactive)
REMARK    1  A    between atoms: C_2  and  C_3
REMARK    2  A    between atoms: C_3  and  C_4
REMARK    3  A    between atoms: C_3  and  C_5
REMARK    4  A    between atoms: C_3  and  C_6
REMARK    5  A    between atoms: C_8  and  C_9
REMARK    6  A    between atoms: C_14  and  O_15
REMARK    7  A    between atoms: C_17  and  O_18
REMARK    8  A    between atoms: C_22  and  O_23
REMARK    9  A    between atoms: C_25  and  O_26
REMARK                            x       y       z     vdW  Elec       q    Type
REMARK                         _______ _______ _______ _____ _____    ______ ____
ROOT
ATOM      1  C   UNL     1      -1.524  10.421  18.309  0.00  0.00    +0.000 A 
ATOM      2  C   UNL     1      -0.327   9.670  18.211  0.00  0.00    +0.000 A 
ATOM      3  C   UNL     1       0.694   9.657  19.205  0.00  0.00    +0.000 A 
ATOM      4  C   UNL     1       0.554  10.558  20.274  0.00  0.00    +0.000 A 
ATOM      5  C   UNL     1      -0.577  11.364  20.373  0.00  0.00    +0.000 A 
ATOM      6  C   UNL     1      -1.601  11.285  19.419  0.00  0.00    +0.000 A 
ENDROOT
BRANCH   3   7
ATOM      7  C   UNL     1       1.718   8.554  19.233  0.00  0.00    +0.000 A 
ATOM      8  C   UNL     1       2.319   8.253  18.081  0.00  0.00    +0.000 A 
ATOM      9  C   UNL     1       2.902   6.916  17.950  0.00  0.00    +0.000 A 
ATOM     10  O   UNL     1       3.734   6.648  17.106  0.00  0.00    +0.000 OA
ATOM     11  C   UNL     1       2.303   5.937  18.843  0.00  0.00    +0.000 A 
ATOM     12  C   UNL     1       1.980   4.658  18.420  0.00  0.00    +0.000 A 
ATOM     13  C   UNL     1       1.670   3.691  19.358  0.00  0.00    +0.000 A 
ATOM     14  C   UNL     1       1.666   4.043  20.707  0.00  0.00    +0.000 A 
ATOM     15  C   UNL     1       1.799   5.389  21.103  0.00  0.00    +0.000 A 
ATOM     16  C   UNL     1       2.019   6.360  20.132  0.00  0.00    +0.000 A 
ATOM     17  O   UNL     1       1.810   7.717  20.382  0.00  0.00    +0.000 OA
BRANCH  12  18
ATOM     18  O   UNL     1       1.827   4.333  17.103  0.00  0.00    +0.000 OA
ATOM     19  H   UNL     1       2.715   4.243  16.700  0.00  0.00    +0.000 HD
ENDBRANCH  12  18
BRANCH  14  20
ATOM     20  O   UNL     1       1.483   3.083  21.653  0.00  0.00    +0.000 OA
ATOM     21  H   UNL     1       0.620   3.228  22.083  0.00  0.00    +0.000 HD
ENDBRANCH  14  20
ENDBRANCH   3   7
BRANCH   1  22
ATOM     22  C   UNL     1      -2.718  10.246  17.322  0.00  0.00    +0.000 C 
ATOM     23  C   UNL     1      -3.405  11.607  17.043  0.00  0.00    +0.000 C 
ATOM     24  C   UNL     1      -3.768   9.287  17.939  0.00  0.00    +0.000 C 
BRANCH  22  26
ATOM     25  C   UNL     1      -2.845  10.086  14.733  0.00  0.00    +0.000 C 
ATOM     26  C   UNL     1      -2.312   9.743  15.922  0.00  0.00    +0.000 C 
ENDBRANCH  22  26
ENDBRANCH   1  22
BRANCH   4  27
ATOM     27  O   UNL     1       1.448  10.688  21.297  0.00  0.00    +0.000 OA
ATOM     28  H   UNL     1       0.952  10.819  22.127  0.00  0.00    +0.000 HD
ENDBRANCH   4  27
BRANCH   6  29
ATOM     29  O   UNL     1      -2.710  12.061  19.595  0.00  0.00    +0.000 OA
ATOM     30  H   UNL     1      -3.443  11.690  19.073  0.00  0.00    +0.000 HD
ENDBRANCH   6  29
TORSDOF 7
ENDMDL
MODEL 3
REMARK VINA RESULT:      -7.1      0.335      1.227
REMARK  Name = 
REMARK  9 active torsions:
REMARK  status: ('A' for Active; 'I' for Inactive)
REMARK    1  A    between atoms: C_2  and  C_3
REMARK    2  A    between atoms: C_3  and  C_4
REMARK    3  A    between atoms: C_3  and  C_5
REMARK    4  A    between atoms: C_3  and  C_6
REMARK    5  A    between atoms: C_8  and  C_9
REMARK    6  A    between atoms: C_14  and  O_15
REMARK    7  A    between atoms: C_17  and  O_18
REMARK    8  A    between atoms: C_22  and  O_23
REMARK    9  A    between atoms: C_25  and  O_26
REMARK                            x       y       z     vdW  Elec       q    Type
REMARK                         _______ _______ _______ _____ _____    ______ ____
ROOT
ATOM      1  C   UNL     1      -0.587  10.520  19.419  0.00  0.00    +0.000 A 
ATOM      2  C   UNL     1       0.473   9.611  19.177  0.00  0.00    +0.000 A 
ATOM      3  C   UNL     1       1.278   9.030  20.200  0.00  0.00    +0.000 A 
ATOM      4  C   UNL     1       1.086   9.505  21.508  0.00  0.00    +0.000 A 
ATOM      5  C   UNL     1       0.099  10.449  21.779  0.00  0.00    +0.000 A 
ATOM      6  C   UNL     1      -0.730  10.933  20.758  0.00  0.00    +0.000 A 
ENDROOT
BRANCH   3   7
ATOM      7  C   UNL     1       2.091   7.794  19.921  0.00  0.00    +0.000 A 
ATOM      8  C   UNL     1       2.403   7.547  18.648  0.00  0.00    +0.000 A 
ATOM      9  C   UNL     1       2.720   6.164  18.285  0.00  0.00    +0.000 A 
ATOM     10  O   UNL     1       3.319   5.879  17.268  0.00  0.00    +0.000 OA
ATOM     11  C   UNL     1       2.149   5.184  19.195  0.00  0.00    +0.000 A 
ATOM     12  C   UNL     1       1.543   4.024  18.739  0.00  0.00    +0.000 A 
ATOM     13  C   UNL     1       1.261   3.009  19.635  0.00  0.00    +0.000 A 
ATOM     14  C   UNL     1       1.573   3.197  20.980  0.00  0.00    +0.000 A 
ATOM     15  C   UNL     1       2.000   4.454  21.455  0.00  0.00    +0.000 A 
ATOM     16  C   UNL     1       2.190   5.489  20.546  0.00  0.00    +0.000 A 
ATOM     17  O   UNL     1       2.260   6.824  20.950  0.00  0.00    +0.000 OA
BRANCH  12  18
ATOM     18  O   UNL     1       1.089   3.882  17.459  0.00  0.00    +0.000 OA
ATOM     19  H   UNL     1       1.716   4.334  16.857  0.00  0.00    +0.000 HD
ENDBRANCH  12  18
BRANCH  14  20
ATOM     20  O   UNL     1       1.416   2.170  21.858  0.00  0.00    +0.000 OA
ATOM     21  H   UNL     1       0.763   1.544  21.494  0.00  0.00    +0.000 HD
ENDBRANCH  14  20
ENDBRANCH   3   7
BRANCH   1  22
ATOM     22  C   UNL     1      -1.590  10.965  18.311  0.00  0.00    +0.000 C 
ATOM     23  C   UNL     1      -3.031  11.045  18.874  0.00  0.00    +0.000 C 
ATOM     24  C   UNL     1      -1.576   9.935  17.152  0.00  0.00    +0.000 C 
BRANCH  22  26
ATOM     25  C   UNL     1      -0.394  13.264  18.147  0.00  0.00    +0.000 C 
ATOM     26  C   UNL     1      -1.331  12.379  17.755  0.00  0.00    +0.000 C 
ENDBRANCH  22  26
ENDBRANCH   1  22
BRANCH   4  27
ATOM     27  O   UNL     1       1.786   9.071  22.597  0.00  0.00    +0.000 OA
ATOM     28  H   UNL     1       2.719   9.338  22.492  0.00  0.00    +0.000 HD
ENDBRANCH   4  27
BRANCH   6  29
ATOM     29  O   UNL     1      -1.715  11.817  21.090  0.00  0.00    +0.000 OA
ATOM     30  H   UNL     1      -1.308  12.637  21.419  0.00  0.00    +0.000 HD
ENDBRANCH   6  29
TORSDOF 7
ENDMDL
MODEL 4
REMARK VINA RESULT:      -7.1      1.118      1.397
REMARK  Name = 
REMARK  9 active torsions:
REMARK  status: ('A' for Active; 'I' for Inactive)
REMARK    1  A    between atoms: C_2  and  C_3
REMARK    2  A    between atoms: C_3  and  C_4
REMARK    3  A    between atoms: C_3  and  C_5
REMARK    4  A    between atoms: C_3  and  C_6
REMARK    5  A    between atoms: C_8  and  C_9
REMARK    6  A    between atoms: C_14  and  O_15
REMARK    7  A    between atoms: C_17  and  O_18
REMARK    8  A    between atoms: C_22  and  O_23
REMARK    9  A    between atoms: C_25  and  O_26
REMARK                            x       y       z     vdW  Elec       q    Type
REMARK                         _______ _______ _______ _____ _____    ______ ____
ROOT
ATOM      1  C   UNL     1      -1.492  10.431  18.329  0.00  0.00    +0.000 A 
ATOM      2  C   UNL     1      -0.299   9.673  18.231  0.00  0.00    +0.000 A 
ATOM      3  C   UNL     1       0.717   9.645  19.230  0.00  0.00    +0.000 A 
ATOM      4  C   UNL     1       0.576  10.538  20.306  0.00  0.00    +0.000 A 
ATOM      5  C   UNL     1      -0.551  11.350  20.406  0.00  0.00    +0.000 A 
ATOM      6  C   UNL     1      -1.570  11.286  19.446  0.00  0.00    +0.000 A 
ENDROOT
BRANCH   3   7
ATOM      7  C   UNL     1       1.733   8.535  19.255  0.00  0.00    +0.000 A 
ATOM      8  C   UNL     1       2.335   8.237  18.103  0.00  0.00    +0.000 A 
ATOM      9  C   UNL     1       2.909   6.897  17.966  0.00  0.00    +0.000 A 
ATOM     10  O   UNL     1       3.742   6.628  17.123  0.00  0.00    +0.000 OA
ATOM     11  C   UNL     1       2.303   5.917  18.852  0.00  0.00    +0.000 A 
ATOM     12  C   UNL     1       1.972   4.642  18.421  0.00  0.00    +0.000 A 
ATOM     13  C   UNL     1       1.654   3.672  19.353  0.00  0.00    +0.000 A 
ATOM     14  C   UNL     1       1.649   4.017  20.704  0.00  0.00    +0.000 A 
ATOM     15  C   UNL     1       1.789   5.360  21.108  0.00  0.00    +0.000 A 
ATOM     16  C   UNL     1       2.018   6.335  20.143  0.00  0.00    +0.000 A 
ATOM     17  O   UNL     1       1.817   7.692  20.400  0.00  0.00    +0.000 OA
BRANCH  12  18
ATOM     18  O   UNL     1       1.820   4.325  17.102  0.00  0.00    +0.000 OA
ATOM     19  H   UNL     1       2.098   5.096  16.564  0.00  0.00    +0.000 HD
ENDBRANCH  12  18
BRANCH  14  20
ATOM     20  O   UNL     1       1.457   3.053  21.644  0.00  0.00    +0.000 OA
ATOM     21  H   UNL     1       1.238   2.216  21.195  0.00  0.00    +0.000 HD
ENDBRANCH  14  20
ENDBRANCH   3   7
BRANCH   1  22
ATOM     22  C   UNL     1      -2.680  10.272  17.333  0.00  0.00    +0.000 C 
ATOM     23  C   UNL     1      -3.755   9.315  17.907  0.00  0.00    +0.000 C 
ATOM     24  C   UNL     1      -2.164   9.679  15.996  0.00  0.00    +0.000 C 
BRANCH  22  26
ATOM     25  C   UNL     1      -4.776  11.723  16.836  0.00  0.00    +0.000 C 
ATOM     26  C   UNL     1      -3.456  11.577  17.059  0.00  0.00    +0.000 C 
ENDBRANCH  22  26
ENDBRANCH   1  22
BRANCH   4  27
ATOM     27  O   UNL     1       1.466  10.653  21.335  0.00  0.00    +0.000 OA
ATOM     28  H   UNL     1       2.298  11.024  20.984  0.00  0.00    +0.000 HD
ENDBRANCH   4  27
BRANCH   6  29
ATOM     29  O   UNL     1      -2.674  12.067  19.622  0.00  0.00    +0.000 OA
ATOM     30  H   UNL     1      -3.395  11.730  19.061  0.00  0.00    +0.000 HD
ENDBRANCH   6  29
TORSDOF 7
ENDMDL
MODEL 5
REMARK VINA RESULT:      -7.1      2.654      7.470
REMARK  Name = 
REMARK  9 active torsions:
REMARK  status: ('A' for Active; 'I' for Inactive)
REMARK    1  A    between atoms: C_2  and  C_3
REMARK    2  A    between atoms: C_3  and  C_4
REMARK    3  A    between atoms: C_3  and  C_5
REMARK    4  A    between atoms: C_3  and  C_6
REMARK    5  A    between atoms: C_8  and  C_9
REMARK    6  A    between atoms: C_14  and  O_15
REMARK    7  A    between atoms: C_17  and  O_18
REMARK    8  A    between atoms: C_22  and  O_23
REMARK    9  A    between atoms: C_25  and  O_26
REMARK                            x       y       z     vdW  Elec       q    Type
REMARK                         _______ _______ _______ _____ _____    ______ ____
ROOT
ATOM      1  C   UNL     1       4.125   6.182  17.717  0.00  0.00    +0.000 A 
ATOM      2  C   UNL     1       3.214   7.251  17.530  0.00  0.00    +0.000 A 
ATOM      3  C   UNL     1       2.353   7.757  18.547  0.00  0.00    +0.000 A 
ATOM      4  C   UNL     1       2.319   7.051  19.761  0.00  0.00    +0.000 A 
ATOM      5  C   UNL     1       3.151   5.953  19.962  0.00  0.00    +0.000 A 
ATOM      6  C   UNL     1       4.046   5.539  18.967  0.00  0.00    +0.000 A 
ENDROOT
BRANCH   3   7
ATOM      7  C   UNL     1       1.727   9.119  18.409  0.00  0.00    +0.000 A 
ATOM      8  C   UNL     1       2.533  10.127  18.071  0.00  0.00    +0.000 A 
ATOM      9  C   UNL     1       2.104  11.483  18.419  0.00  0.00    +0.000 A 
ATOM     10  O   UNL     1       2.574  12.471  17.891  0.00  0.00    +0.000 OA
ATOM     11  C   UNL     1       1.159  11.522  19.523  0.00  0.00    +0.000 A 
ATOM     12  C   UNL     1       1.259  12.456  20.542  0.00  0.00    +0.000 A 
ATOM     13  C   UNL     1       0.199  12.627  21.413  0.00  0.00    +0.000 A 
ATOM     14  C   UNL     1      -0.934  11.830  21.253  0.00  0.00    +0.000 A 
ATOM     15  C   UNL     1      -0.938  10.753  20.343  0.00  0.00    +0.000 A 
ATOM     16  C   UNL     1       0.178  10.544  19.540  0.00  0.00    +0.000 A 
ATOM     17  O   UNL     1       0.403   9.330  18.889  0.00  0.00    +0.000 OA
BRANCH  12  18
ATOM     18  O   UNL     1       2.413  13.134  20.811  0.00  0.00    +0.000 OA
ATOM     19  H   UNL     1       2.441  13.330  21.771  0.00  0.00    +0.000 HD
ENDBRANCH  12  18
BRANCH  14  20
ATOM     20  O   UNL     1      -2.033  12.061  22.020  0.00  0.00    +0.000 OA
ATOM     21  H   UNL     1      -2.674  12.582  21.500  0.00  0.00    +0.000 HD
ENDBRANCH  14  20
ENDBRANCH   3   7
BRANCH   1  22
ATOM     22  C   UNL     1       5.207   5.797  16.662  0.00  0.00    +0.000 C 
ATOM     23  C   UNL     1       5.127   6.729  15.427  0.00  0.00    +0.000 C 
ATOM     24  C   UNL     1       4.976   4.338  16.189  0.00  0.00    +0.000 C 
BRANCH  22  26
ATOM     25  C   UNL     1       7.271   7.090  17.564  0.00  0.00    +0.000 C 
ATOM     26  C   UNL     1       6.658   5.961  17.156  0.00  0.00    +0.000 C 
ENDBRANCH  22  26
ENDBRANCH   1  22
BRANCH   4  27
ATOM     27  O   UNL     1       1.537   7.389  20.828  0.00  0.00    +0.000 OA
ATOM     28  H   UNL     1       2.027   7.183  21.647  0.00  0.00    +0.000 HD
ENDBRANCH   4  27
BRANCH   6  29
ATOM     29  O   UNL     1       4.875   4.489  19.239  0.00  0.00    +0.000 OA
ATOM     30  H   UNL     1       5.755   4.674  18.868  0.00  0.00    +0.000 HD
ENDBRANCH   6  29
TORSDOF 7
ENDMDL
MODEL 6
REMARK VINA RESULT:      -6.8      2.659      7.473
REMARK  Name = 
REMARK  9 active torsions:
REMARK  status: ('A' for Active; 'I' for Inactive)
REMARK    1  A    between atoms: C_2  and  C_3
REMARK    2  A    between atoms: C_3  and  C_4
REMARK    3  A    between atoms: C_3  and  C_5
REMARK    4  A    between atoms: C_3  and  C_6
REMARK    5  A    between atoms: C_8  and  C_9
REMARK    6  A    between atoms: C_14  and  O_15
REMARK    7  A    between atoms: C_17  and  O_18
REMARK    8  A    between atoms: C_22  and  O_23
REMARK    9  A    between atoms: C_25  and  O_26
REMARK                            x       y       z     vdW  Elec       q    Type
REMARK                         _______ _______ _______ _____ _____    ______ ____
ROOT
ATOM      1  C   UNL     1       4.145   6.220  17.778  0.00  0.00    +0.000 A 
ATOM      2  C   UNL     1       3.221   7.278  17.592  0.00  0.00    +0.000 A 
ATOM      3  C   UNL     1       2.329   7.749  18.598  0.00  0.00    +0.000 A 
ATOM      4  C   UNL     1       2.277   7.017  19.796  0.00  0.00    +0.000 A 
ATOM      5  C   UNL     1       3.121   5.928  19.994  0.00  0.00    +0.000 A 
ATOM      6  C   UNL     1       4.046   5.548  19.013  0.00  0.00    +0.000 A 
ENDROOT
BRANCH   3   7
ATOM      7  C   UNL     1       1.685   9.104  18.474  0.00  0.00    +0.000 A 
ATOM      8  C   UNL     1       2.472  10.120  18.115  0.00  0.00    +0.000 A 
ATOM      9  C   UNL     1       2.036  11.472  18.471  0.00  0.00    +0.000 A 
ATOM     10  O   UNL     1       2.483  12.464  17.930  0.00  0.00    +0.000 OA
ATOM     11  C   UNL     1       1.119  11.503  19.598  0.00  0.00    +0.000 A 
ATOM     12  C   UNL     1       1.234  12.440  20.613  0.00  0.00    +0.000 A 
ATOM     13  C   UNL     1       0.194  12.600  21.509  0.00  0.00    +0.000 A 
ATOM     14  C   UNL     1      -0.934  11.791  21.379  0.00  0.00    +0.000 A 
ATOM     15  C   UNL     1      -0.949  10.713  20.471  0.00  0.00    +0.000 A 
ATOM     16  C   UNL     1       0.149  10.514  19.641  0.00  0.00    +0.000 A 
ATOM     17  O   UNL     1       0.371   9.302  18.987  0.00  0.00    +0.000 OA
BRANCH  12  18
ATOM     18  O   UNL     1       2.387  13.131  20.852  0.00  0.00    +0.000 OA
ATOM     19  H   UNL     1       3.006  12.967  20.110  0.00  0.00    +0.000 HD
ENDBRANCH  12  18
BRANCH  14  20
ATOM     20  O   UNL     1      -2.017  12.012  22.172  0.00  0.00    +0.000 OA
ATOM     21  H   UNL     1      -2.747  11.441  21.872  0.00  0.00    +0.000 HD
ENDBRANCH  14  20
ENDBRANCH   3   7
BRANCH   1  22
ATOM     22  C   UNL     1       5.257   5.873  16.742  0.00  0.00    +0.000 C 
ATOM     23  C   UNL     1       6.662   6.166  17.326  0.00  0.00    +0.000 C 
ATOM     24  C   UNL     1       5.068   6.737  15.468  0.00  0.00    +0.000 C 
BRANCH  22  26
ATOM     25  C   UNL     1       5.909   3.831  15.277  0.00  0.00    +0.000 C 
ATOM     26  C   UNL     1       5.320   4.382  16.356  0.00  0.00    +0.000 C 
ENDBRANCH  22  26
ENDBRANCH   1  22
BRANCH   4  27
ATOM     27  O   UNL     1       1.465   7.320  20.851  0.00  0.00    +0.000 OA
ATOM     28  H   UNL     1       1.166   6.486  21.261  0.00  0.00    +0.000 HD
ENDBRANCH   4  27
BRANCH   6  29
ATOM     29  O   UNL     1       4.884   4.506  19.282  0.00  0.00    +0.000 OA
ATOM     30  H   UNL     1       4.608   4.083  20.114  0.00  0.00    +0.000 HD
ENDBRANCH   6  29
TORSDOF 7
ENDMDL
MODEL 7
REMARK VINA RESULT:      -6.8      2.217      3.818
REMARK  Name = 
REMARK  9 active torsions:
REMARK  status: ('A' for Active; 'I' for Inactive)
REMARK    1  A    between atoms: C_2  and  C_3
REMARK    2  A    between atoms: C_3  and  C_4
REMARK    3  A    between atoms: C_3  and  C_5
REMARK    4  A    between atoms: C_3  and  C_6
REMARK    5  A    between atoms: C_8  and  C_9
REMARK    6  A    between atoms: C_14  and  O_15
REMARK    7  A    between atoms: C_17  and  O_18
REMARK    8  A    between atoms: C_22  and  O_23
REMARK    9  A    between atoms: C_25  and  O_26
REMARK                            x       y       z     vdW  Elec       q    Type
REMARK                         _______ _______ _______ _____ _____    ______ ____
ROOT
ATOM      1  C   UNL     1       0.701  10.071  19.959  0.00  0.00    +0.000 A 
ATOM      2  C   UNL     1       1.503   9.246  19.132  0.00  0.00    +0.000 A 
ATOM      3  C   UNL     1       1.910   7.923  19.475  0.00  0.00    +0.000 A 
ATOM      4  C   UNL     1       1.607   7.480  20.773  0.00  0.00    +0.000 A 
ATOM      5  C   UNL     1       0.878   8.288  21.642  0.00  0.00    +0.000 A 
ATOM      6  C   UNL     1       0.421   9.549  21.237  0.00  0.00    +0.000 A 
ENDROOT
BRANCH   3   7
ATOM      7  C   UNL     1       2.397   6.975  18.412  0.00  0.00    +0.000 A 
ATOM      8  C   UNL     1       2.048   5.694  18.535  0.00  0.00    +0.000 A 
ATOM      9  C   UNL     1       2.883   4.698  17.860  0.00  0.00    +0.000 A 
ATOM     10  O   UNL     1       2.494   3.570  17.631  0.00  0.00    +0.000 OA
ATOM     11  C   UNL     1       4.239   5.158  17.607  0.00  0.00    +0.000 A 
ATOM     12  C   UNL     1       5.343   4.350  17.828  0.00  0.00    +0.000 A 
ATOM     13  C   UNL     1       6.572   4.729  17.324  0.00  0.00    +0.000 A 
ATOM     14  C   UNL     1       6.669   5.933  16.628  0.00  0.00    +0.000 A 
ATOM     15  C   UNL     1       5.586   6.834  16.587  0.00  0.00    +0.000 A 
ATOM     16  C   UNL     1       4.382   6.469  17.182  0.00  0.00    +0.000 A 
ATOM     17  O   UNL     1       3.399   7.408  17.497  0.00  0.00    +0.000 OA
BRANCH  12  18
ATOM     18  O   UNL     1       5.302   3.250  18.636  0.00  0.00    +0.000 OA
ATOM     19  H   UNL     1       4.455   2.783  18.481  0.00  0.00    +0.000 HD
ENDBRANCH  12  18
BRANCH  14  20
ATOM     20  O   UNL     1       7.839   6.268  16.021  0.00  0.00    +0.000 OA
ATOM     21  H   UNL     1       8.281   6.957  16.550  0.00  0.00    +0.000 HD
ENDBRANCH  14  20
ENDBRANCH   3   7
BRANCH   1  22
ATOM     22  C   UNL     1       0.087  11.418  19.470  0.00  0.00    +0.000 C 
ATOM     23  C   UNL     1       0.967  12.054  18.365  0.00  0.00    +0.000 C 
ATOM     24  C   UNL     1       0.001  12.412  20.658  0.00  0.00    +0.000 C 
BRANCH  22  26
ATOM     25  C   UNL     1      -1.849  10.173  18.267  0.00  0.00    +0.000 C 
ATOM     26  C   UNL     1      -1.298  11.278  18.806  0.00  0.00    +0.000 C 
ENDBRANCH  22  26
ENDBRANCH   1  22
BRANCH   4  27
ATOM     27  O   UNL     1       1.942   6.252  21.267  0.00  0.00    +0.000 OA
ATOM     28  H   UNL     1       2.029   5.631  20.519  0.00  0.00    +0.000 HD
ENDBRANCH   4  27
BRANCH   6  29
ATOM     29  O   UNL     1      -0.334  10.275  22.112  0.00  0.00    +0.000 OA
ATOM     30  H   UNL     1       0.256  10.727  22.741  0.00  0.00    +0.000 HD
ENDBRANCH   6  29
TORSDOF 7
ENDMDL
MODEL 8
REMARK VINA RESULT:      -6.7      2.246      3.973
REMARK  Name = 
REMARK  9 active torsions:
REMARK  status: ('A' for Active; 'I' for Inactive)
REMARK    1  A    between atoms: C_2  and  C_3
REMARK    2  A    between atoms: C_3  and  C_4
REMARK    3  A    between atoms: C_3  and  C_5
REMARK    4  A    between atoms: C_3  and  C_6
REMARK    5  A    between atoms: C_8  and  C_9
REMARK    6  A    between atoms: C_14  and  O_15
REMARK    7  A    between atoms: C_17  and  O_18
REMARK    8  A    between atoms: C_22  and  O_23
REMARK    9  A    between atoms: C_25  and  O_26
REMARK                            x       y       z     vdW  Elec       q    Type
REMARK                         _______ _______ _______ _____ _____    ______ ____
ROOT
ATOM      1  C   UNL     1       0.379   9.987  19.703  0.00  0.00    +0.000 A 
ATOM      2  C   UNL     1       1.228   9.180  18.905  0.00  0.00    +0.000 A 
ATOM      3  C   UNL     1       1.791   7.943  19.333  0.00  0.00    +0.000 A 
ATOM      4  C   UNL     1       1.597   7.586  20.678  0.00  0.00    +0.000 A 
ATOM      5  C   UNL     1       0.824   8.386  21.515  0.00  0.00    +0.000 A 
ATOM      6  C   UNL     1       0.215   9.553  21.032  0.00  0.00    +0.000 A 
ENDROOT
BRANCH   3   7
ATOM      7  C   UNL     1       2.330   6.961  18.327  0.00  0.00    +0.000 A 
ATOM      8  C   UNL     1       2.018   5.676  18.505  0.00  0.00    +0.000 A 
ATOM      9  C   UNL     1       2.897   4.676  17.896  0.00  0.00    +0.000 A 
ATOM     10  O   UNL     1       2.548   3.526  17.714  0.00  0.00    +0.000 OA
ATOM     11  C   UNL     1       4.243   5.166  17.649  0.00  0.00    +0.000 A 
ATOM     12  C   UNL     1       5.366   4.404  17.931  0.00  0.00    +0.000 A 
ATOM     13  C   UNL     1       6.594   4.798  17.434  0.00  0.00    +0.000 A 
ATOM     14  C   UNL     1       6.670   5.969  16.683  0.00  0.00    +0.000 A 
ATOM     15  C   UNL     1       5.561   6.832  16.576  0.00  0.00    +0.000 A 
ATOM     16  C   UNL     1       4.356   6.459  17.164  0.00  0.00    +0.000 A 
ATOM     17  O   UNL     1       3.339   7.381  17.413  0.00  0.00    +0.000 OA
BRANCH  12  18
ATOM     18  O   UNL     1       5.341   3.344  18.791  0.00  0.00    +0.000 OA
ATOM     19  H   UNL     1       4.548   2.804  18.594  0.00  0.00    +0.000 HD
ENDBRANCH  12  18
BRANCH  14  20
ATOM     20  O   UNL     1       7.842   6.311  16.085  0.00  0.00    +0.000 OA
ATOM     21  H   UNL     1       8.157   7.151  16.468  0.00  0.00    +0.000 HD
ENDBRANCH  14  20
ENDBRANCH   3   7
BRANCH   1  22
ATOM     22  C   UNL     1      -0.399  11.214  19.138  0.00  0.00    +0.000 C 
ATOM     23  C   UNL     1      -1.333  11.816  20.217  0.00  0.00    +0.000 C 
ATOM     24  C   UNL     1      -1.269  10.770  17.933  0.00  0.00    +0.000 C 
BRANCH  22  26
ATOM     25  C   UNL     1       1.612  12.845  19.338  0.00  0.00    +0.000 C 
ATOM     26  C   UNL     1       0.499  12.397  18.724  0.00  0.00    +0.000 C 
ENDBRANCH  22  26
ENDBRANCH   1  22
BRANCH   4  27
ATOM     27  O   UNL     1       2.084   6.448  21.253  0.00  0.00    +0.000 OA
ATOM     28  H   UNL     1       2.072   6.562  22.222  0.00  0.00    +0.000 HD
ENDBRANCH   4  27
BRANCH   6  29
ATOM     29  O   UNL     1      -0.574  10.270  21.884  0.00  0.00    +0.000 OA
ATOM     30  H   UNL     1      -0.011  10.854  22.422  0.00  0.00    +0.000 HD
ENDBRANCH   6  29
TORSDOF 7
ENDMDL
MODEL 9
REMARK VINA RESULT:      -6.6      2.175      7.542
REMARK  Name = 
REMARK  9 active torsions:
REMARK  status: ('A' for Active; 'I' for Inactive)
REMARK    1  A    between atoms: C_2  and  C_3
REMARK    2  A    between atoms: C_3  and  C_4
REMARK    3  A    between atoms: C_3  and  C_5
REMARK    4  A    between atoms: C_3  and  C_6
REMARK    5  A    between atoms: C_8  and  C_9
REMARK    6  A    between atoms: C_14  and  O_15
REMARK    7  A    between atoms: C_17  and  O_18
REMARK    8  A    between atoms: C_22  and  O_23
REMARK    9  A    between atoms: C_25  and  O_26
REMARK                            x       y       z     vdW  Elec       q    Type
REMARK                         _______ _______ _______ _____ _____    ______ ____
ROOT
ATOM      1  C   UNL     1       2.479   6.721  18.961  0.00  0.00    +0.000 A 
ATOM      2  C   UNL     1       1.569   7.627  19.558  0.00  0.00    +0.000 A 
ATOM      3  C   UNL     1       1.311   8.941  19.071  0.00  0.00    +0.000 A 
ATOM      4  C   UNL     1       2.120   9.400  18.018  0.00  0.00    +0.000 A 
ATOM      5  C   UNL     1       3.075   8.563  17.445  0.00  0.00    +0.000 A 
ATOM      6  C   UNL     1       3.238   7.246  17.897  0.00  0.00    +0.000 A 
ENDROOT
BRANCH   3   7
ATOM      7  C   UNL     1       0.069   9.681  19.489  0.00  0.00    +0.000 A 
ATOM      8  C   UNL     1      -0.670  10.224  18.521  0.00  0.00    +0.000 A 
ATOM      9  C   UNL     1      -1.549  11.338  18.885  0.00  0.00    +0.000 A 
ATOM     10  O   UNL     1      -2.482  11.686  18.187  0.00  0.00    +0.000 OA
ATOM     11  C   UNL     1      -1.124  12.040  20.084  0.00  0.00    +0.000 A 
ATOM     12  C   UNL     1      -1.133  13.423  20.168  0.00  0.00    +0.000 A 
ATOM     13  C   UNL     1      -0.981  14.029  21.401  0.00  0.00    +0.000 A 
ATOM     14  C   UNL     1      -0.796  13.225  22.525  0.00  0.00    +0.000 A 
ATOM     15  C   UNL     1      -0.589  11.837  22.394  0.00  0.00    +0.000 A 
ATOM     16  C   UNL     1      -0.655  11.260  21.130  0.00  0.00    +0.000 A 
ATOM     17  O   UNL     1      -0.125   9.997  20.865  0.00  0.00    +0.000 OA
BRANCH  12  18
ATOM     18  O   UNL     1      -1.156  14.229  19.066  0.00  0.00    +0.000 OA
ATOM     19  H   UNL     1      -0.232  14.424  18.806  0.00  0.00    +0.000 HD
ENDBRANCH  12  18
BRANCH  14  20
ATOM     20  O   UNL     1      -0.764  13.791  23.761  0.00  0.00    +0.000 OA
ATOM     21  H   UNL     1      -1.646  14.157  23.961  0.00  0.00    +0.000 HD
ENDBRANCH  14  20
ENDBRANCH   3   7
BRANCH   1  22
ATOM     22  C   UNL     1       2.578   5.221  19.376  0.00  0.00    +0.000 C 
ATOM     23  C   UNL     1       4.054   4.809  19.602  0.00  0.00    +0.000 C 
ATOM     24  C   UNL     1       1.989   4.330  18.252  0.00  0.00    +0.000 C 
BRANCH  22  26
ATOM     25  C   UNL     1       1.675   3.675  21.257  0.00  0.00    +0.000 C 
ATOM     26  C   UNL     1       1.892   4.890  20.717  0.00  0.00    +0.000 C 
ENDBRANCH  22  26
ENDBRANCH   1  22
BRANCH   4  27
ATOM     27  O   UNL     1       2.019  10.637  17.448  0.00  0.00    +0.000 OA
ATOM     28  H   UNL     1       1.865  11.291  18.156  0.00  0.00    +0.000 HD
ENDBRANCH   4  27
BRANCH   6  29
ATOM     29  O   UNL     1       4.153   6.455  17.264  0.00  0.00    +0.000 OA
ATOM     30  H   UNL     1       4.428   5.743  17.868  0.00  0.00    +0.000 HD
ENDBRANCH   6  29
TORSDOF 7
ENDMDL
