MODEL 1
REMARK VINA RESULT:      -5.8      0.000      0.000
REMARK  Name = 
REMARK  7 active torsions:
REMARK  status: ('A' for Active; 'I' for Inactive)
REMARK    1  A    between atoms: C_1  and  C_2
REMARK    2  A    between atoms: C_2  and  C_3
REMARK    3  A    between atoms: C_3  and  C_4
REMARK    4  A    between atoms: C_4  and  O_5
REMARK    5  A    between atoms: O_5  and  C_6
REMARK    6  A    between atoms: C_10  and  O_11
REMARK    7  A    between atoms: O_11  and  C_12
REMARK                            x       y       z     vdW  Elec       q    Type
REMARK                         _______ _______ _______ _____ _____    ______ ____
ROOT
ATOM      1  C   UNL     1       6.784   4.446  16.865  0.00  0.00    +0.000 A 
ATOM      2  N   UNL     1       7.665   4.535  15.858  0.00  0.00    +0.000 NA
ATOM      3  S   UNL     1       6.752   4.573  14.467  0.00  0.00    +0.000 S 
ATOM      4  N   UNL     1       5.225   4.425  15.118  0.00  0.00    +0.000 NA
ATOM      5  C   UNL     1       5.409   4.355  16.438  0.00  0.00    +0.000 A 
ENDROOT
BRANCH   1   6
ATOM      6  O   UNL     1       7.257   4.416  18.142  0.00  0.00    +0.000 OA
BRANCH   6   7
ATOM      7  C   UNL     1       6.990   5.607  18.915  0.00  0.00    +0.000 C 
BRANCH   7   8
ATOM      8  C   UNL     1       8.067   6.679  18.694  0.00  0.00    +0.000 C 
BRANCH   8  10
ATOM      9  C   UNL     1       8.208   9.094  18.009  0.00  0.00    +0.000 C 
ATOM     10  C   UNL     1       7.664   7.717  17.648  0.00  0.00    +0.000 C 
ENDBRANCH   8  10
ENDBRANCH   7   8
ENDBRANCH   6   7
ENDBRANCH   1   6
BRANCH   5  11
ATOM     11  O   UNL     1       4.261   4.097  17.087  0.00  0.00    +0.000 OA
BRANCH  11  12
ATOM     12  C   UNL     1       4.113   2.921  17.893  0.00  0.00    +0.000 C 
ATOM     13  C   UNL     1       3.744   3.263  19.361  0.00  0.00    +0.000 C 
ATOM     14  N   UNL     1       2.534   2.447  19.273  0.00  0.00    +0.000 NA
ATOM     15  C   UNL     1       2.743   2.216  17.840  0.00  0.00    +0.000 C 
ATOM     16  H   UNL     1       1.675   2.955  19.494  0.00  0.00    +0.000 HD
ENDBRANCH  11  12
ENDBRANCH   5  11
TORSDOF 6
ENDMDL
MODEL 2
REMARK VINA RESULT:      -5.8      2.747      4.181
REMARK  Name = 
REMARK  7 active torsions:
REMARK  status: ('A' for Active; 'I' for Inactive)
REMARK    1  A    between atoms: C_1  and  C_2
REMARK    2  A    between atoms: C_2  and  C_3
REMARK    3  A    between atoms: C_3  and  C_4
REMARK    4  A    between atoms: C_4  and  O_5
REMARK    5  A    between atoms: O_5  and  C_6
REMARK    6  A    between atoms: C_10  and  O_11
REMARK    7  A    between atoms: O_11  and  C_12
REMARK                            x       y       z     vdW  Elec       q    Type
REMARK                         _______ _______ _______ _____ _____    ______ ____
ROOT
ATOM      1  C   UNL     1       6.374   5.554  16.417  0.00  0.00    +0.000 A 
ATOM      2  N   UNL     1       7.444   6.048  17.057  0.00  0.00    +0.000 NA
ATOM      3  S   UNL     1       7.230   5.648  18.658  0.00  0.00    +0.000 S 
ATOM      4  N   UNL     1       5.749   4.888  18.573  0.00  0.00    +0.000 NA
ATOM      5  C   UNL     1       5.407   4.926  17.283  0.00  0.00    +0.000 A 
ENDROOT
BRANCH   1   6
ATOM      6  O   UNL     1       6.291   5.719  15.067  0.00  0.00    +0.000 OA
BRANCH   6   7
ATOM      7  C   UNL     1       6.799   4.612  14.289  0.00  0.00    +0.000 C 
BRANCH   7   8
ATOM      8  C   UNL     1       5.662   3.753  13.718  0.00  0.00    +0.000 C 
BRANCH   8  10
ATOM      9  C   UNL     1       4.530   3.230  11.535  0.00  0.00    +0.000 C 
ATOM     10  C   UNL     1       5.867   3.402  12.245  0.00  0.00    +0.000 C 
ENDBRANCH   8  10
ENDBRANCH   7   8
ENDBRANCH   6   7
ENDBRANCH   1   6
BRANCH   5  11
ATOM     11  O   UNL     1       4.162   4.463  17.086  0.00  0.00    +0.000 OA
BRANCH  11  12
ATOM     12  C   UNL     1       3.496   3.676  18.082  0.00  0.00    +0.000 C 
ATOM     13  C   UNL     1       1.976   3.539  17.797  0.00  0.00    +0.000 C 
ATOM     14  N   UNL     1       2.084   2.082  17.790  0.00  0.00    +0.000 NA
ATOM     15  C   UNL     1       3.545   2.146  17.899  0.00  0.00    +0.000 C 
ATOM     16  H   UNL     1       1.748   1.645  16.929  0.00  0.00    +0.000 HD
ENDBRANCH  11  12
ENDBRANCH   5  11
TORSDOF 6
ENDMDL
MODEL 3
REMARK VINA RESULT:      -5.7      2.636      4.124
REMARK  Name = 
REMARK  7 active torsions:
REMARK  status: ('A' for Active; 'I' for Inactive)
REMARK    1  A    between atoms: C_1  and  C_2
REMARK    2  A    between atoms: C_2  and  C_3
REMARK    3  A    between atoms: C_3  and  C_4
REMARK    4  A    between atoms: C_4  and  O_5
REMARK    5  A    between atoms: O_5  and  C_6
REMARK    6  A    between atoms: C_10  and  O_11
REMARK    7  A    between atoms: O_11  and  C_12
REMARK                            x       y       z     vdW  Elec       q    Type
REMARK                         _______ _______ _______ _____ _____    ______ ____
ROOT
ATOM      1  C   UNL     1       5.995   4.819  16.711  0.00  0.00    +0.000 A 
ATOM      2  N   UNL     1       7.270   5.212  16.834  0.00  0.00    +0.000 NA
ATOM      3  S   UNL     1       7.586   5.198  18.468  0.00  0.00    +0.000 S 
ATOM      4  N   UNL     1       6.092   4.742  19.049  0.00  0.00    +0.000 NA
ATOM      5  C   UNL     1       5.327   4.583  17.967  0.00  0.00    +0.000 A 
ENDROOT
BRANCH   1   6
ATOM      6  O   UNL     1       5.463   4.718  15.461  0.00  0.00    +0.000 OA
BRANCH   6   7
ATOM      7  C   UNL     1       6.051   3.689  14.634  0.00  0.00    +0.000 C 
BRANCH   7   8
ATOM      8  C   UNL     1       6.513   4.246  13.280  0.00  0.00    +0.000 C 
BRANCH   8  10
ATOM      9  C   UNL     1       4.689   3.314  11.822  0.00  0.00    +0.000 C 
ATOM     10  C   UNL     1       6.184   3.315  12.113  0.00  0.00    +0.000 C 
ENDBRANCH   8  10
ENDBRANCH   7   8
ENDBRANCH   6   7
ENDBRANCH   1   6
BRANCH   5  11
ATOM     11  O   UNL     1       4.046   4.344  18.296  0.00  0.00    +0.000 OA
BRANCH  11  12
ATOM     12  C   UNL     1       3.254   3.403  17.560  0.00  0.00    +0.000 C 
ATOM     13  C   UNL     1       3.497   1.943  18.029  0.00  0.00    +0.000 C 
ATOM     14  N   UNL     1       2.075   1.776  18.323  0.00  0.00    +0.000 NA
ATOM     15  C   UNL     1       1.806   3.190  18.046  0.00  0.00    +0.000 C 
ATOM     16  H   UNL     1       1.881   1.494  19.287  0.00  0.00    +0.000 HD
ENDBRANCH  11  12
ENDBRANCH   5  11
TORSDOF 6
ENDMDL
MODEL 4
REMARK VINA RESULT:      -5.6      2.804      4.319
REMARK  Name = 
REMARK  7 active torsions:
REMARK  status: ('A' for Active; 'I' for Inactive)
REMARK    1  A    between atoms: C_1  and  C_2
REMARK    2  A    between atoms: C_2  and  C_3
REMARK    3  A    between atoms: C_3  and  C_4
REMARK    4  A    between atoms: C_4  and  O_5
REMARK    5  A    between atoms: O_5  and  C_6
REMARK    6  A    between atoms: C_10  and  O_11
REMARK    7  A    between atoms: O_11  and  C_12
REMARK                            x       y       z     vdW  Elec       q    Type
REMARK                         _______ _______ _______ _____ _____    ______ ____
ROOT
ATOM      1  C   UNL     1       6.240   4.673  16.163  0.00  0.00    +0.000 A 
ATOM      2  N   UNL     1       7.456   5.221  16.308  0.00  0.00    +0.000 NA
ATOM      3  S   UNL     1       7.287   6.372  17.498  0.00  0.00    +0.000 S 
ATOM      4  N   UNL     1       5.656   6.230  17.811  0.00  0.00    +0.000 NA
ATOM      5  C   UNL     1       5.223   5.267  16.994  0.00  0.00    +0.000 A 
ENDROOT
BRANCH   1   6
ATOM      6  O   UNL     1       6.084   3.671  15.253  0.00  0.00    +0.000 OA
BRANCH   6   7
ATOM      7  C   UNL     1       5.544   4.090  13.979  0.00  0.00    +0.000 C 
BRANCH   7   8
ATOM      8  C   UNL     1       6.443   3.652  12.813  0.00  0.00    +0.000 C 
BRANCH   8  10
ATOM      9  C   UNL     1       4.306   3.306  11.535  0.00  0.00    +0.000 C 
ATOM     10  C   UNL     1       5.710   2.777  11.797  0.00  0.00    +0.000 C 
ENDBRANCH   8  10
ENDBRANCH   7   8
ENDBRANCH   6   7
ENDBRANCH   1   6
BRANCH   5  11
ATOM     11  O   UNL     1       3.887   5.138  17.044  0.00  0.00    +0.000 OA
BRANCH  11  12
ATOM     12  C   UNL     1       3.256   4.325  18.042  0.00  0.00    +0.000 C 
ATOM     13  C   UNL     1       1.707   4.411  17.971  0.00  0.00    +0.000 C 
ATOM     14  N   UNL     1       1.611   2.963  17.801  0.00  0.00    +0.000 NA
ATOM     15  C   UNL     1       3.068   2.834  17.700  0.00  0.00    +0.000 C 
ATOM     16  H   UNL     1       1.107   2.677  16.958  0.00  0.00    +0.000 HD
ENDBRANCH  11  12
ENDBRANCH   5  11
TORSDOF 6
ENDMDL
MODEL 5
REMARK VINA RESULT:      -5.6      2.909      4.417
REMARK  Name = 
REMARK  7 active torsions:
REMARK  status: ('A' for Active; 'I' for Inactive)
REMARK    1  A    between atoms: C_1  and  C_2
REMARK    2  A    between atoms: C_2  and  C_3
REMARK    3  A    between atoms: C_3  and  C_4
REMARK    4  A    between atoms: C_4  and  O_5
REMARK    5  A    between atoms: O_5  and  C_6
REMARK    6  A    between atoms: C_10  and  O_11
REMARK    7  A    between atoms: O_11  and  C_12
REMARK                            x       y       z     vdW  Elec       q    Type
REMARK                         _______ _______ _______ _____ _____    ______ ____
ROOT
ATOM      1  C   UNL     1       6.354   4.517  15.632  0.00  0.00    +0.000 A 
ATOM      2  N   UNL     1       7.167   5.550  15.896  0.00  0.00    +0.000 NA
ATOM      3  S   UNL     1       6.691   6.122  17.385  0.00  0.00    +0.000 S 
ATOM      4  N   UNL     1       5.411   5.100  17.693  0.00  0.00    +0.000 NA
ATOM      5  C   UNL     1       5.347   4.287  16.637  0.00  0.00    +0.000 A 
ENDROOT
BRANCH   1   6
ATOM      6  O   UNL     1       6.530   3.834  14.466  0.00  0.00    +0.000 OA
BRANCH   6   7
ATOM      7  C   UNL     1       7.007   4.634  13.361  0.00  0.00    +0.000 C 
BRANCH   7   8
ATOM      8  C   UNL     1       6.887   3.886  12.026  0.00  0.00    +0.000 C 
BRANCH   8  10
ATOM      9  C   UNL     1       5.931   1.649  11.390  0.00  0.00    +0.000 C 
ATOM     10  C   UNL     1       5.619   3.038  11.934  0.00  0.00    +0.000 C 
ENDBRANCH   8  10
ENDBRANCH   7   8
ENDBRANCH   6   7
ENDBRANCH   1   6
BRANCH   5  11
ATOM     11  O   UNL     1       4.266   3.490  16.690  0.00  0.00    +0.000 OA
BRANCH  11  12
ATOM     12  C   UNL     1       3.637   3.173  17.938  0.00  0.00    +0.000 C 
ATOM     13  C   UNL     1       2.089   3.163  17.826  0.00  0.00    +0.000 C 
ATOM     14  N   UNL     1       2.039   1.784  18.306  0.00  0.00    +0.000 NA
ATOM     15  C   UNL     1       3.501   1.677  18.282  0.00  0.00    +0.000 C 
ATOM     16  H   UNL     1       1.563   1.140  17.670  0.00  0.00    +0.000 HD
ENDBRANCH  11  12
ENDBRANCH   5  11
TORSDOF 6
ENDMDL
MODEL 6
REMARK VINA RESULT:      -5.5      2.658      3.972
REMARK  Name = 
REMARK  7 active torsions:
REMARK  status: ('A' for Active; 'I' for Inactive)
REMARK    1  A    between atoms: C_1  and  C_2
REMARK    2  A    between atoms: C_2  and  C_3
REMARK    3  A    between atoms: C_3  and  C_4
REMARK    4  A    between atoms: C_4  and  O_5
REMARK    5  A    between atoms: O_5  and  C_6
REMARK    6  A    between atoms: C_10  and  O_11
REMARK    7  A    between atoms: O_11  and  C_12
REMARK                            x       y       z     vdW  Elec       q    Type
REMARK                         _______ _______ _______ _____ _____    ______ ____
ROOT
ATOM      1  C   UNL     1       6.359   4.386  17.419  0.00  0.00    +0.000 A 
ATOM      2  N   UNL     1       7.633   4.783  17.546  0.00  0.00    +0.000 NA
ATOM      3  S   UNL     1       7.732   5.491  19.049  0.00  0.00    +0.000 S 
ATOM      4  N   UNL     1       6.145   5.353  19.540  0.00  0.00    +0.000 NA
ATOM      5  C   UNL     1       5.518   4.737  18.536  0.00  0.00    +0.000 A 
ENDROOT
BRANCH   1   6
ATOM      6  O   UNL     1       5.988   3.747  16.274  0.00  0.00    +0.000 OA
BRANCH   6   7
ATOM      7  C   UNL     1       6.612   4.250  15.071  0.00  0.00    +0.000 C 
BRANCH   7   8
ATOM      8  C   UNL     1       5.605   4.365  13.918  0.00  0.00    +0.000 C 
BRANCH   8  10
ATOM      9  C   UNL     1       7.077   3.971  11.918  0.00  0.00    +0.000 C 
ATOM     10  C   UNL     1       5.926   3.427  12.755  0.00  0.00    +0.000 C 
ENDBRANCH   8  10
ENDBRANCH   7   8
ENDBRANCH   6   7
ENDBRANCH   1   6
BRANCH   5  11
ATOM     11  O   UNL     1       4.191   4.679  18.742  0.00  0.00    +0.000 OA
BRANCH  11  12
ATOM     12  C   UNL     1       3.561   3.470  19.185  0.00  0.00    +0.000 C 
ATOM     13  C   UNL     1       3.237   2.515  18.005  0.00  0.00    +0.000 C 
ATOM     14  N   UNL     1       4.022   1.448  18.623  0.00  0.00    +0.000 NA
ATOM     15  C   UNL     1       4.493   2.347  19.681  0.00  0.00    +0.000 C 
ATOM     16  H   UNL     1       4.766   1.081  18.025  0.00  0.00    +0.000 HD
ENDBRANCH  11  12
ENDBRANCH   5  11
TORSDOF 6
ENDMDL
MODEL 7
REMARK VINA RESULT:      -5.5      3.000      5.762
REMARK  Name = 
REMARK  7 active torsions:
REMARK  status: ('A' for Active; 'I' for Inactive)
REMARK    1  A    between atoms: C_1  and  C_2
REMARK    2  A    between atoms: C_2  and  C_3
REMARK    3  A    between atoms: C_3  and  C_4
REMARK    4  A    between atoms: C_4  and  O_5
REMARK    5  A    between atoms: O_5  and  C_6
REMARK    6  A    between atoms: C_10  and  O_11
REMARK    7  A    between atoms: O_11  and  C_12
REMARK                            x       y       z     vdW  Elec       q    Type
REMARK                         _______ _______ _______ _____ _____    ______ ____
ROOT
ATOM      1  C   UNL     1       3.042   6.046  19.354  0.00  0.00    +0.000 A 
ATOM      2  N   UNL     1       2.345   7.190  19.307  0.00  0.00    +0.000 NA
ATOM      3  S   UNL     1       2.828   7.950  17.908  0.00  0.00    +0.000 S 
ATOM      4  N   UNL     1       3.968   6.863  17.365  0.00  0.00    +0.000 NA
ATOM      5  C   UNL     1       3.978   5.882  18.270  0.00  0.00    +0.000 A 
ENDROOT
BRANCH   1   6
ATOM      6  O   UNL     1       2.833   5.200  20.401  0.00  0.00    +0.000 OA
BRANCH   6   7
ATOM      7  C   UNL     1       1.457   4.800  20.590  0.00  0.00    +0.000 C 
BRANCH   7   8
ATOM      8  C   UNL     1       1.307   3.272  20.599  0.00  0.00    +0.000 C 
BRANCH   8  10
ATOM      9  C   UNL     1       1.784   2.722  18.193  0.00  0.00    +0.000 C 
ATOM     10  C   UNL     1       0.731   2.725  19.293  0.00  0.00    +0.000 C 
ENDBRANCH   8  10
ENDBRANCH   7   8
ENDBRANCH   6   7
ENDBRANCH   1   6
BRANCH   5  11
ATOM     11  O   UNL     1       4.956   4.993  18.027  0.00  0.00    +0.000 OA
BRANCH  11  12
ATOM     12  C   UNL     1       6.167   5.383  17.366  0.00  0.00    +0.000 C 
ATOM     13  C   UNL     1       7.428   5.011  18.190  0.00  0.00    +0.000 C 
ATOM     14  N   UNL     1       7.954   4.226  17.075  0.00  0.00    +0.000 NA
ATOM     15  C   UNL     1       6.719   4.409  16.307  0.00  0.00    +0.000 C 
ATOM     16  H   UNL     1       8.158   3.252  17.313  0.00  0.00    +0.000 HD
ENDBRANCH  11  12
ENDBRANCH   5  11
TORSDOF 6
ENDMDL
MODEL 8
REMARK VINA RESULT:      -5.5      2.722      4.331
REMARK  Name = 
REMARK  7 active torsions:
REMARK  status: ('A' for Active; 'I' for Inactive)
REMARK    1  A    between atoms: C_1  and  C_2
REMARK    2  A    between atoms: C_2  and  C_3
REMARK    3  A    between atoms: C_3  and  C_4
REMARK    4  A    between atoms: C_4  and  O_5
REMARK    5  A    between atoms: O_5  and  C_6
REMARK    6  A    between atoms: C_10  and  O_11
REMARK    7  A    between atoms: O_11  and  C_12
REMARK                            x       y       z     vdW  Elec       q    Type
REMARK                         _______ _______ _______ _____ _____    ______ ____
ROOT
ATOM      1  C   UNL     1       5.902   4.310  16.665  0.00  0.00    +0.000 A 
ATOM      2  N   UNL     1       7.152   4.795  16.627  0.00  0.00    +0.000 NA
ATOM      3  S   UNL     1       7.593   5.017  18.216  0.00  0.00    +0.000 S 
ATOM      4  N   UNL     1       6.186   4.549  18.977  0.00  0.00    +0.000 NA
ATOM      5  C   UNL     1       5.353   4.201  17.994  0.00  0.00    +0.000 A 
ENDROOT
BRANCH   1   6
ATOM      6  O   UNL     1       5.284   4.012  15.488  0.00  0.00    +0.000 OA
BRANCH   6   7
ATOM      7  C   UNL     1       6.099   4.209  14.310  0.00  0.00    +0.000 C 
BRANCH   7   8
ATOM      8  C   UNL     1       5.388   3.717  13.042  0.00  0.00    +0.000 C 
BRANCH   8  10
ATOM      9  C   UNL     1       5.706   1.905  11.329  0.00  0.00    +0.000 C 
ATOM     10  C   UNL     1       6.348   3.096  12.027  0.00  0.00    +0.000 C 
ENDBRANCH   8  10
ENDBRANCH   7   8
ENDBRANCH   6   7
ENDBRANCH   1   6
BRANCH   5  11
ATOM     11  O   UNL     1       4.123   3.927  18.459  0.00  0.00    +0.000 OA
BRANCH  11  12
ATOM     12  C   UNL     1       3.738   2.589  18.800  0.00  0.00    +0.000 C 
ATOM     13  C   UNL     1       2.637   2.559  19.894  0.00  0.00    +0.000 C 
ATOM     14  N   UNL     1       1.754   1.792  19.018  0.00  0.00    +0.000 NA
ATOM     15  C   UNL     1       2.685   1.922  17.893  0.00  0.00    +0.000 C 
ATOM     16  H   UNL     1       0.844   2.231  18.860  0.00  0.00    +0.000 HD
ENDBRANCH  11  12
ENDBRANCH   5  11
TORSDOF 6
ENDMDL
MODEL 9
REMARK VINA RESULT:      -5.4      2.567      4.091
REMARK  Name = 
REMARK  7 active torsions:
REMARK  status: ('A' for Active; 'I' for Inactive)
REMARK    1  A    between atoms: C_1  and  C_2
REMARK    2  A    between atoms: C_2  and  C_3
REMARK    3  A    between atoms: C_3  and  C_4
REMARK    4  A    between atoms: C_4  and  O_5
REMARK    5  A    between atoms: O_5  and  C_6
REMARK    6  A    between atoms: C_10  and  O_11
REMARK    7  A    between atoms: O_11  and  C_12
REMARK                            x       y       z     vdW  Elec       q    Type
REMARK                         _______ _______ _______ _____ _____    ______ ____
ROOT
ATOM      1  C   UNL     1       6.082   5.060  17.239  0.00  0.00    +0.000 A 
ATOM      2  N   UNL     1       6.908   6.110  17.125  0.00  0.00    +0.000 NA
ATOM      3  S   UNL     1       7.617   6.284  18.620  0.00  0.00    +0.000 S 
ATOM      4  N   UNL     1       6.847   5.062  19.451  0.00  0.00    +0.000 NA
ATOM      5  C   UNL     1       6.031   4.491  18.563  0.00  0.00    +0.000 A 
ENDROOT
BRANCH   1   6
ATOM      6  O   UNL     1       5.371   4.671  16.144  0.00  0.00    +0.000 OA
BRANCH   6   7
ATOM      7  C   UNL     1       6.010   3.657  15.336  0.00  0.00    +0.000 C 
BRANCH   7   8
ATOM      8  C   UNL     1       6.367   4.187  13.940  0.00  0.00    +0.000 C 
BRANCH   8  10
ATOM      9  C   UNL     1       5.908   2.755  11.926  0.00  0.00    +0.000 C 
ATOM     10  C   UNL     1       5.339   3.799  12.878  0.00  0.00    +0.000 C 
ENDBRANCH   8  10
ENDBRANCH   7   8
ENDBRANCH   6   7
ENDBRANCH   1   6
BRANCH   5  11
ATOM     11  O   UNL     1       5.241   3.567  19.136  0.00  0.00    +0.000 OA
BRANCH  11  12
ATOM     12  C   UNL     1       3.845   3.485  18.820  0.00  0.00    +0.000 C 
ATOM     13  C   UNL     1       3.532   2.301  17.866  0.00  0.00    +0.000 C 
ATOM     14  N   UNL     1       2.582   1.745  18.829  0.00  0.00    +0.000 NA
ATOM     15  C   UNL     1       2.951   2.746  19.835  0.00  0.00    +0.000 C 
ATOM     16  H   UNL     1       2.786   0.782  19.103  0.00  0.00    +0.000 HD
ENDBRANCH  11  12
ENDBRANCH   5  11
TORSDOF 6
ENDMDL
