MODEL 1
REMARK VINA RESULT:      -8.5      0.000      0.000
REMARK  Name = 
REMARK  7 active torsions:
REMARK  status: ('A' for Active; 'I' for Inactive)
REMARK    1  A    between atoms: C_2  and  C_3
REMARK    2  A    between atoms: C_3  and  O_4
REMARK    3  A    between atoms: O_4  and  C_5
REMARK    4  A    between atoms: C_5  and  C_7
REMARK    5  A    between atoms: C_7  and  N_19
REMARK    6  A    between atoms: C_8  and  C_9
REMARK    7  A    between atoms: C_20  and  C_22
REMARK                            x       y       z     vdW  Elec       q    Type
REMARK                         _______ _______ _______ _____ _____    ______ ____
ROOT
ATOM      1  C   UNL     1       4.700   4.036  17.269  0.00  0.00    +0.000 C 
ATOM      2  C   UNL     1       3.367   3.888  17.443  0.00  0.00    +0.000 C 
ENDROOT
BRANCH   2   3
ATOM      3  C   UNL     1       2.597   4.012  18.687  0.00  0.00    +0.000 A 
ATOM      4  C   UNL     1       2.212   2.827  19.328  0.00  0.00    +0.000 A 
ATOM      5  C   UNL     1       1.457   2.873  20.494  0.00  0.00    +0.000 A 
ATOM      6  C   UNL     1       1.072   4.105  21.020  0.00  0.00    +0.000 A 
ATOM      7  C   UNL     1       1.475   5.308  20.418  0.00  0.00    +0.000 A 
ATOM      8  C   UNL     1       1.107   6.543  20.980  0.00  0.00    +0.000 A 
ATOM      9  C   UNL     1       1.544   7.744  20.422  0.00  0.00    +0.000 A 
ATOM     10  C   UNL     1       2.351   7.728  19.293  0.00  0.00    +0.000 A 
ATOM     11  C   UNL     1       2.701   6.511  18.706  0.00  0.00    +0.000 A 
ATOM     12  C   UNL     1       2.268   5.277  19.246  0.00  0.00    +0.000 A 
ENDBRANCH   2   3
BRANCH   1  13
ATOM     13  N   UNL     1       5.327   3.923  16.030  0.00  0.00    +0.000 N 
ATOM     14  C   UNL     1       5.586   4.935  15.119  0.00  0.00    +0.000 C 
ATOM     15  O   UNL     1       5.336   6.126  15.281  0.00  0.00    +0.000 OA
ATOM     16  H   UNL     1       5.594   2.972  15.791  0.00  0.00    +0.000 HD
BRANCH  14  17
ATOM     17  C   UNL     1       6.188   4.545  13.812  0.00  0.00    +0.000 A 
ATOM     18  C   UNL     1       5.562   3.512  13.098  0.00  0.00    +0.000 A 
ATOM     19  C   UNL     1       6.060   3.093  11.866  0.00  0.00    +0.000 A 
ATOM     20  C   UNL     1       7.188   3.712  11.335  0.00  0.00    +0.000 A 
ATOM     21  C   UNL     1       7.806   4.756  12.027  0.00  0.00    +0.000 A 
ATOM     22  C   UNL     1       7.307   5.179  13.263  0.00  0.00    +0.000 A 
ENDBRANCH  14  17
ENDBRANCH   1  13
BRANCH   1  23
ATOM     23  C   UNL     1       5.591   4.362  18.458  0.00  0.00    +0.000 C 
ATOM     24  O   UNL     1       5.757   3.669  19.450  0.00  0.00    +0.000 OA
BRANCH  23  25
ATOM     25  O   UNL     1       6.140   5.603  18.278  0.00  0.00    +0.000 OA
BRANCH  25  26
ATOM     26  C   UNL     1       7.567   5.655  18.434  0.00  0.00    +0.000 C 
BRANCH  26  28
ATOM     27  C   UNL     1       7.735   8.003  17.553  0.00  0.00    +0.000 C 
ATOM     28  C   UNL     1       8.048   7.074  18.470  0.00  0.00    +0.000 C 
ENDBRANCH  26  28
ENDBRANCH  25  26
ENDBRANCH  23  25
ENDBRANCH   1  23
TORSDOF 7
ENDMDL
MODEL 2
REMARK VINA RESULT:      -8.5      1.009      1.606
REMARK  Name = 
REMARK  7 active torsions:
REMARK  status: ('A' for Active; 'I' for Inactive)
REMARK    1  A    between atoms: C_2  and  C_3
REMARK    2  A    between atoms: C_3  and  O_4
REMARK    3  A    between atoms: O_4  and  C_5
REMARK    4  A    between atoms: C_5  and  C_7
REMARK    5  A    between atoms: C_7  and  N_19
REMARK    6  A    between atoms: C_8  and  C_9
REMARK    7  A    between atoms: C_20  and  C_22
REMARK                            x       y       z     vdW  Elec       q    Type
REMARK                         _______ _______ _______ _____ _____    ______ ____
ROOT
ATOM      1  C   UNL     1       4.570   4.949  17.469  0.00  0.00    +0.000 C 
ATOM      2  C   UNL     1       3.397   5.617  17.547  0.00  0.00    +0.000 C 
ENDROOT
BRANCH   2   3
ATOM      3  C   UNL     1       2.713   6.109  18.750  0.00  0.00    +0.000 A 
ATOM      4  C   UNL     1       2.555   5.211  19.815  0.00  0.00    +0.000 A 
ATOM      5  C   UNL     1       1.892   5.603  20.971  0.00  0.00    +0.000 A 
ATOM      6  C   UNL     1       1.371   6.892  21.066  0.00  0.00    +0.000 A 
ATOM      7  C   UNL     1       1.547   7.823  20.029  0.00  0.00    +0.000 A 
ATOM      8  C   UNL     1       1.046   9.130  20.153  0.00  0.00    +0.000 A 
ATOM      9  C   UNL     1       1.258  10.079  19.154  0.00  0.00    +0.000 A 
ATOM     10  C   UNL     1       1.971   9.734  18.014  0.00  0.00    +0.000 A 
ATOM     11  C   UNL     1       2.451   8.432  17.862  0.00  0.00    +0.000 A 
ATOM     12  C   UNL     1       2.245   7.446  18.856  0.00  0.00    +0.000 A 
ENDBRANCH   2   3
BRANCH   1  13
ATOM     13  N   UNL     1       5.145   4.551  16.264  0.00  0.00    +0.000 N 
ATOM     14  C   UNL     1       5.569   5.362  15.222  0.00  0.00    +0.000 C 
ATOM     15  O   UNL     1       5.543   6.590  15.214  0.00  0.00    +0.000 OA
ATOM     16  H   UNL     1       5.230   3.544  16.162  0.00  0.00    +0.000 HD
BRANCH  14  17
ATOM     17  C   UNL     1       6.067   4.691  13.988  0.00  0.00    +0.000 A 
ATOM     18  C   UNL     1       5.220   3.753  13.380  0.00  0.00    +0.000 A 
ATOM     19  C   UNL     1       5.612   3.086  12.220  0.00  0.00    +0.000 A 
ATOM     20  C   UNL     1       6.854   3.361  11.656  0.00  0.00    +0.000 A 
ATOM     21  C   UNL     1       7.696   4.308  12.242  0.00  0.00    +0.000 A 
ATOM     22  C   UNL     1       7.305   4.980  13.404  0.00  0.00    +0.000 A 
ENDBRANCH  14  17
ENDBRANCH   1  13
BRANCH   1  23
ATOM     23  C   UNL     1       5.339   4.612  18.737  0.00  0.00    +0.000 C 
ATOM     24  O   UNL     1       5.256   3.579  19.383  0.00  0.00    +0.000 OA
BRANCH  23  25
ATOM     25  O   UNL     1       6.108   5.688  19.092  0.00  0.00    +0.000 OA
BRANCH  25  26
ATOM     26  C   UNL     1       7.453   5.657  18.586  0.00  0.00    +0.000 C 
BRANCH  26  28
ATOM     27  C   UNL     1       7.722   7.919  17.525  0.00  0.00    +0.000 C 
ATOM     28  C   UNL     1       8.020   7.041  18.495  0.00  0.00    +0.000 C 
ENDBRANCH  26  28
ENDBRANCH  25  26
ENDBRANCH  23  25
ENDBRANCH   1  23
TORSDOF 7
ENDMDL
MODEL 3
REMARK VINA RESULT:      -8.3      1.007      1.318
REMARK  Name = 
REMARK  7 active torsions:
REMARK  status: ('A' for Active; 'I' for Inactive)
REMARK    1  A    between atoms: C_2  and  C_3
REMARK    2  A    between atoms: C_3  and  O_4
REMARK    3  A    between atoms: O_4  and  C_5
REMARK    4  A    between atoms: C_5  and  C_7
REMARK    5  A    between atoms: C_7  and  N_19
REMARK    6  A    between atoms: C_8  and  C_9
REMARK    7  A    between atoms: C_20  and  C_22
REMARK                            x       y       z     vdW  Elec       q    Type
REMARK                         _______ _______ _______ _____ _____    ______ ____
ROOT
ATOM      1  C   UNL     1       4.790   4.561  17.055  0.00  0.00    +0.000 C 
ATOM      2  C   UNL     1       3.483   4.651  17.391  0.00  0.00    +0.000 C 
ENDROOT
BRANCH   2   3
ATOM      3  C   UNL     1       2.902   5.177  18.633  0.00  0.00    +0.000 A 
ATOM      4  C   UNL     1       2.776   4.292  19.713  0.00  0.00    +0.000 A 
ATOM      5  C   UNL     1       2.208   4.718  20.907  0.00  0.00    +0.000 A 
ATOM      6  C   UNL     1       1.751   6.029  21.026  0.00  0.00    +0.000 A 
ATOM      7  C   UNL     1       1.898   6.947  19.974  0.00  0.00    +0.000 A 
ATOM      8  C   UNL     1       1.463   8.275  20.121  0.00  0.00    +0.000 A 
ATOM      9  C   UNL     1       1.650   9.209  19.102  0.00  0.00    +0.000 A 
ATOM     10  C   UNL     1       2.271   8.828  17.921  0.00  0.00    +0.000 A 
ATOM     11  C   UNL     1       2.683   7.506  17.748  0.00  0.00    +0.000 A 
ATOM     12  C   UNL     1       2.501   6.534  18.760  0.00  0.00    +0.000 A 
ENDBRANCH   2   3
BRANCH   1  13
ATOM     13  N   UNL     1       5.232   4.067  15.830  0.00  0.00    +0.000 N 
ATOM     14  C   UNL     1       5.538   4.790  14.688  0.00  0.00    +0.000 C 
ATOM     15  O   UNL     1       5.508   6.014  14.586  0.00  0.00    +0.000 OA
ATOM     16  H   UNL     1       5.308   3.053  15.800  0.00  0.00    +0.000 HD
BRANCH  14  17
ATOM     17  C   UNL     1       5.902   4.021  13.464  0.00  0.00    +0.000 A 
ATOM     18  C   UNL     1       4.871   3.334  12.807  0.00  0.00    +0.000 A 
ATOM     19  C   UNL     1       5.129   2.596  11.653  0.00  0.00    +0.000 A 
ATOM     20  C   UNL     1       6.424   2.547  11.144  0.00  0.00    +0.000 A 
ATOM     21  C   UNL     1       7.453   3.245  11.779  0.00  0.00    +0.000 A 
ATOM     22  C   UNL     1       7.197   3.988  12.935  0.00  0.00    +0.000 A 
ENDBRANCH  14  17
ENDBRANCH   1  13
BRANCH   1  23
ATOM     23  C   UNL     1       5.860   5.030  18.029  0.00  0.00    +0.000 C 
ATOM     24  O   UNL     1       6.420   4.350  18.875  0.00  0.00    +0.000 OA
BRANCH  23  25
ATOM     25  O   UNL     1       6.062   6.374  17.857  0.00  0.00    +0.000 OA
BRANCH  25  26
ATOM     26  C   UNL     1       7.362   6.726  17.358  0.00  0.00    +0.000 C 
BRANCH  26  28
ATOM     27  C   UNL     1       8.231   8.998  17.992  0.00  0.00    +0.000 C 
ATOM     28  C   UNL     1       8.038   7.700  18.274  0.00  0.00    +0.000 C 
ENDBRANCH  26  28
ENDBRANCH  25  26
ENDBRANCH  23  25
ENDBRANCH   1  23
TORSDOF 7
ENDMDL
MODEL 4
REMARK VINA RESULT:      -8.2      1.008      2.518
REMARK  Name = 
REMARK  7 active torsions:
REMARK  status: ('A' for Active; 'I' for Inactive)
REMARK    1  A    between atoms: C_2  and  C_3
REMARK    2  A    between atoms: C_3  and  O_4
REMARK    3  A    between atoms: O_4  and  C_5
REMARK    4  A    between atoms: C_5  and  C_7
REMARK    5  A    between atoms: C_7  and  N_19
REMARK    6  A    between atoms: C_8  and  C_9
REMARK    7  A    between atoms: C_20  and  C_22
REMARK                            x       y       z     vdW  Elec       q    Type
REMARK                         _______ _______ _______ _____ _____    ______ ____
ROOT
ATOM      1  C   UNL     1       4.765   5.321  17.138  0.00  0.00    +0.000 C 
ATOM      2  C   UNL     1       3.462   5.612  17.350  0.00  0.00    +0.000 C 
ENDROOT
BRANCH   2   3
ATOM      3  C   UNL     1       2.763   5.754  18.635  0.00  0.00    +0.000 A 
ATOM      4  C   UNL     1       2.516   7.055  19.094  0.00  0.00    +0.000 A 
ATOM      5  C   UNL     1       1.885   7.260  20.315  0.00  0.00    +0.000 A 
ATOM      6  C   UNL     1       1.506   6.165  21.090  0.00  0.00    +0.000 A 
ATOM      7  C   UNL     1       1.707   4.851  20.636  0.00  0.00    +0.000 A 
ATOM      8  C   UNL     1       1.289   3.757  21.413  0.00  0.00    +0.000 A 
ATOM      9  C   UNL     1       1.437   2.450  20.951  0.00  0.00    +0.000 A 
ATOM     10  C   UNL     1       2.008   2.217  19.708  0.00  0.00    +0.000 A 
ATOM     11  C   UNL     1       2.455   3.291  18.936  0.00  0.00    +0.000 A 
ATOM     12  C   UNL     1       2.325   4.628  19.381  0.00  0.00    +0.000 A 
ENDBRANCH   2   3
BRANCH   1  13
ATOM     13  N   UNL     1       5.333   5.237  15.869  0.00  0.00    +0.000 N 
ATOM     14  C   UNL     1       5.800   4.101  15.226  0.00  0.00    +0.000 C 
ATOM     15  O   UNL     1       5.747   2.956  15.666  0.00  0.00    +0.000 OA
ATOM     16  H   UNL     1       5.417   6.133  15.396  0.00  0.00    +0.000 HD
BRANCH  14  17
ATOM     17  C   UNL     1       6.456   4.283  13.900  0.00  0.00    +0.000 A 
ATOM     18  C   UNL     1       7.416   5.301  13.791  0.00  0.00    +0.000 A 
ATOM     19  C   UNL     1       8.077   5.531  12.586  0.00  0.00    +0.000 A 
ATOM     20  C   UNL     1       7.787   4.737  11.481  0.00  0.00    +0.000 A 
ATOM     21  C   UNL     1       6.849   3.708  11.583  0.00  0.00    +0.000 A 
ATOM     22  C   UNL     1       6.185   3.473  12.792  0.00  0.00    +0.000 A 
ENDBRANCH  14  17
ENDBRANCH   1  13
BRANCH   1  23
ATOM     23  C   UNL     1       5.694   5.084  18.319  0.00  0.00    +0.000 C 
ATOM     24  O   UNL     1       5.874   4.024  18.899  0.00  0.00    +0.000 OA
BRANCH  23  25
ATOM     25  O   UNL     1       6.262   6.275  18.686  0.00  0.00    +0.000 OA
BRANCH  25  26
ATOM     26  C   UNL     1       7.633   6.433  18.288  0.00  0.00    +0.000 C 
BRANCH  26  28
ATOM     27  C   UNL     1       7.975   8.884  17.849  0.00  0.00    +0.000 C 
ATOM     28  C   UNL     1       7.796   7.631  17.403  0.00  0.00    +0.000 C 
ENDBRANCH  26  28
ENDBRANCH  25  26
ENDBRANCH  23  25
ENDBRANCH   1  23
TORSDOF 7
ENDMDL
MODEL 5
REMARK VINA RESULT:      -8.2      0.655      2.207
REMARK  Name = 
REMARK  7 active torsions:
REMARK  status: ('A' for Active; 'I' for Inactive)
REMARK    1  A    between atoms: C_2  and  C_3
REMARK    2  A    between atoms: C_3  and  O_4
REMARK    3  A    between atoms: O_4  and  C_5
REMARK    4  A    between atoms: C_5  and  C_7
REMARK    5  A    between atoms: C_7  and  N_19
REMARK    6  A    between atoms: C_8  and  C_9
REMARK    7  A    between atoms: C_20  and  C_22
REMARK                            x       y       z     vdW  Elec       q    Type
REMARK                         _______ _______ _______ _____ _____    ______ ____
ROOT
ATOM      1  C   UNL     1       4.846   4.712  17.220  0.00  0.00    +0.000 C 
ATOM      2  C   UNL     1       3.523   4.933  17.392  0.00  0.00    +0.000 C 
ENDROOT
BRANCH   2   3
ATOM      3  C   UNL     1       2.821   5.312  18.625  0.00  0.00    +0.000 A 
ATOM      4  C   UNL     1       2.579   6.676  18.836  0.00  0.00    +0.000 A 
ATOM      5  C   UNL     1       1.945   7.106  19.995  0.00  0.00    +0.000 A 
ATOM      6  C   UNL     1       1.559   6.174  20.958  0.00  0.00    +0.000 A 
ATOM      7  C   UNL     1       1.756   4.799  20.755  0.00  0.00    +0.000 A 
ATOM      8  C   UNL     1       1.331   3.869  21.720  0.00  0.00    +0.000 A 
ATOM      9  C   UNL     1       1.474   2.498  21.508  0.00  0.00    +0.000 A 
ATOM     10  C   UNL     1       2.047   2.037  20.331  0.00  0.00    +0.000 A 
ATOM     11  C   UNL     1       2.501   2.948  19.376  0.00  0.00    +0.000 A 
ATOM     12  C   UNL     1       2.376   4.345  19.566  0.00  0.00    +0.000 A 
ENDBRANCH   2   3
BRANCH   1  13
ATOM     13  N   UNL     1       5.412   4.381  15.991  0.00  0.00    +0.000 N 
ATOM     14  C   UNL     1       5.710   5.236  14.941  0.00  0.00    +0.000 C 
ATOM     15  O   UNL     1       5.558   6.455  14.944  0.00  0.00    +0.000 OA
ATOM     16  H   UNL     1       5.597   3.388  15.878  0.00  0.00    +0.000 HD
BRANCH  14  17
ATOM     17  C   UNL     1       6.228   4.625  13.684  0.00  0.00    +0.000 A 
ATOM     18  C   UNL     1       5.512   3.541  13.153  0.00  0.00    +0.000 A 
ATOM     19  C   UNL     1       5.929   2.919  11.977  0.00  0.00    +0.000 A 
ATOM     20  C   UNL     1       7.064   3.383  11.320  0.00  0.00    +0.000 A 
ATOM     21  C   UNL     1       7.772   4.475  11.828  0.00  0.00    +0.000 A 
ATOM     22  C   UNL     1       7.355   5.102  13.006  0.00  0.00    +0.000 A 
ENDBRANCH  14  17
ENDBRANCH   1  13
BRANCH   1  23
ATOM     23  C   UNL     1       5.798   4.839  18.399  0.00  0.00    +0.000 C 
ATOM     24  O   UNL     1       6.110   3.952  19.178  0.00  0.00    +0.000 OA
BRANCH  23  25
ATOM     25  O   UNL     1       6.214   6.140  18.499  0.00  0.00    +0.000 OA
BRANCH  25  26
ATOM     26  C   UNL     1       7.547   6.382  18.022  0.00  0.00    +0.000 C 
BRANCH  26  28
ATOM     27  C   UNL     1       8.211   8.806  18.021  0.00  0.00    +0.000 C 
ATOM     28  C   UNL     1       7.656   7.746  17.412  0.00  0.00    +0.000 C 
ENDBRANCH  26  28
ENDBRANCH  25  26
ENDBRANCH  23  25
ENDBRANCH   1  23
TORSDOF 7
ENDMDL
MODEL 6
REMARK VINA RESULT:      -8.2      1.508      3.075
REMARK  Name = 
REMARK  7 active torsions:
REMARK  status: ('A' for Active; 'I' for Inactive)
REMARK    1  A    between atoms: C_2  and  C_3
REMARK    2  A    between atoms: C_3  and  O_4
REMARK    3  A    between atoms: O_4  and  C_5
REMARK    4  A    between atoms: C_5  and  C_7
REMARK    5  A    between atoms: C_7  and  N_19
REMARK    6  A    between atoms: C_8  and  C_9
REMARK    7  A    between atoms: C_20  and  C_22
REMARK                            x       y       z     vdW  Elec       q    Type
REMARK                         _______ _______ _______ _____ _____    ______ ____
ROOT
ATOM      1  C   UNL     1       4.323   5.111  17.535  0.00  0.00    +0.000 C 
ATOM      2  C   UNL     1       3.154   5.786  17.606  0.00  0.00    +0.000 C 
ENDROOT
BRANCH   2   3
ATOM      3  C   UNL     1       2.492   6.327  18.800  0.00  0.00    +0.000 A 
ATOM      4  C   UNL     1       2.282   5.452  19.874  0.00  0.00    +0.000 A 
ATOM      5  C   UNL     1       1.635   5.892  21.022  0.00  0.00    +0.000 A 
ATOM      6  C   UNL     1       1.183   7.208  21.100  0.00  0.00    +0.000 A 
ATOM      7  C   UNL     1       1.413   8.116  20.054  0.00  0.00    +0.000 A 
ATOM      8  C   UNL     1       0.980   9.449  20.160  0.00  0.00    +0.000 A 
ATOM      9  C   UNL     1       1.247  10.373  19.151  0.00  0.00    +0.000 A 
ATOM     10  C   UNL     1       1.946   9.978  18.019  0.00  0.00    +0.000 A 
ATOM     11  C   UNL     1       2.357   8.651  17.884  0.00  0.00    +0.000 A 
ATOM     12  C   UNL     1       2.095   7.689  18.889  0.00  0.00    +0.000 A 
ENDBRANCH   2   3
BRANCH   1  13
ATOM     13  N   UNL     1       4.877   4.664  16.337  0.00  0.00    +0.000 N 
ATOM     14  C   UNL     1       5.574   5.410  15.399  0.00  0.00    +0.000 C 
ATOM     15  O   UNL     1       5.858   6.601  15.498  0.00  0.00    +0.000 OA
ATOM     16  H   UNL     1       4.715   3.678  16.153  0.00  0.00    +0.000 HD
BRANCH  14  17
ATOM     17  C   UNL     1       5.988   4.721  14.144  0.00  0.00    +0.000 A 
ATOM     18  C   UNL     1       7.236   5.065  13.603  0.00  0.00    +0.000 A 
ATOM     19  C   UNL     1       7.696   4.461  12.434  0.00  0.00    +0.000 A 
ATOM     20  C   UNL     1       6.912   3.501  11.801  0.00  0.00    +0.000 A 
ATOM     21  C   UNL     1       5.678   3.136  12.343  0.00  0.00    +0.000 A 
ATOM     22  C   UNL     1       5.215   3.738  13.517  0.00  0.00    +0.000 A 
ENDBRANCH  14  17
ENDBRANCH   1  13
BRANCH   1  23
ATOM     23  C   UNL     1       5.113   4.821  18.803  0.00  0.00    +0.000 C 
ATOM     24  O   UNL     1       5.585   5.648  19.568  0.00  0.00    +0.000 OA
BRANCH  23  25
ATOM     25  O   UNL     1       5.275   3.468  18.929  0.00  0.00    +0.000 OA
BRANCH  25  26
ATOM     26  C   UNL     1       4.223   2.802  19.646  0.00  0.00    +0.000 C 
BRANCH  26  28
ATOM     27  C   UNL     1       2.013   2.043  18.721  0.00  0.00    +0.000 C 
ATOM     28  C   UNL     1       3.354   2.017  18.711  0.00  0.00    +0.000 C 
ENDBRANCH  26  28
ENDBRANCH  25  26
ENDBRANCH  23  25
ENDBRANCH   1  23
TORSDOF 7
ENDMDL
MODEL 7
REMARK VINA RESULT:      -8.2      2.206      5.623
REMARK  Name = 
REMARK  7 active torsions:
REMARK  status: ('A' for Active; 'I' for Inactive)
REMARK    1  A    between atoms: C_2  and  C_3
REMARK    2  A    between atoms: C_3  and  O_4
REMARK    3  A    between atoms: O_4  and  C_5
REMARK    4  A    between atoms: C_5  and  C_7
REMARK    5  A    between atoms: C_7  and  N_19
REMARK    6  A    between atoms: C_8  and  C_9
REMARK    7  A    between atoms: C_20  and  C_22
REMARK                            x       y       z     vdW  Elec       q    Type
REMARK                         _______ _______ _______ _____ _____    ______ ____
ROOT
ATOM      1  C   UNL     1       6.151   6.674  17.194  0.00  0.00    +0.000 C 
ATOM      2  C   UNL     1       4.947   6.435  17.761  0.00  0.00    +0.000 C 
ENDROOT
BRANCH   2   3
ATOM      3  C   UNL     1       4.142   5.208  17.693  0.00  0.00    +0.000 A 
ATOM      4  C   UNL     1       4.436   4.299  16.669  0.00  0.00    +0.000 A 
ATOM      5  C   UNL     1       3.694   3.133  16.530  0.00  0.00    +0.000 A 
ATOM      6  C   UNL     1       2.644   2.873  17.409  0.00  0.00    +0.000 A 
ATOM      7  C   UNL     1       2.351   3.749  18.467  0.00  0.00    +0.000 A 
ATOM      8  C   UNL     1       1.311   3.457  19.366  0.00  0.00    +0.000 A 
ATOM      9  C   UNL     1       1.043   4.291  20.451  0.00  0.00    +0.000 A 
ATOM     10  C   UNL     1       1.809   5.432  20.651  0.00  0.00    +0.000 A 
ATOM     11  C   UNL     1       2.827   5.751  19.751  0.00  0.00    +0.000 A 
ATOM     12  C   UNL     1       3.118   4.927  18.637  0.00  0.00    +0.000 A 
ENDBRANCH   2   3
BRANCH   1  13
ATOM     13  N   UNL     1       6.843   7.873  17.347  0.00  0.00    +0.000 N 
ATOM     14  C   UNL     1       7.934   8.119  18.167  0.00  0.00    +0.000 C 
ATOM     15  O   UNL     1       8.503   7.289  18.872  0.00  0.00    +0.000 OA
ATOM     16  H   UNL     1       6.467   8.639  16.795  0.00  0.00    +0.000 HD
BRANCH  14  17
ATOM     17  C   UNL     1       8.445   9.519  18.229  0.00  0.00    +0.000 A 
ATOM     18  C   UNL     1       9.492   9.782  19.124  0.00  0.00    +0.000 A 
ATOM     19  C   UNL     1      10.028  11.064  19.238  0.00  0.00    +0.000 A 
ATOM     20  C   UNL     1       9.522  12.091  18.447  0.00  0.00    +0.000 A 
ATOM     21  C   UNL     1       8.494  11.836  17.537  0.00  0.00    +0.000 A 
ATOM     22  C   UNL     1       7.956  10.550  17.420  0.00  0.00    +0.000 A 
ENDBRANCH  14  17
ENDBRANCH   1  13
BRANCH   1  23
ATOM     23  C   UNL     1       6.824   5.599  16.354  0.00  0.00    +0.000 C 
ATOM     24  O   UNL     1       7.618   4.760  16.751  0.00  0.00    +0.000 OA
BRANCH  23  25
ATOM     25  O   UNL     1       6.448   5.753  15.047  0.00  0.00    +0.000 OA
BRANCH  25  26
ATOM     26  C   UNL     1       7.003   4.783  14.144  0.00  0.00    +0.000 C 
BRANCH  26  28
ATOM     27  C   UNL     1       6.083   3.294  12.340  0.00  0.00    +0.000 C 
ATOM     28  C   UNL     1       5.918   4.001  13.469  0.00  0.00    +0.000 C 
ENDBRANCH  26  28
ENDBRANCH  25  26
ENDBRANCH  23  25
ENDBRANCH   1  23
TORSDOF 7
ENDMDL
MODEL 8
REMARK VINA RESULT:      -8.1      0.447      1.028
REMARK  Name = 
REMARK  7 active torsions:
REMARK  status: ('A' for Active; 'I' for Inactive)
REMARK    1  A    between atoms: C_2  and  C_3
REMARK    2  A    between atoms: C_3  and  O_4
REMARK    3  A    between atoms: O_4  and  C_5
REMARK    4  A    between atoms: C_5  and  C_7
REMARK    5  A    between atoms: C_7  and  N_19
REMARK    6  A    between atoms: C_8  and  C_9
REMARK    7  A    between atoms: C_20  and  C_22
REMARK                            x       y       z     vdW  Elec       q    Type
REMARK                         _______ _______ _______ _____ _____    ______ ____
ROOT
ATOM      1  C   UNL     1       4.894   3.981  17.331  0.00  0.00    +0.000 C 
ATOM      2  C   UNL     1       3.560   3.865  17.520  0.00  0.00    +0.000 C 
ENDROOT
BRANCH   2   3
ATOM      3  C   UNL     1       2.813   3.954  18.782  0.00  0.00    +0.000 A 
ATOM      4  C   UNL     1       2.537   2.756  19.454  0.00  0.00    +0.000 A 
ATOM      5  C   UNL     1       1.810   2.767  20.638  0.00  0.00    +0.000 A 
ATOM      6  C   UNL     1       1.344   3.976  21.152  0.00  0.00    +0.000 A 
ATOM      7  C   UNL     1       1.639   5.194  20.519  0.00  0.00    +0.000 A 
ATOM      8  C   UNL     1       1.191   6.408  21.068  0.00  0.00    +0.000 A 
ATOM      9  C   UNL     1       1.520   7.628  20.478  0.00  0.00    +0.000 A 
ATOM     10  C   UNL     1       2.298   7.652  19.329  0.00  0.00    +0.000 A 
ATOM     11  C   UNL     1       2.726   6.454  18.754  0.00  0.00    +0.000 A 
ATOM     12  C   UNL     1       2.403   5.201  19.327  0.00  0.00    +0.000 A 
ENDBRANCH   2   3
BRANCH   1  13
ATOM     13  N   UNL     1       5.497   3.907  16.077  0.00  0.00    +0.000 N 
ATOM     14  C   UNL     1       5.634   4.922  15.144  0.00  0.00    +0.000 C 
ATOM     15  O   UNL     1       5.274   6.087  15.294  0.00  0.00    +0.000 OA
ATOM     16  H   UNL     1       5.850   2.982  15.846  0.00  0.00    +0.000 HD
BRANCH  14  17
ATOM     17  C   UNL     1       6.238   4.569  13.827  0.00  0.00    +0.000 A 
ATOM     18  C   UNL     1       7.314   5.351  13.383  0.00  0.00    +0.000 A 
ATOM     19  C   UNL     1       7.936   5.082  12.165  0.00  0.00    +0.000 A 
ATOM     20  C   UNL     1       7.487   4.020  11.385  0.00  0.00    +0.000 A 
ATOM     21  C   UNL     1       6.430   3.222  11.828  0.00  0.00    +0.000 A 
ATOM     22  C   UNL     1       5.806   3.489  13.051  0.00  0.00    +0.000 A 
ENDBRANCH  14  17
ENDBRANCH   1  13
BRANCH   1  23
ATOM     23  C   UNL     1       5.813   4.226  18.518  0.00  0.00    +0.000 C 
ATOM     24  O   UNL     1       5.483   4.266  19.693  0.00  0.00    +0.000 OA
BRANCH  23  25
ATOM     25  O   UNL     1       7.081   4.462  18.060  0.00  0.00    +0.000 OA
BRANCH  25  26
ATOM     26  C   UNL     1       7.680   5.672  18.552  0.00  0.00    +0.000 C 
BRANCH  26  28
ATOM     27  C   UNL     1       7.552   8.029  17.690  0.00  0.00    +0.000 C 
ATOM     28  C   UNL     1       7.730   6.716  17.478  0.00  0.00    +0.000 C 
ENDBRANCH  26  28
ENDBRANCH  25  26
ENDBRANCH  23  25
ENDBRANCH   1  23
TORSDOF 7
ENDMDL
MODEL 9
REMARK VINA RESULT:      -8.0      1.572      3.090
REMARK  Name = 
REMARK  7 active torsions:
REMARK  status: ('A' for Active; 'I' for Inactive)
REMARK    1  A    between atoms: C_2  and  C_3
REMARK    2  A    between atoms: C_3  and  O_4
REMARK    3  A    between atoms: O_4  and  C_5
REMARK    4  A    between atoms: C_5  and  C_7
REMARK    5  A    between atoms: C_7  and  N_19
REMARK    6  A    between atoms: C_8  and  C_9
REMARK    7  A    between atoms: C_20  and  C_22
REMARK                            x       y       z     vdW  Elec       q    Type
REMARK                         _______ _______ _______ _____ _____    ______ ____
ROOT
ATOM      1  C   UNL     1       4.275   5.259  17.511  0.00  0.00    +0.000 C 
ATOM      2  C   UNL     1       3.242   6.130  17.557  0.00  0.00    +0.000 C 
ENDROOT
BRANCH   2   3
ATOM      3  C   UNL     1       2.546   6.648  18.743  0.00  0.00    +0.000 A 
ATOM      4  C   UNL     1       2.345   5.763  19.811  0.00  0.00    +0.000 A 
ATOM      5  C   UNL     1       1.670   6.180  20.951  0.00  0.00    +0.000 A 
ATOM      6  C   UNL     1       1.180   7.483  21.026  0.00  0.00    +0.000 A 
ATOM      7  C   UNL     1       1.400   8.401  19.986  0.00  0.00    +0.000 A 
ATOM      8  C   UNL     1       0.930   9.722  20.091  0.00  0.00    +0.000 A 
ATOM      9  C   UNL     1       1.186  10.657  19.089  0.00  0.00    +0.000 A 
ATOM     10  C   UNL     1       1.912  10.285  17.966  0.00  0.00    +0.000 A 
ATOM     11  C   UNL     1       2.361   8.970  17.833  0.00  0.00    +0.000 A 
ATOM     12  C   UNL     1       2.112   7.997  18.830  0.00  0.00    +0.000 A 
ENDBRANCH   2   3
BRANCH   1  13
ATOM     13  N   UNL     1       4.880   4.854  16.323  0.00  0.00    +0.000 N 
ATOM     14  C   UNL     1       5.906   5.488  15.639  0.00  0.00    +0.000 C 
ATOM     15  O   UNL     1       6.485   6.509  16.001  0.00  0.00    +0.000 OA
ATOM     16  H   UNL     1       4.487   4.002  15.932  0.00  0.00    +0.000 HD
BRANCH  14  17
ATOM     17  C   UNL     1       6.322   4.905  14.331  0.00  0.00    +0.000 A 
ATOM     18  C   UNL     1       5.465   3.961  13.746  0.00  0.00    +0.000 A 
ATOM     19  C   UNL     1       5.781   3.374  12.522  0.00  0.00    +0.000 A 
ATOM     20  C   UNL     1       6.956   3.736  11.870  0.00  0.00    +0.000 A 
ATOM     21  C   UNL     1       7.805   4.691  12.433  0.00  0.00    +0.000 A 
ATOM     22  C   UNL     1       7.490   5.282  13.660  0.00  0.00    +0.000 A 
ENDBRANCH  14  17
ENDBRANCH   1  13
BRANCH   1  23
ATOM     23  C   UNL     1       4.846   4.686  18.799  0.00  0.00    +0.000 C 
ATOM     24  O   UNL     1       5.403   5.313  19.687  0.00  0.00    +0.000 OA
BRANCH  23  25
ATOM     25  O   UNL     1       4.696   3.325  18.787  0.00  0.00    +0.000 OA
BRANCH  25  26
ATOM     26  C   UNL     1       4.138   2.772  19.990  0.00  0.00    +0.000 C 
BRANCH  26  28
ATOM     27  C   UNL     1       2.154   2.173  18.567  0.00  0.00    +0.000 C 
ATOM     28  C   UNL     1       2.716   2.352  19.773  0.00  0.00    +0.000 C 
ENDBRANCH  26  28
ENDBRANCH  25  26
ENDBRANCH  23  25
ENDBRANCH   1  23
TORSDOF 7
ENDMDL
