MODEL 1
REMARK VINA RESULT:      -6.5      0.000      0.000
REMARK  Name = 
REMARK  4 active torsions:
REMARK  status: ('A' for Active; 'I' for Inactive)
REMARK    1  A    between atoms: C_1  and  N_2
REMARK    2  A    between atoms: C_6  and  C_7
REMARK    3  A    between atoms: N_9  and  C_10
REMARK    4  A    between atoms: C_10  and  C_11
REMARK                            x       y       z     vdW  Elec       q    Type
REMARK                         _______ _______ _______ _____ _____    ______ ____
ROOT
ATOM      1  C   UNL     1       5.910   4.628  18.642  0.00  0.00    +0.000 C 
ATOM      2  O   UNL     1       6.282   5.002  19.752  0.00  0.00    +0.000 OA
ATOM      3  N   UNL     1       5.141   3.507  18.448  0.00  0.00    +0.000 N 
ATOM      4  H   UNL     1       4.925   3.262  17.486  0.00  0.00    +0.000 HD
ENDROOT
BRANCH   1  10
ATOM      5  C   UNL     1       4.579   7.065  16.862  0.00  0.00    +0.000 C 
ATOM      6  N   UNL     1       5.105   5.740  16.534  0.00  0.00    +0.000 NA
ATOM      7  C   UNL     1       5.490   5.686  15.125  0.00  0.00    +0.000 C 
ATOM      8  S   UNL     1       6.612   4.297  14.941  0.00  0.00    +0.000 S 
ATOM      9  C   UNL     1       7.318   4.553  16.581  0.00  0.00    +0.000 C 
ATOM     10  C   UNL     1       6.302   5.402  17.364  0.00  0.00    +0.000 C 
ENDBRANCH   1  10
BRANCH   3  11
ATOM     11  C   UNL     1       4.660   2.681  19.531  0.00  0.00    +0.000 C 
BRANCH  11  12
ATOM     12  C   UNL     1       3.162   2.764  19.685  0.00  0.00    +0.000 A 
ATOM     13  C   UNL     1       2.598   3.444  20.775  0.00  0.00    +0.000 A 
ATOM     14  C   UNL     1       1.213   3.548  20.909  0.00  0.00    +0.000 A 
ATOM     15  C   UNL     1       0.375   2.980  19.951  0.00  0.00    +0.000 A 
ATOM     16  C   UNL     1       0.922   2.312  18.857  0.00  0.00    +0.000 A 
ATOM     17  C   UNL     1       2.309   2.208  18.722  0.00  0.00    +0.000 A 
ENDBRANCH  11  12
ENDBRANCH   3  11
TORSDOF 3
ENDMDL
MODEL 2
REMARK VINA RESULT:      -6.4      0.360      1.235
REMARK  Name = 
REMARK  4 active torsions:
REMARK  status: ('A' for Active; 'I' for Inactive)
REMARK    1  A    between atoms: C_1  and  N_2
REMARK    2  A    between atoms: C_6  and  C_7
REMARK    3  A    between atoms: N_9  and  C_10
REMARK    4  A    between atoms: C_10  and  C_11
REMARK                            x       y       z     vdW  Elec       q    Type
REMARK                         _______ _______ _______ _____ _____    ______ ____
ROOT
ATOM      1  C   UNL     1       5.573   4.665  18.784  0.00  0.00    +0.000 C 
ATOM      2  O   UNL     1       5.430   5.262  19.849  0.00  0.00    +0.000 OA
ATOM      3  N   UNL     1       5.285   3.331  18.628  0.00  0.00    +0.000 N 
ATOM      4  H   UNL     1       5.481   2.925  17.718  0.00  0.00    +0.000 HD
ENDROOT
BRANCH   1  10
ATOM      5  C   UNL     1       4.501   7.083  16.814  0.00  0.00    +0.000 C 
ATOM      6  N   UNL     1       5.012   5.733  16.577  0.00  0.00    +0.000 NA
ATOM      7  C   UNL     1       5.530   5.624  15.215  0.00  0.00    +0.000 C 
ATOM      8  S   UNL     1       6.619   4.196  15.181  0.00  0.00    +0.000 S 
ATOM      9  C   UNL     1       7.170   4.483  16.874  0.00  0.00    +0.000 C 
ATOM     10  C   UNL     1       6.112   5.386  17.529  0.00  0.00    +0.000 C 
ENDBRANCH   1  10
BRANCH   3  11
ATOM     11  C   UNL     1       4.746   2.510  19.687  0.00  0.00    +0.000 C 
BRANCH  11  12
ATOM     12  C   UNL     1       3.253   2.671  19.826  0.00  0.00    +0.000 A 
ATOM     13  C   UNL     1       2.409   2.427  18.730  0.00  0.00    +0.000 A 
ATOM     14  C   UNL     1       1.025   2.548  18.859  0.00  0.00    +0.000 A 
ATOM     15  C   UNL     1       0.467   2.906  20.085  0.00  0.00    +0.000 A 
ATOM     16  C   UNL     1       1.292   3.139  21.183  0.00  0.00    +0.000 A 
ATOM     17  C   UNL     1       2.679   3.019  21.055  0.00  0.00    +0.000 A 
ENDBRANCH  11  12
ENDBRANCH   3  11
TORSDOF 3
ENDMDL
MODEL 3
REMARK VINA RESULT:      -6.1      2.062      2.776
REMARK  Name = 
REMARK  4 active torsions:
REMARK  status: ('A' for Active; 'I' for Inactive)
REMARK    1  A    between atoms: C_1  and  N_2
REMARK    2  A    between atoms: C_6  and  C_7
REMARK    3  A    between atoms: N_9  and  C_10
REMARK    4  A    between atoms: C_10  and  C_11
REMARK                            x       y       z     vdW  Elec       q    Type
REMARK                         _______ _______ _______ _____ _____    ______ ____
ROOT
ATOM      1  C   UNL     1       4.246   6.563  17.272  0.00  0.00    +0.000 C 
ATOM      2  O   UNL     1       3.829   7.713  17.390  0.00  0.00    +0.000 OA
ATOM      3  N   UNL     1       3.512   5.460  17.634  0.00  0.00    +0.000 N 
ATOM      4  H   UNL     1       3.968   4.557  17.537  0.00  0.00    +0.000 HD
ENDROOT
BRANCH   1  10
ATOM      5  C   UNL     1       5.466   4.835  14.741  0.00  0.00    +0.000 C 
ATOM      6  N   UNL     1       5.764   4.884  16.174  0.00  0.00    +0.000 NA
ATOM      7  C   UNL     1       7.118   4.398  16.423  0.00  0.00    +0.000 C 
ATOM      8  S   UNL     1       7.604   5.004  18.042  0.00  0.00    +0.000 S 
ATOM      9  C   UNL     1       6.680   6.539  17.826  0.00  0.00    +0.000 C 
ATOM     10  C   UNL     1       5.655   6.276  16.710  0.00  0.00    +0.000 C 
ENDBRANCH   1  10
BRANCH   3  11
ATOM     11  C   UNL     1       2.166   5.540  18.150  0.00  0.00    +0.000 C 
BRANCH  11  12
ATOM     12  C   UNL     1       1.914   4.527  19.238  0.00  0.00    +0.000 A 
ATOM     13  C   UNL     1       1.320   3.292  18.934  0.00  0.00    +0.000 A 
ATOM     14  C   UNL     1       1.110   2.340  19.931  0.00  0.00    +0.000 A 
ATOM     15  C   UNL     1       1.497   2.605  21.243  0.00  0.00    +0.000 A 
ATOM     16  C   UNL     1       2.099   3.822  21.557  0.00  0.00    +0.000 A 
ATOM     17  C   UNL     1       2.311   4.777  20.559  0.00  0.00    +0.000 A 
ENDBRANCH  11  12
ENDBRANCH   3  11
TORSDOF 3
ENDMDL
MODEL 4
REMARK VINA RESULT:      -6.1      1.332      1.616
REMARK  Name = 
REMARK  4 active torsions:
REMARK  status: ('A' for Active; 'I' for Inactive)
REMARK    1  A    between atoms: C_1  and  N_2
REMARK    2  A    between atoms: C_6  and  C_7
REMARK    3  A    between atoms: N_9  and  C_10
REMARK    4  A    between atoms: C_10  and  C_11
REMARK                            x       y       z     vdW  Elec       q    Type
REMARK                         _______ _______ _______ _____ _____    ______ ____
ROOT
ATOM      1  C   UNL     1       5.344   4.294  19.044  0.00  0.00    +0.000 C 
ATOM      2  O   UNL     1       4.675   5.081  19.710  0.00  0.00    +0.000 OA
ATOM      3  N   UNL     1       5.348   2.938  19.269  0.00  0.00    +0.000 N 
ATOM      4  H   UNL     1       5.971   2.382  18.691  0.00  0.00    +0.000 HD
ENDROOT
BRANCH   1  10
ATOM      5  C   UNL     1       7.933   6.323  18.796  0.00  0.00    +0.000 C 
ATOM      6  N   UNL     1       6.657   6.214  18.087  0.00  0.00    +0.000 NA
ATOM      7  C   UNL     1       6.758   6.843  16.772  0.00  0.00    +0.000 C 
ATOM      8  S   UNL     1       5.414   6.193  15.775  0.00  0.00    +0.000 S 
ATOM      9  C   UNL     1       5.508   4.576  16.570  0.00  0.00    +0.000 C 
ATOM     10  C   UNL     1       6.253   4.786  17.897  0.00  0.00    +0.000 C 
ENDBRANCH   1  10
BRANCH   3  11
ATOM     11  C   UNL     1       4.537   2.302  20.281  0.00  0.00    +0.000 C 
BRANCH  11  12
ATOM     12  C   UNL     1       3.063   2.495  20.029  0.00  0.00    +0.000 A 
ATOM     13  C   UNL     1       2.261   3.149  20.977  0.00  0.00    +0.000 A 
ATOM     14  C   UNL     1       0.902   3.355  20.738  0.00  0.00    +0.000 A 
ATOM     15  C   UNL     1       0.329   2.916  19.546  0.00  0.00    +0.000 A 
ATOM     16  C   UNL     1       1.116   2.275  18.591  0.00  0.00    +0.000 A 
ATOM     17  C   UNL     1       2.477   2.069  18.829  0.00  0.00    +0.000 A 
ENDBRANCH  11  12
ENDBRANCH   3  11
TORSDOF 3
ENDMDL
MODEL 5
REMARK VINA RESULT:      -6.0      1.302      1.941
REMARK  Name = 
REMARK  4 active torsions:
REMARK  status: ('A' for Active; 'I' for Inactive)
REMARK    1  A    between atoms: C_1  and  N_2
REMARK    2  A    between atoms: C_6  and  C_7
REMARK    3  A    between atoms: N_9  and  C_10
REMARK    4  A    between atoms: C_10  and  C_11
REMARK                            x       y       z     vdW  Elec       q    Type
REMARK                         _______ _______ _______ _____ _____    ______ ____
ROOT
ATOM      1  C   UNL     1       5.411   4.251  19.058  0.00  0.00    +0.000 C 
ATOM      2  O   UNL     1       4.767   5.084  19.691  0.00  0.00    +0.000 OA
ATOM      3  N   UNL     1       5.350   2.903  19.316  0.00  0.00    +0.000 N 
ATOM      4  H   UNL     1       5.956   2.304  18.764  0.00  0.00    +0.000 HD
ENDROOT
BRANCH   1  10
ATOM      5  C   UNL     1       7.901   6.390  18.734  0.00  0.00    +0.000 C 
ATOM      6  N   UNL     1       6.678   6.133  17.971  0.00  0.00    +0.000 NA
ATOM      7  C   UNL     1       6.826   6.625  16.603  0.00  0.00    +0.000 C 
ATOM      8  S   UNL     1       5.581   5.796  15.610  0.00  0.00    +0.000 S 
ATOM      9  C   UNL     1       5.711   4.279  16.580  0.00  0.00    +0.000 C 
ATOM     10  C   UNL     1       6.362   4.672  17.916  0.00  0.00    +0.000 C 
ENDBRANCH   1  10
BRANCH   3  11
ATOM     11  C   UNL     1       4.493   2.330  20.328  0.00  0.00    +0.000 C 
BRANCH  11  12
ATOM     12  C   UNL     1       3.033   2.576  20.040  0.00  0.00    +0.000 A 
ATOM     13  C   UNL     1       2.450   2.085  18.861  0.00  0.00    +0.000 A 
ATOM     14  C   UNL     1       1.094   2.285  18.602  0.00  0.00    +0.000 A 
ATOM     15  C   UNL     1       0.303   2.972  19.520  0.00  0.00    +0.000 A 
ATOM     16  C   UNL     1       0.866   3.455  20.700  0.00  0.00    +0.000 A 
ATOM     17  C   UNL     1       2.224   3.255  20.961  0.00  0.00    +0.000 A 
ENDBRANCH  11  12
ENDBRANCH   3  11
TORSDOF 3
ENDMDL
MODEL 6
REMARK VINA RESULT:      -6.0      2.050      2.444
REMARK  Name = 
REMARK  4 active torsions:
REMARK  status: ('A' for Active; 'I' for Inactive)
REMARK    1  A    between atoms: C_1  and  N_2
REMARK    2  A    between atoms: C_6  and  C_7
REMARK    3  A    between atoms: N_9  and  C_10
REMARK    4  A    between atoms: C_10  and  C_11
REMARK                            x       y       z     vdW  Elec       q    Type
REMARK                         _______ _______ _______ _____ _____    ______ ____
ROOT
ATOM      1  C   UNL     1       4.470   6.687  17.536  0.00  0.00    +0.000 C 
ATOM      2  O   UNL     1       3.719   7.522  17.038  0.00  0.00    +0.000 OA
ATOM      3  N   UNL     1       4.169   6.002  18.688  0.00  0.00    +0.000 N 
ATOM      4  H   UNL     1       4.878   5.366  19.040  0.00  0.00    +0.000 HD
ENDROOT
BRANCH   1  10
ATOM      5  C   UNL     1       5.475   5.171  14.785  0.00  0.00    +0.000 C 
ATOM      6  N   UNL     1       5.813   5.030  16.202  0.00  0.00    +0.000 NA
ATOM      7  C   UNL     1       7.128   4.412  16.347  0.00  0.00    +0.000 C 
ATOM      8  S   UNL     1       7.704   4.786  18.006  0.00  0.00    +0.000 S 
ATOM      9  C   UNL     1       6.906   6.404  17.998  0.00  0.00    +0.000 C 
ATOM     10  C   UNL     1       5.835   6.355  16.896  0.00  0.00    +0.000 C 
ENDBRANCH   1  10
BRANCH   3  11
ATOM     11  C   UNL     1       2.924   6.166  19.403  0.00  0.00    +0.000 C 
BRANCH  11  12
ATOM     12  C   UNL     1       2.194   4.858  19.575  0.00  0.00    +0.000 A 
ATOM     13  C   UNL     1       1.961   4.339  20.859  0.00  0.00    +0.000 A 
ATOM     14  C   UNL     1       1.262   3.144  21.026  0.00  0.00    +0.000 A 
ATOM     15  C   UNL     1       0.780   2.456  19.914  0.00  0.00    +0.000 A 
ATOM     16  C   UNL     1       0.993   2.965  18.635  0.00  0.00    +0.000 A 
ATOM     17  C   UNL     1       1.694   4.163  18.466  0.00  0.00    +0.000 A 
ENDBRANCH  11  12
ENDBRANCH   3  11
TORSDOF 3
ENDMDL
MODEL 7
REMARK VINA RESULT:      -6.0      1.768      2.458
REMARK  Name = 
REMARK  4 active torsions:
REMARK  status: ('A' for Active; 'I' for Inactive)
REMARK    1  A    between atoms: C_1  and  N_2
REMARK    2  A    between atoms: C_6  and  C_7
REMARK    3  A    between atoms: N_9  and  C_10
REMARK    4  A    between atoms: C_10  and  C_11
REMARK                            x       y       z     vdW  Elec       q    Type
REMARK                         _______ _______ _______ _____ _____    ______ ____
ROOT
ATOM      1  C   UNL     1       3.803   4.760  17.202  0.00  0.00    +0.000 C 
ATOM      2  O   UNL     1       2.893   5.476  17.614  0.00  0.00    +0.000 OA
ATOM      3  N   UNL     1       3.710   3.391  17.143  0.00  0.00    +0.000 N 
ATOM      4  H   UNL     1       4.537   2.891  16.828  0.00  0.00    +0.000 HD
ENDROOT
BRANCH   1  10
ATOM      5  C   UNL     1       5.667   4.519  14.492  0.00  0.00    +0.000 C 
ATOM      6  N   UNL     1       5.937   4.383  15.924  0.00  0.00    +0.000 NA
ATOM      7  C   UNL     1       7.355   4.606  16.192  0.00  0.00    +0.000 C 
ATOM      8  S   UNL     1       7.505   4.985  17.941  0.00  0.00    +0.000 S 
ATOM      9  C   UNL     1       5.918   5.844  17.967  0.00  0.00    +0.000 C 
ATOM     10  C   UNL     1       5.144   5.363  16.729  0.00  0.00    +0.000 C 
ENDBRANCH   1  10
BRANCH   3  11
ATOM     11  C   UNL     1       2.522   2.662  17.518  0.00  0.00    +0.000 C 
BRANCH  11  12
ATOM     12  C   UNL     1       2.283   2.696  19.006  0.00  0.00    +0.000 A 
ATOM     13  C   UNL     1       3.331   2.421  19.899  0.00  0.00    +0.000 A 
ATOM     14  C   UNL     1       3.123   2.477  21.278  0.00  0.00    +0.000 A 
ATOM     15  C   UNL     1       1.868   2.816  21.781  0.00  0.00    +0.000 A 
ATOM     16  C   UNL     1       0.822   3.103  20.906  0.00  0.00    +0.000 A 
ATOM     17  C   UNL     1       1.029   3.047  19.525  0.00  0.00    +0.000 A 
ENDBRANCH  11  12
ENDBRANCH   3  11
TORSDOF 3
ENDMDL
MODEL 8
REMARK VINA RESULT:      -6.0      2.586      6.033
REMARK  Name = 
REMARK  4 active torsions:
REMARK  status: ('A' for Active; 'I' for Inactive)
REMARK    1  A    between atoms: C_1  and  N_2
REMARK    2  A    between atoms: C_6  and  C_7
REMARK    3  A    between atoms: N_9  and  C_10
REMARK    4  A    between atoms: C_10  and  C_11
REMARK                            x       y       z     vdW  Elec       q    Type
REMARK                         _______ _______ _______ _____ _____    ______ ____
ROOT
ATOM      1  C   UNL     1       5.892   4.552  18.041  0.00  0.00    +0.000 C 
ATOM      2  O   UNL     1       6.984   4.280  18.535  0.00  0.00    +0.000 OA
ATOM      3  N   UNL     1       5.754   5.135  16.805  0.00  0.00    +0.000 N 
ATOM      4  H   UNL     1       4.808   5.359  16.509  0.00  0.00    +0.000 HD
ENDROOT
BRANCH   1  10
ATOM      5  C   UNL     1       3.569   2.214  17.925  0.00  0.00    +0.000 C 
ATOM      6  N   UNL     1       3.538   3.677  17.898  0.00  0.00    +0.000 NA
ATOM      7  C   UNL     1       2.228   4.160  18.328  0.00  0.00    +0.000 C 
ATOM      8  S   UNL     1       2.435   5.878  18.810  0.00  0.00    +0.000 S 
ATOM      9  C   UNL     1       4.098   5.577  19.442  0.00  0.00    +0.000 C 
ATOM     10  C   UNL     1       4.577   4.265  18.799  0.00  0.00    +0.000 C 
ENDBRANCH   1  10
BRANCH   3  11
ATOM     11  C   UNL     1       6.874   5.446  15.947  0.00  0.00    +0.000 C 
BRANCH  11  12
ATOM     12  C   UNL     1       6.713   4.855  14.569  0.00  0.00    +0.000 A 
ATOM     13  C   UNL     1       7.631   5.167  13.553  0.00  0.00    +0.000 A 
ATOM     14  C   UNL     1       7.504   4.602  12.284  0.00  0.00    +0.000 A 
ATOM     15  C   UNL     1       6.464   3.715  12.016  0.00  0.00    +0.000 A 
ATOM     16  C   UNL     1       5.553   3.388  13.018  0.00  0.00    +0.000 A 
ATOM     17  C   UNL     1       5.679   3.952  14.290  0.00  0.00    +0.000 A 
ENDBRANCH  11  12
ENDBRANCH   3  11
TORSDOF 3
ENDMDL
MODEL 9
REMARK VINA RESULT:      -6.0      2.537      6.130
REMARK  Name = 
REMARK  4 active torsions:
REMARK  status: ('A' for Active; 'I' for Inactive)
REMARK    1  A    between atoms: C_1  and  N_2
REMARK    2  A    between atoms: C_6  and  C_7
REMARK    3  A    between atoms: N_9  and  C_10
REMARK    4  A    between atoms: C_10  and  C_11
REMARK                            x       y       z     vdW  Elec       q    Type
REMARK                         _______ _______ _______ _____ _____    ______ ____
ROOT
ATOM      1  C   UNL     1       5.574   4.319  18.221  0.00  0.00    +0.000 C 
ATOM      2  O   UNL     1       6.547   4.430  18.964  0.00  0.00    +0.000 OA
ATOM      3  N   UNL     1       5.621   4.603  16.878  0.00  0.00    +0.000 N 
ATOM      4  H   UNL     1       4.749   4.521  16.363  0.00  0.00    +0.000 HD
ENDROOT
BRANCH   1  10
ATOM      5  C   UNL     1       3.868   1.496  18.213  0.00  0.00    +0.000 C 
ATOM      6  N   UNL     1       3.549   2.876  17.842  0.00  0.00    +0.000 NA
ATOM      7  C   UNL     1       2.104   3.088  17.891  0.00  0.00    +0.000 C 
ATOM      8  S   UNL     1       1.839   4.861  17.992  0.00  0.00    +0.000 S 
ATOM      9  C   UNL     1       3.329   5.104  18.980  0.00  0.00    +0.000 C 
ATOM     10  C   UNL     1       4.203   3.858  18.761  0.00  0.00    +0.000 C 
ENDBRANCH   1  10
BRANCH   3  11
ATOM     11  C   UNL     1       6.827   5.019  16.199  0.00  0.00    +0.000 C 
BRANCH  11  12
ATOM     12  C   UNL     1       6.805   4.661  14.735  0.00  0.00    +0.000 A 
ATOM     13  C   UNL     1       5.852   3.757  14.240  0.00  0.00    +0.000 A 
ATOM     14  C   UNL     1       5.809   3.443  12.881  0.00  0.00    +0.000 A 
ATOM     15  C   UNL     1       6.713   4.033  12.000  0.00  0.00    +0.000 A 
ATOM     16  C   UNL     1       7.656   4.941  12.476  0.00  0.00    +0.000 A 
ATOM     17  C   UNL     1       7.700   5.257  13.836  0.00  0.00    +0.000 A 
ENDBRANCH  11  12
ENDBRANCH   3  11
TORSDOF 3
ENDMDL
