MODEL 1
REMARK VINA RESULT:      -7.5      0.000      0.000
REMARK  Name = 
REMARK  10 active torsions:
REMARK  status: ('A' for Active; 'I' for Inactive)
REMARK    1  A    between atoms: C_1  and  O_2
REMARK    2  A    between atoms: O_2  and  C_3
REMARK    3  A    between atoms: C_5  and  N_6
REMARK    4  A    between atoms: C_7  and  C_9
REMARK    5  A    between atoms: C_9  and  S_10
REMARK    6  A    between atoms: S_10  and  C_11
REMARK    7  A    between atoms: N_15  and  C_16
REMARK    8  A    between atoms: C_16  and  C_17
REMARK    9  A    between atoms: C_24  and  O_25
REMARK   10  A    between atoms: O_25  and  C_26
REMARK                            x       y       z     vdW  Elec       q    Type
REMARK                         _______ _______ _______ _____ _____    ______ ____
ROOT
ATOM      1  N   UNL     1       1.366   8.785  19.508  0.00  0.00    +0.000 N 
ATOM      2  C   UNL     1       2.121   8.472  18.392  0.00  0.00    +0.000 C 
ATOM      3  O   UNL     1       2.275   9.215  17.421  0.00  0.00    +0.000 OA
ATOM      4  H   UNL     1       1.313   8.068  20.221  0.00  0.00    +0.000 HD
ENDROOT
BRANCH   1   7
ATOM      5  C   UNL     1       0.009  12.037  20.881  0.00  0.00    +0.000 A 
ATOM      6  C   UNL     1       0.814  10.889  20.752  0.00  0.00    +0.000 A 
ATOM      7  C   UNL     1       0.589   9.955  19.734  0.00  0.00    +0.000 A 
ATOM      8  C   UNL     1      -0.476  10.189  18.855  0.00  0.00    +0.000 A 
ATOM      9  C   UNL     1      -1.273  11.337  18.958  0.00  0.00    +0.000 A 
ATOM     10  C   UNL     1      -1.031  12.259  19.976  0.00  0.00    +0.000 A 
BRANCH   5  12
ATOM     11  C   UNL     1      -0.698  13.631  22.516  0.00  0.00    +0.000 C 
ATOM     12  O   UNL     1       0.348  12.877  21.913  0.00  0.00    +0.000 OA
ENDBRANCH   5  12
BRANCH   9  13
ATOM     13  O   UNL     1      -2.248  11.442  17.999  0.00  0.00    +0.000 OA
ATOM     14  C   UNL     1      -3.021  10.277  17.737  0.00  0.00    +0.000 C 
ENDBRANCH   9  13
ENDBRANCH   1   7
BRANCH   2  15
ATOM     15  C   UNL     1       2.889   7.146  18.433  0.00  0.00    +0.000 C 
BRANCH  15  16
ATOM     16  S   UNL     1       4.128   6.889  17.106  0.00  0.00    +0.000 S 
BRANCH  16  17
ATOM     17  C   UNL     1       5.256   5.862  17.945  0.00  0.00    +0.000 A 
ATOM     18  N   UNL     1       6.472   6.218  18.303  0.00  0.00    +0.000 NA
ATOM     19  N   UNL     1       7.024   5.134  18.934  0.00  0.00    +0.000 NA
ATOM     20  N   UNL     1       6.174   4.119  18.962  0.00  0.00    +0.000 NA
ATOM     21  N   UNL     1       5.057   4.566  18.344  0.00  0.00    +0.000 N 
BRANCH  21  22
ATOM     22  C   UNL     1       4.025   3.606  18.005  0.00  0.00    +0.000 C 
BRANCH  22  23
ATOM     23  C   UNL     1       3.035   3.355  19.114  0.00  0.00    +0.000 A 
ATOM     24  C   UNL     1       3.460   2.777  20.322  0.00  0.00    +0.000 A 
ATOM     25  C   UNL     1       2.575   2.627  21.391  0.00  0.00    +0.000 A 
ATOM     26  C   UNL     1       1.253   3.041  21.270  0.00  0.00    +0.000 A 
ATOM     27  C   UNL     1       0.806   3.592  20.070  0.00  0.00    +0.000 A 
ATOM     28  C   UNL     1       1.689   3.743  18.997  0.00  0.00    +0.000 A 
ENDBRANCH  22  23
ENDBRANCH  21  22
ENDBRANCH  16  17
ENDBRANCH  15  16
ENDBRANCH   2  15
TORSDOF 8
ENDMDL
MODEL 2
REMARK VINA RESULT:      -7.5      4.006      7.980
REMARK  Name = 
REMARK  10 active torsions:
REMARK  status: ('A' for Active; 'I' for Inactive)
REMARK    1  A    between atoms: C_1  and  O_2
REMARK    2  A    between atoms: O_2  and  C_3
REMARK    3  A    between atoms: C_5  and  N_6
REMARK    4  A    between atoms: C_7  and  C_9
REMARK    5  A    between atoms: C_9  and  S_10
REMARK    6  A    between atoms: S_10  and  C_11
REMARK    7  A    between atoms: N_15  and  C_16
REMARK    8  A    between atoms: C_16  and  C_17
REMARK    9  A    between atoms: C_24  and  O_25
REMARK   10  A    between atoms: O_25  and  C_26
REMARK                            x       y       z     vdW  Elec       q    Type
REMARK                         _______ _______ _______ _____ _____    ______ ____
ROOT
ATOM      1  N   UNL     1       4.821   3.139  18.004  0.00  0.00    +0.000 N 
ATOM      2  C   UNL     1       4.927   3.263  19.378  0.00  0.00    +0.000 C 
ATOM      3  O   UNL     1       5.645   4.084  19.952  0.00  0.00    +0.000 OA
ATOM      4  H   UNL     1       4.206   2.405  17.673  0.00  0.00    +0.000 HD
ENDROOT
BRANCH   1   7
ATOM      5  C   UNL     1       7.009   5.633  16.188  0.00  0.00    +0.000 A 
ATOM      6  C   UNL     1       6.310   5.002  17.235  0.00  0.00    +0.000 A 
ATOM      7  C   UNL     1       5.535   3.859  17.006  0.00  0.00    +0.000 A 
ATOM      8  C   UNL     1       5.459   3.371  15.696  0.00  0.00    +0.000 A 
ATOM      9  C   UNL     1       6.165   3.975  14.647  0.00  0.00    +0.000 A 
ATOM     10  C   UNL     1       6.936   5.110  14.895  0.00  0.00    +0.000 A 
BRANCH   5  12
ATOM     11  C   UNL     1       7.083   7.738  17.316  0.00  0.00    +0.000 C 
ATOM     12  O   UNL     1       7.742   6.734  16.553  0.00  0.00    +0.000 OA
ENDBRANCH   5  12
BRANCH   9  13
ATOM     13  O   UNL     1       6.021   3.356  13.432  0.00  0.00    +0.000 OA
ATOM     14  C   UNL     1       6.530   4.045  12.295  0.00  0.00    +0.000 C 
ENDBRANCH   9  13
ENDBRANCH   1   7
BRANCH   2  15
ATOM     15  C   UNL     1       4.006   2.374  20.221  0.00  0.00    +0.000 C 
BRANCH  15  16
ATOM     16  S   UNL     1       2.397   3.108  20.703  0.00  0.00    +0.000 S 
BRANCH  16  17
ATOM     17  C   UNL     1       1.935   3.838  19.192  0.00  0.00    +0.000 A 
ATOM     18  N   UNL     1       1.353   3.201  18.197  0.00  0.00    +0.000 NA
ATOM     19  N   UNL     1       1.158   4.126  17.205  0.00  0.00    +0.000 NA
ATOM     20  N   UNL     1       1.616   5.314  17.569  0.00  0.00    +0.000 NA
ATOM     21  N   UNL     1       2.107   5.146  18.818  0.00  0.00    +0.000 N 
BRANCH  21  22
ATOM     22  C   UNL     1       2.894   6.215  19.399  0.00  0.00    +0.000 C 
BRANCH  22  23
ATOM     23  C   UNL     1       2.283   7.583  19.237  0.00  0.00    +0.000 A 
ATOM     24  C   UNL     1       2.425   8.280  18.026  0.00  0.00    +0.000 A 
ATOM     25  C   UNL     1       1.784   9.505  17.828  0.00  0.00    +0.000 A 
ATOM     26  C   UNL     1       1.003  10.057  18.837  0.00  0.00    +0.000 A 
ATOM     27  C   UNL     1       0.873   9.394  20.056  0.00  0.00    +0.000 A 
ATOM     28  C   UNL     1       1.513   8.168  20.258  0.00  0.00    +0.000 A 
ENDBRANCH  22  23
ENDBRANCH  21  22
ENDBRANCH  16  17
ENDBRANCH  15  16
ENDBRANCH   2  15
TORSDOF 8
ENDMDL
MODEL 3
REMARK VINA RESULT:      -7.5      4.559      8.247
REMARK  Name = 
REMARK  10 active torsions:
REMARK  status: ('A' for Active; 'I' for Inactive)
REMARK    1  A    between atoms: C_1  and  O_2
REMARK    2  A    between atoms: O_2  and  C_3
REMARK    3  A    between atoms: C_5  and  N_6
REMARK    4  A    between atoms: C_7  and  C_9
REMARK    5  A    between atoms: C_9  and  S_10
REMARK    6  A    between atoms: S_10  and  C_11
REMARK    7  A    between atoms: N_15  and  C_16
REMARK    8  A    between atoms: C_16  and  C_17
REMARK    9  A    between atoms: C_24  and  O_25
REMARK   10  A    between atoms: O_25  and  C_26
REMARK                            x       y       z     vdW  Elec       q    Type
REMARK                         _______ _______ _______ _____ _____    ______ ____
ROOT
ATOM      1  N   UNL     1       3.639   3.445  16.853  0.00  0.00    +0.000 N 
ATOM      2  C   UNL     1       3.286   2.296  17.538  0.00  0.00    +0.000 C 
ATOM      3  O   UNL     1       4.089   1.486  18.004  0.00  0.00    +0.000 OA
ATOM      4  H   UNL     1       2.870   4.009  16.509  0.00  0.00    +0.000 HD
ENDROOT
BRANCH   1   7
ATOM      5  C   UNL     1       6.718   4.521  14.938  0.00  0.00    +0.000 A 
ATOM      6  C   UNL     1       5.415   4.052  15.192  0.00  0.00    +0.000 A 
ATOM      7  C   UNL     1       4.946   3.883  16.500  0.00  0.00    +0.000 A 
ATOM      8  C   UNL     1       5.821   4.179  17.553  0.00  0.00    +0.000 A 
ATOM      9  C   UNL     1       7.113   4.666  17.316  0.00  0.00    +0.000 A 
ATOM     10  C   UNL     1       7.562   4.832  16.006  0.00  0.00    +0.000 A 
BRANCH   5  12
ATOM     11  C   UNL     1       6.433   3.756  12.692  0.00  0.00    +0.000 C 
ATOM     12  O   UNL     1       7.044   4.654  13.611  0.00  0.00    +0.000 OA
ENDBRANCH   5  12
BRANCH   9  13
ATOM     13  O   UNL     1       7.833   4.947  18.449  0.00  0.00    +0.000 OA
ATOM     14  C   UNL     1       7.148   5.626  19.495  0.00  0.00    +0.000 C 
ENDBRANCH   9  13
ENDBRANCH   1   7
BRANCH   2  15
ATOM     15  C   UNL     1       1.792   2.090  17.809  0.00  0.00    +0.000 C 
BRANCH  15  16
ATOM     16  S   UNL     1       0.884   3.541  18.466  0.00  0.00    +0.000 S 
BRANCH  16  17
ATOM     17  C   UNL     1       1.523   3.587  20.085  0.00  0.00    +0.000 A 
ATOM     18  N   UNL     1       0.991   2.971  21.120  0.00  0.00    +0.000 NA
ATOM     19  N   UNL     1       1.792   3.255  22.195  0.00  0.00    +0.000 NA
ATOM     20  N   UNL     1       2.799   4.040  21.840  0.00  0.00    +0.000 NA
ATOM     21  N   UNL     1       2.641   4.254  20.515  0.00  0.00    +0.000 N 
BRANCH  21  22
ATOM     22  C   UNL     1       3.456   5.270  19.879  0.00  0.00    +0.000 C 
BRANCH  22  23
ATOM     23  C   UNL     1       2.701   6.525  19.522  0.00  0.00    +0.000 A 
ATOM     24  C   UNL     1       1.978   7.217  20.508  0.00  0.00    +0.000 A 
ATOM     25  C   UNL     1       1.353   8.431  20.214  0.00  0.00    +0.000 A 
ATOM     26  C   UNL     1       1.430   8.966  18.933  0.00  0.00    +0.000 A 
ATOM     27  C   UNL     1       2.119   8.280  17.935  0.00  0.00    +0.000 A 
ATOM     28  C   UNL     1       2.746   7.064  18.224  0.00  0.00    +0.000 A 
ENDBRANCH  22  23
ENDBRANCH  21  22
ENDBRANCH  16  17
ENDBRANCH  15  16
ENDBRANCH   2  15
TORSDOF 8
ENDMDL
MODEL 4
REMARK VINA RESULT:      -7.5      1.832      4.199
REMARK  Name = 
REMARK  10 active torsions:
REMARK  status: ('A' for Active; 'I' for Inactive)
REMARK    1  A    between atoms: C_1  and  O_2
REMARK    2  A    between atoms: O_2  and  C_3
REMARK    3  A    between atoms: C_5  and  N_6
REMARK    4  A    between atoms: C_7  and  C_9
REMARK    5  A    between atoms: C_9  and  S_10
REMARK    6  A    between atoms: S_10  and  C_11
REMARK    7  A    between atoms: N_15  and  C_16
REMARK    8  A    between atoms: C_16  and  C_17
REMARK    9  A    between atoms: C_24  and  O_25
REMARK   10  A    between atoms: O_25  and  C_26
REMARK                            x       y       z     vdW  Elec       q    Type
REMARK                         _______ _______ _______ _____ _____    ______ ____
ROOT
ATOM      1  N   UNL     1       1.110   8.901  19.298  0.00  0.00    +0.000 N 
ATOM      2  C   UNL     1       2.000   8.713  18.256  0.00  0.00    +0.000 C 
ATOM      3  O   UNL     1       2.221   9.538  17.368  0.00  0.00    +0.000 OA
ATOM      4  H   UNL     1       1.016   8.127  19.945  0.00  0.00    +0.000 HD
ENDROOT
BRANCH   1   7
ATOM      5  C   UNL     1      -1.708  11.415  19.089  0.00  0.00    +0.000 A 
ATOM      6  C   UNL     1      -0.899  10.306  18.777  0.00  0.00    +0.000 A 
ATOM      7  C   UNL     1       0.251  10.013  19.520  0.00  0.00    +0.000 A 
ATOM      8  C   UNL     1       0.583  10.871  20.577  0.00  0.00    +0.000 A 
ATOM      9  C   UNL     1      -0.223  11.966  20.913  0.00  0.00    +0.000 A 
ATOM     10  C   UNL     1      -1.367  12.240  20.164  0.00  0.00    +0.000 A 
BRANCH   5  12
ATOM     11  C   UNL     1      -2.681  11.246  16.913  0.00  0.00    +0.000 C 
ATOM     12  O   UNL     1      -2.812  11.578  18.290  0.00  0.00    +0.000 OA
ENDBRANCH   5  12
BRANCH   9  13
ATOM     13  O   UNL     1       0.213  12.685  21.996  0.00  0.00    +0.000 OA
ATOM     14  C   UNL     1      -0.770  13.409  22.726  0.00  0.00    +0.000 C 
ENDBRANCH   9  13
ENDBRANCH   1   7
BRANCH   2  15
ATOM     15  C   UNL     1       2.828   7.423  18.286  0.00  0.00    +0.000 C 
BRANCH  15  16
ATOM     16  S   UNL     1       2.360   6.193  19.562  0.00  0.00    +0.000 S 
BRANCH  16  17
ATOM     17  C   UNL     1       2.491   4.729  18.629  0.00  0.00    +0.000 A 
ATOM     18  N   UNL     1       1.492   4.150  17.997  0.00  0.00    +0.000 NA
ATOM     19  N   UNL     1       2.010   3.036  17.388  0.00  0.00    +0.000 NA
ATOM     20  N   UNL     1       3.305   2.918  17.642  0.00  0.00    +0.000 NA
ATOM     21  N   UNL     1       3.619   3.978  18.421  0.00  0.00    +0.000 N 
BRANCH  21  22
ATOM     22  C   UNL     1       4.919   4.001  19.062  0.00  0.00    +0.000 C 
BRANCH  22  23
ATOM     23  C   UNL     1       5.835   5.083  18.548  0.00  0.00    +0.000 A 
ATOM     24  C   UNL     1       6.912   5.527  19.333  0.00  0.00    +0.000 A 
ATOM     25  C   UNL     1       7.823   6.459  18.832  0.00  0.00    +0.000 A 
ATOM     26  C   UNL     1       7.669   6.969  17.549  0.00  0.00    +0.000 A 
ATOM     27  C   UNL     1       6.590   6.562  16.765  0.00  0.00    +0.000 A 
ATOM     28  C   UNL     1       5.675   5.630  17.263  0.00  0.00    +0.000 A 
ENDBRANCH  22  23
ENDBRANCH  21  22
ENDBRANCH  16  17
ENDBRANCH  15  16
ENDBRANCH   2  15
TORSDOF 8
ENDMDL
MODEL 5
REMARK VINA RESULT:      -7.4      3.090      8.816
REMARK  Name = 
REMARK  10 active torsions:
REMARK  status: ('A' for Active; 'I' for Inactive)
REMARK    1  A    between atoms: C_1  and  O_2
REMARK    2  A    between atoms: O_2  and  C_3
REMARK    3  A    between atoms: C_5  and  N_6
REMARK    4  A    between atoms: C_7  and  C_9
REMARK    5  A    between atoms: C_9  and  S_10
REMARK    6  A    between atoms: S_10  and  C_11
REMARK    7  A    between atoms: N_15  and  C_16
REMARK    8  A    between atoms: C_16  and  C_17
REMARK    9  A    between atoms: C_24  and  O_25
REMARK   10  A    between atoms: O_25  and  C_26
REMARK                            x       y       z     vdW  Elec       q    Type
REMARK                         _______ _______ _______ _____ _____    ______ ____
ROOT
ATOM      1  N   UNL     1       2.452   6.687  20.203  0.00  0.00    +0.000 N 
ATOM      2  C   UNL     1       2.118   7.756  19.390  0.00  0.00    +0.000 C 
ATOM      3  O   UNL     1       2.199   7.751  18.161  0.00  0.00    +0.000 OA
ATOM      4  H   UNL     1       2.353   6.841  21.199  0.00  0.00    +0.000 HD
ENDROOT
BRANCH   1   7
ATOM      5  C   UNL     1       2.890   3.057  19.238  0.00  0.00    +0.000 A 
ATOM      6  C   UNL     1       2.269   4.248  19.659  0.00  0.00    +0.000 A 
ATOM      7  C   UNL     1       2.998   5.433  19.812  0.00  0.00    +0.000 A 
ATOM      8  C   UNL     1       4.374   5.394  19.550  0.00  0.00    +0.000 A 
ATOM      9  C   UNL     1       5.002   4.221  19.111  0.00  0.00    +0.000 A 
ATOM     10  C   UNL     1       4.259   3.051  18.959  0.00  0.00    +0.000 A 
BRANCH   5  12
ATOM     11  C   UNL     1       0.697   2.225  18.782  0.00  0.00    +0.000 C 
ATOM     12  O   UNL     1       2.057   1.973  19.115  0.00  0.00    +0.000 OA
ENDBRANCH   5  12
BRANCH   9  13
ATOM     13  O   UNL     1       6.344   4.354  18.858  0.00  0.00    +0.000 OA
ATOM     14  C   UNL     1       6.746   5.484  18.093  0.00  0.00    +0.000 C 
ENDBRANCH   9  13
ENDBRANCH   1   7
BRANCH   2  15
ATOM     15  C   UNL     1       1.514   8.982  20.083  0.00  0.00    +0.000 C 
BRANCH  15  16
ATOM     16  S   UNL     1       0.164   8.650  21.279  0.00  0.00    +0.000 S 
BRANCH  16  17
ATOM     17  C   UNL     1      -0.157  10.272  21.826  0.00  0.00    +0.000 A 
ATOM     18  N   UNL     1      -0.426  10.604  23.071  0.00  0.00    +0.000 NA
ATOM     19  N   UNL     1      -0.611  11.962  23.079  0.00  0.00    +0.000 NA
ATOM     20  N   UNL     1      -0.469  12.466  21.863  0.00  0.00    +0.000 NA
ATOM     21  N   UNL     1      -0.182  11.412  21.065  0.00  0.00    +0.000 N 
BRANCH  21  22
ATOM     22  C   UNL     1      -0.203  11.608  19.629  0.00  0.00    +0.000 C 
BRANCH  22  23
ATOM     23  C   UNL     1      -1.502  11.213  18.977  0.00  0.00    +0.000 A 
ATOM     24  C   UNL     1      -2.670  11.955  19.223  0.00  0.00    +0.000 A 
ATOM     25  C   UNL     1      -3.858  11.659  18.553  0.00  0.00    +0.000 A 
ATOM     26  C   UNL     1      -3.904  10.614  17.637  0.00  0.00    +0.000 A 
ATOM     27  C   UNL     1      -2.763   9.848  17.400  0.00  0.00    +0.000 A 
ATOM     28  C   UNL     1      -1.572  10.141  18.070  0.00  0.00    +0.000 A 
ENDBRANCH  22  23
ENDBRANCH  21  22
ENDBRANCH  16  17
ENDBRANCH  15  16
ENDBRANCH   2  15
TORSDOF 8
ENDMDL
MODEL 6
REMARK VINA RESULT:      -7.4      0.611      2.561
REMARK  Name = 
REMARK  10 active torsions:
REMARK  status: ('A' for Active; 'I' for Inactive)
REMARK    1  A    between atoms: C_1  and  O_2
REMARK    2  A    between atoms: O_2  and  C_3
REMARK    3  A    between atoms: C_5  and  N_6
REMARK    4  A    between atoms: C_7  and  C_9
REMARK    5  A    between atoms: C_9  and  S_10
REMARK    6  A    between atoms: S_10  and  C_11
REMARK    7  A    between atoms: N_15  and  C_16
REMARK    8  A    between atoms: C_16  and  C_17
REMARK    9  A    between atoms: C_24  and  O_25
REMARK   10  A    between atoms: O_25  and  C_26
REMARK                            x       y       z     vdW  Elec       q    Type
REMARK                         _______ _______ _______ _____ _____    ______ ____
ROOT
ATOM      1  N   UNL     1       1.302   8.804  19.247  0.00  0.00    +0.000 N 
ATOM      2  C   UNL     1       2.177   8.523  18.213  0.00  0.00    +0.000 C 
ATOM      3  O   UNL     1       2.406   9.278  17.266  0.00  0.00    +0.000 OA
ATOM      4  H   UNL     1       1.199   8.081  19.949  0.00  0.00    +0.000 HD
ENDROOT
BRANCH   1   7
ATOM      5  C   UNL     1      -1.396  11.418  18.803  0.00  0.00    +0.000 A 
ATOM      6  C   UNL     1      -0.604  10.279  18.560  0.00  0.00    +0.000 A 
ATOM      7  C   UNL     1       0.468   9.948  19.397  0.00  0.00    +0.000 A 
ATOM      8  C   UNL     1       0.742  10.795  20.478  0.00  0.00    +0.000 A 
ATOM      9  C   UNL     1      -0.049  11.920  20.745  0.00  0.00    +0.000 A 
ATOM     10  C   UNL     1      -1.116  12.233  19.903  0.00  0.00    +0.000 A 
BRANCH   5  12
ATOM     11  C   UNL     1      -2.603  10.648  16.890  0.00  0.00    +0.000 C 
ATOM     12  O   UNL     1      -2.422  11.619  17.915  0.00  0.00    +0.000 OA
ENDBRANCH   5  12
BRANCH   9  13
ATOM     13  O   UNL     1       0.321  12.625  21.861  0.00  0.00    +0.000 OA
ATOM     14  C   UNL     1      -0.126  13.974  21.949  0.00  0.00    +0.000 C 
ENDBRANCH   9  13
ENDBRANCH   1   7
BRANCH   2  15
ATOM     15  C   UNL     1       2.979   7.222  18.327  0.00  0.00    +0.000 C 
BRANCH  15  16
ATOM     16  S   UNL     1       4.215   6.917  17.009  0.00  0.00    +0.000 S 
BRANCH  16  17
ATOM     17  C   UNL     1       5.331   5.898  17.874  0.00  0.00    +0.000 A 
ATOM     18  N   UNL     1       6.510   6.282  18.315  0.00  0.00    +0.000 NA
ATOM     19  N   UNL     1       7.065   5.195  18.937  0.00  0.00    +0.000 NA
ATOM     20  N   UNL     1       6.253   4.150  18.879  0.00  0.00    +0.000 NA
ATOM     21  N   UNL     1       5.157   4.581  18.213  0.00  0.00    +0.000 N 
BRANCH  21  22
ATOM     22  C   UNL     1       4.183   3.599  17.781  0.00  0.00    +0.000 C 
BRANCH  22  23
ATOM     23  C   UNL     1       2.976   3.499  18.678  0.00  0.00    +0.000 A 
ATOM     24  C   UNL     1       1.842   2.785  18.258  0.00  0.00    +0.000 A 
ATOM     25  C   UNL     1       0.755   2.603  19.116  0.00  0.00    +0.000 A 
ATOM     26  C   UNL     1       0.778   3.139  20.398  0.00  0.00    +0.000 A 
ATOM     27  C   UNL     1       1.883   3.874  20.823  0.00  0.00    +0.000 A 
ATOM     28  C   UNL     1       2.973   4.059  19.968  0.00  0.00    +0.000 A 
ENDBRANCH  22  23
ENDBRANCH  21  22
ENDBRANCH  16  17
ENDBRANCH  15  16
ENDBRANCH   2  15
TORSDOF 8
ENDMDL
MODEL 7
REMARK VINA RESULT:      -7.4      1.841      3.482
REMARK  Name = 
REMARK  10 active torsions:
REMARK  status: ('A' for Active; 'I' for Inactive)
REMARK    1  A    between atoms: C_1  and  O_2
REMARK    2  A    between atoms: O_2  and  C_3
REMARK    3  A    between atoms: C_5  and  N_6
REMARK    4  A    between atoms: C_7  and  C_9
REMARK    5  A    between atoms: C_9  and  S_10
REMARK    6  A    between atoms: S_10  and  C_11
REMARK    7  A    between atoms: N_15  and  C_16
REMARK    8  A    between atoms: C_16  and  C_17
REMARK    9  A    between atoms: C_24  and  O_25
REMARK   10  A    between atoms: O_25  and  C_26
REMARK                            x       y       z     vdW  Elec       q    Type
REMARK                         _______ _______ _______ _____ _____    ______ ____
ROOT
ATOM      1  N   UNL     1       1.259   8.926  19.411  0.00  0.00    +0.000 N 
ATOM      2  C   UNL     1       2.031   8.675  18.290  0.00  0.00    +0.000 C 
ATOM      3  O   UNL     1       2.210   9.476  17.371  0.00  0.00    +0.000 OA
ATOM      4  H   UNL     1       1.185   8.165  20.076  0.00  0.00    +0.000 HD
ENDROOT
BRANCH   1   7
ATOM      5  C   UNL     1      -0.073  12.111  20.954  0.00  0.00    +0.000 A 
ATOM      6  C   UNL     1       0.722  10.964  20.765  0.00  0.00    +0.000 A 
ATOM      7  C   UNL     1       0.491  10.088  19.698  0.00  0.00    +0.000 A 
ATOM      8  C   UNL     1      -0.569  10.378  18.830  0.00  0.00    +0.000 A 
ATOM      9  C   UNL     1      -1.356  11.526  18.993  0.00  0.00    +0.000 A 
ATOM     10  C   UNL     1      -1.110  12.389  20.060  0.00  0.00    +0.000 A 
BRANCH   5  12
ATOM     11  C   UNL     1       0.533  14.267  21.787  0.00  0.00    +0.000 C 
ATOM     12  O   UNL     1       0.269  12.890  22.031  0.00  0.00    +0.000 OA
ENDBRANCH   5  12
BRANCH   9  13
ATOM     13  O   UNL     1      -2.328  11.691  18.040  0.00  0.00    +0.000 OA
ATOM     14  C   UNL     1      -3.680  11.638  18.482  0.00  0.00    +0.000 C 
ENDBRANCH   9  13
ENDBRANCH   1   7
BRANCH   2  15
ATOM     15  C   UNL     1       2.782   7.339  18.259  0.00  0.00    +0.000 C 
BRANCH  15  16
ATOM     16  S   UNL     1       2.374   6.152  19.595  0.00  0.00    +0.000 S 
BRANCH  16  17
ATOM     17  C   UNL     1       2.477   4.657  18.709  0.00  0.00    +0.000 A 
ATOM     18  N   UNL     1       1.460   4.058  18.126  0.00  0.00    +0.000 NA
ATOM     19  N   UNL     1       1.960   2.924  17.542  0.00  0.00    +0.000 NA
ATOM     20  N   UNL     1       3.262   2.813  17.762  0.00  0.00    +0.000 NA
ATOM     21  N   UNL     1       3.599   3.898  18.494  0.00  0.00    +0.000 N 
BRANCH  21  22
ATOM     22  C   UNL     1       4.917   3.942  19.096  0.00  0.00    +0.000 C 
BRANCH  22  23
ATOM     23  C   UNL     1       5.810   5.018  18.535  0.00  0.00    +0.000 A 
ATOM     24  C   UNL     1       6.899   5.494  19.285  0.00  0.00    +0.000 A 
ATOM     25  C   UNL     1       7.789   6.420  18.740  0.00  0.00    +0.000 A 
ATOM     26  C   UNL     1       7.603   6.895  17.447  0.00  0.00    +0.000 A 
ATOM     27  C   UNL     1       6.513   6.456  16.698  0.00  0.00    +0.000 A 
ATOM     28  C   UNL     1       5.618   5.529  17.239  0.00  0.00    +0.000 A 
ENDBRANCH  22  23
ENDBRANCH  21  22
ENDBRANCH  16  17
ENDBRANCH  15  16
ENDBRANCH   2  15
TORSDOF 8
ENDMDL
MODEL 8
REMARK VINA RESULT:      -7.4      1.921      3.627
REMARK  Name = 
REMARK  10 active torsions:
REMARK  status: ('A' for Active; 'I' for Inactive)
REMARK    1  A    between atoms: C_1  and  O_2
REMARK    2  A    between atoms: O_2  and  C_3
REMARK    3  A    between atoms: C_5  and  N_6
REMARK    4  A    between atoms: C_7  and  C_9
REMARK    5  A    between atoms: C_9  and  S_10
REMARK    6  A    between atoms: S_10  and  C_11
REMARK    7  A    between atoms: N_15  and  C_16
REMARK    8  A    between atoms: C_16  and  C_17
REMARK    9  A    between atoms: C_24  and  O_25
REMARK   10  A    between atoms: O_25  and  C_26
REMARK                            x       y       z     vdW  Elec       q    Type
REMARK                         _______ _______ _______ _____ _____    ______ ____
ROOT
ATOM      1  N   UNL     1       0.941   9.111  19.281  0.00  0.00    +0.000 N 
ATOM      2  C   UNL     1       1.845   9.060  18.235  0.00  0.00    +0.000 C 
ATOM      3  O   UNL     1       2.120  10.012  17.502  0.00  0.00    +0.000 OA
ATOM      4  H   UNL     1       0.800   8.244  19.786  0.00  0.00    +0.000 HD
ENDROOT
BRANCH   1   7
ATOM      5  C   UNL     1      -0.432  12.184  21.006  0.00  0.00    +0.000 A 
ATOM      6  C   UNL     1       0.423  11.106  20.705  0.00  0.00    +0.000 A 
ATOM      7  C   UNL     1       0.124  10.207  19.675  0.00  0.00    +0.000 A 
ATOM      8  C   UNL     1      -1.065  10.401  18.961  0.00  0.00    +0.000 A 
ATOM      9  C   UNL     1      -1.916  11.480  19.235  0.00  0.00    +0.000 A 
ATOM     10  C   UNL     1      -1.600  12.369  20.262  0.00  0.00    +0.000 A 
BRANCH   5  12
ATOM     11  C   UNL     1       0.720  14.165  21.681  0.00  0.00    +0.000 C 
ATOM     12  O   UNL     1      -0.013  12.997  22.029  0.00  0.00    +0.000 OA
ENDBRANCH   5  12
BRANCH   9  13
ATOM     13  O   UNL     1      -3.019  11.557  18.423  0.00  0.00    +0.000 OA
ATOM     14  C   UNL     1      -3.533  10.329  17.919  0.00  0.00    +0.000 C 
ENDBRANCH   9  13
ENDBRANCH   1   7
BRANCH   2  15
ATOM     15  C   UNL     1       2.618   7.748  18.058  0.00  0.00    +0.000 C 
BRANCH  15  16
ATOM     16  S   UNL     1       2.411   6.505  19.389  0.00  0.00    +0.000 S 
BRANCH  16  17
ATOM     17  C   UNL     1       2.552   5.042  18.457  0.00  0.00    +0.000 A 
ATOM     18  N   UNL     1       1.574   4.495  17.766  0.00  0.00    +0.000 NA
ATOM     19  N   UNL     1       2.093   3.369  17.182  0.00  0.00    +0.000 NA
ATOM     20  N   UNL     1       3.367   3.212  17.507  0.00  0.00    +0.000 NA
ATOM     21  N   UNL     1       3.668   4.259  18.308  0.00  0.00    +0.000 N 
BRANCH  21  22
ATOM     22  C   UNL     1       4.930   4.242  19.022  0.00  0.00    +0.000 C 
BRANCH  22  23
ATOM     23  C   UNL     1       5.928   5.254  18.523  0.00  0.00    +0.000 A 
ATOM     24  C   UNL     1       5.678   5.968  17.339  0.00  0.00    +0.000 A 
ATOM     25  C   UNL     1       6.547   6.976  16.916  0.00  0.00    +0.000 A 
ATOM     26  C   UNL     1       7.681   7.280  17.659  0.00  0.00    +0.000 A 
ATOM     27  C   UNL     1       7.961   6.565  18.822  0.00  0.00    +0.000 A 
ATOM     28  C   UNL     1       7.094   5.555  19.249  0.00  0.00    +0.000 A 
ENDBRANCH  22  23
ENDBRANCH  21  22
ENDBRANCH  16  17
ENDBRANCH  15  16
ENDBRANCH   2  15
TORSDOF 8
ENDMDL
MODEL 9
REMARK VINA RESULT:      -7.3      3.991      8.058
REMARK  Name = 
REMARK  10 active torsions:
REMARK  status: ('A' for Active; 'I' for Inactive)
REMARK    1  A    between atoms: C_1  and  O_2
REMARK    2  A    between atoms: O_2  and  C_3
REMARK    3  A    between atoms: C_5  and  N_6
REMARK    4  A    between atoms: C_7  and  C_9
REMARK    5  A    between atoms: C_9  and  S_10
REMARK    6  A    between atoms: S_10  and  C_11
REMARK    7  A    between atoms: N_15  and  C_16
REMARK    8  A    between atoms: C_16  and  C_17
REMARK    9  A    between atoms: C_24  and  O_25
REMARK   10  A    between atoms: O_25  and  C_26
REMARK                            x       y       z     vdW  Elec       q    Type
REMARK                         _______ _______ _______ _____ _____    ______ ____
ROOT
ATOM      1  N   UNL     1       4.709   3.841  19.732  0.00  0.00    +0.000 N 
ATOM      2  C   UNL     1       4.105   2.602  19.849  0.00  0.00    +0.000 C 
ATOM      3  O   UNL     1       4.271   1.666  19.065  0.00  0.00    +0.000 OA
ATOM      4  H   UNL     1       4.463   4.522  20.441  0.00  0.00    +0.000 HD
ENDROOT
BRANCH   1   7
ATOM      5  C   UNL     1       6.458   4.322  16.413  0.00  0.00    +0.000 A 
ATOM      6  C   UNL     1       5.598   3.784  17.390  0.00  0.00    +0.000 A 
ATOM      7  C   UNL     1       5.565   4.299  18.691  0.00  0.00    +0.000 A 
ATOM      8  C   UNL     1       6.430   5.356  19.000  0.00  0.00    +0.000 A 
ATOM      9  C   UNL     1       7.277   5.915  18.034  0.00  0.00    +0.000 A 
ATOM     10  C   UNL     1       7.293   5.393  16.741  0.00  0.00    +0.000 A 
BRANCH   5  12
ATOM     11  C   UNL     1       5.605   4.396  14.183  0.00  0.00    +0.000 C 
ATOM     12  O   UNL     1       6.380   3.734  15.176  0.00  0.00    +0.000 OA
ENDBRANCH   5  12
BRANCH   9  13
ATOM     13  O   UNL     1       8.032   6.969  18.480  0.00  0.00    +0.000 OA
ATOM     14  C   UNL     1       7.940   8.184  17.744  0.00  0.00    +0.000 C 
ENDBRANCH   9  13
ENDBRANCH   1   7
BRANCH   2  15
ATOM     15  C   UNL     1       3.252   2.370  21.102  0.00  0.00    +0.000 C 
BRANCH  15  16
ATOM     16  S   UNL     1       1.775   3.441  21.282  0.00  0.00    +0.000 S 
BRANCH  16  17
ATOM     17  C   UNL     1       1.577   3.958  19.631  0.00  0.00    +0.000 A 
ATOM     18  N   UNL     1       1.104   3.205  18.660  0.00  0.00    +0.000 NA
ATOM     19  N   UNL     1       1.107   3.981  17.530  0.00  0.00    +0.000 NA
ATOM     20  N   UNL     1       1.580   5.191  17.788  0.00  0.00    +0.000 NA
ATOM     21  N   UNL     1       1.878   5.189  19.107  0.00  0.00    +0.000 N 
BRANCH  21  22
ATOM     22  C   UNL     1       2.638   6.301  19.644  0.00  0.00    +0.000 C 
BRANCH  22  23
ATOM     23  C   UNL     1       2.050   7.652  19.330  0.00  0.00    +0.000 A 
ATOM     24  C   UNL     1       1.321   8.350  20.307  0.00  0.00    +0.000 A 
ATOM     25  C   UNL     1       0.853   9.642  20.062  0.00  0.00    +0.000 A 
ATOM     26  C   UNL     1       1.094  10.253  18.837  0.00  0.00    +0.000 A 
ATOM     27  C   UNL     1       1.792   9.567  17.845  0.00  0.00    +0.000 A 
ATOM     28  C   UNL     1       2.262   8.273  18.086  0.00  0.00    +0.000 A 
ENDBRANCH  22  23
ENDBRANCH  21  22
ENDBRANCH  16  17
ENDBRANCH  15  16
ENDBRANCH   2  15
TORSDOF 8
ENDMDL
