MODEL 1
REMARK VINA RESULT:      -6.5      0.000      0.000
REMARK  Name = 
REMARK  6 active torsions:
REMARK  status: ('A' for Active; 'I' for Inactive)
REMARK    1  A    between atoms: C_1  and  C_2
REMARK    2  A    between atoms: C_2  and  O_3
REMARK    3  A    between atoms: C_2  and  C_14
REMARK    4  A    between atoms: O_3  and  C_4
REMARK    5  A    between atoms: C_9  and  O_10
REMARK    6  A    between atoms: O_10  and  C_11
REMARK                            x       y       z     vdW  Elec       q    Type
REMARK                         _______ _______ _______ _____ _____    ______ ____
ROOT
ATOM      1  C   UNL     1       3.361   3.755  19.229  0.00  0.00    +0.000 A 
ATOM      2  C   UNL     1       3.523   2.655  20.074  0.00  0.00    +0.000 A 
ATOM      3  C   UNL     1       2.799   2.571  21.255  0.00  0.00    +0.000 A 
ATOM      4  C   UNL     1       1.899   3.587  21.592  0.00  0.00    +0.000 A 
ATOM      5  C   UNL     1       1.681   4.667  20.724  0.00  0.00    +0.000 A 
ATOM      6  C   UNL     1       2.394   4.735  19.525  0.00  0.00    +0.000 A 
ENDROOT
BRANCH   1   7
ATOM      7  O   UNL     1       4.094   3.954  18.089  0.00  0.00    +0.000 OA
BRANCH   7   9
ATOM      8  C   UNL     1       5.863   5.294  19.148  0.00  0.00    +0.000 C 
ATOM      9  C   UNL     1       5.505   4.148  18.205  0.00  0.00    +0.000 C 
BRANCH   9  10
ATOM     10  C   UNL     1       5.985   4.483  16.802  0.00  0.00    +0.000 C 
ATOM     11  N   UNL     1       7.264   4.551  16.517  0.00  0.00    +0.000 NA
ATOM     12  C   UNL     1       7.287   4.824  15.050  0.00  0.00    +0.000 C 
ATOM     13  C   UNL     1       5.870   4.537  14.539  0.00  0.00    +0.000 C 
ATOM     14  N   UNL     1       5.110   4.689  15.757  0.00  0.00    +0.000 N 
ATOM     15  H   UNL     1       4.227   4.191  15.838  0.00  0.00    +0.000 HD
ENDBRANCH   9  10
ENDBRANCH   7   9
ENDBRANCH   1   7
BRANCH   6  16
ATOM     16  O   UNL     1       2.232   5.702  18.569  0.00  0.00    +0.000 OA
BRANCH  16  17
ATOM     17  C   UNL     1       2.590   7.070  18.817  0.00  0.00    +0.000 C 
ATOM     18  C   UNL     1       3.368   7.618  17.637  0.00  0.00    +0.000 C 
ATOM     19  C   UNL     1       2.032   8.193  17.983  0.00  0.00    +0.000 C 
ENDBRANCH  16  17
ENDBRANCH   6  16
TORSDOF 5
ENDMDL
MODEL 2
REMARK VINA RESULT:      -6.2      1.115      1.315
REMARK  Name = 
REMARK  6 active torsions:
REMARK  status: ('A' for Active; 'I' for Inactive)
REMARK    1  A    between atoms: C_1  and  C_2
REMARK    2  A    between atoms: C_2  and  O_3
REMARK    3  A    between atoms: C_2  and  C_14
REMARK    4  A    between atoms: O_3  and  C_4
REMARK    5  A    between atoms: C_9  and  O_10
REMARK    6  A    between atoms: O_10  and  C_11
REMARK                            x       y       z     vdW  Elec       q    Type
REMARK                         _______ _______ _______ _____ _____    ______ ____
ROOT
ATOM      1  C   UNL     1       3.685   4.755  19.716  0.00  0.00    +0.000 A 
ATOM      2  C   UNL     1       3.735   3.368  19.874  0.00  0.00    +0.000 A 
ATOM      3  C   UNL     1       2.643   2.686  20.392  0.00  0.00    +0.000 A 
ATOM      4  C   UNL     1       1.488   3.390  20.748  0.00  0.00    +0.000 A 
ATOM      5  C   UNL     1       1.400   4.773  20.538  0.00  0.00    +0.000 A 
ATOM      6  C   UNL     1       2.493   5.453  19.993  0.00  0.00    +0.000 A 
ENDROOT
BRANCH   1   7
ATOM      7  O   UNL     1       4.743   5.512  19.290  0.00  0.00    +0.000 OA
BRANCH   7   9
ATOM      8  C   UNL     1       7.199   5.590  19.192  0.00  0.00    +0.000 C 
ATOM      9  C   UNL     1       5.918   4.847  18.821  0.00  0.00    +0.000 C 
BRANCH   9  10
ATOM     10  C   UNL     1       5.782   4.804  17.307  0.00  0.00    +0.000 C 
ATOM     11  N   UNL     1       5.650   5.903  16.603  0.00  0.00    +0.000 NA
ATOM     12  C   UNL     1       5.626   5.419  15.191  0.00  0.00    +0.000 C 
ATOM     13  C   UNL     1       6.119   3.968  15.227  0.00  0.00    +0.000 C 
ATOM     14  N   UNL     1       5.833   3.622  16.599  0.00  0.00    +0.000 N 
ATOM     15  H   UNL     1       6.387   2.889  17.036  0.00  0.00    +0.000 HD
ENDBRANCH   9  10
ENDBRANCH   7   9
ENDBRANCH   1   7
BRANCH   6  16
ATOM     16  O   UNL     1       2.514   6.787  19.687  0.00  0.00    +0.000 OA
BRANCH  16  17
ATOM     17  C   UNL     1       2.149   7.264  18.383  0.00  0.00    +0.000 C 
ATOM     18  C   UNL     1       1.850   8.749  18.444  0.00  0.00    +0.000 C 
ATOM     19  C   UNL     1       3.007   8.253  17.638  0.00  0.00    +0.000 C 
ENDBRANCH  16  17
ENDBRANCH   6  16
TORSDOF 5
ENDMDL
MODEL 3
REMARK VINA RESULT:      -6.2      1.383      3.631
REMARK  Name = 
REMARK  6 active torsions:
REMARK  status: ('A' for Active; 'I' for Inactive)
REMARK    1  A    between atoms: C_1  and  C_2
REMARK    2  A    between atoms: C_2  and  O_3
REMARK    3  A    between atoms: C_2  and  C_14
REMARK    4  A    between atoms: O_3  and  C_4
REMARK    5  A    between atoms: C_9  and  O_10
REMARK    6  A    between atoms: O_10  and  C_11
REMARK                            x       y       z     vdW  Elec       q    Type
REMARK                         _______ _______ _______ _____ _____    ______ ____
ROOT
ATOM      1  C   UNL     1       3.597   6.097  18.472  0.00  0.00    +0.000 A 
ATOM      2  C   UNL     1       3.611   7.226  17.649  0.00  0.00    +0.000 A 
ATOM      3  C   UNL     1       2.764   8.292  17.916  0.00  0.00    +0.000 A 
ATOM      4  C   UNL     1       1.903   8.238  19.018  0.00  0.00    +0.000 A 
ATOM      5  C   UNL     1       1.923   7.138  19.887  0.00  0.00    +0.000 A 
ATOM      6  C   UNL     1       2.794   6.077  19.629  0.00  0.00    +0.000 A 
ENDROOT
BRANCH   1   7
ATOM      7  O   UNL     1       4.340   4.971  18.233  0.00  0.00    +0.000 OA
BRANCH   7   9
ATOM      8  C   UNL     1       3.705   2.701  17.536  0.00  0.00    +0.000 C 
ATOM      9  C   UNL     1       3.991   4.142  17.123  0.00  0.00    +0.000 C 
BRANCH   9  10
ATOM     10  C   UNL     1       5.200   4.170  16.200  0.00  0.00    +0.000 C 
ATOM     11  N   UNL     1       5.064   4.321  14.904  0.00  0.00    +0.000 NA
ATOM     12  C   UNL     1       6.469   4.367  14.403  0.00  0.00    +0.000 C 
ATOM     13  C   UNL     1       7.356   4.578  15.635  0.00  0.00    +0.000 C 
ATOM     14  N   UNL     1       6.490   4.082  16.677  0.00  0.00    +0.000 N 
ATOM     15  H   UNL     1       6.619   4.440  17.621  0.00  0.00    +0.000 HD
ENDBRANCH   9  10
ENDBRANCH   7   9
ENDBRANCH   1   7
BRANCH   6  16
ATOM     16  O   UNL     1       2.950   4.976  20.429  0.00  0.00    +0.000 OA
BRANCH  16  17
ATOM     17  C   UNL     1       1.845   4.408  21.148  0.00  0.00    +0.000 C 
ATOM     18  C   UNL     1       1.211   3.305  20.325  0.00  0.00    +0.000 C 
ATOM     19  C   UNL     1       1.869   2.981  21.627  0.00  0.00    +0.000 C 
ENDBRANCH  16  17
ENDBRANCH   6  16
TORSDOF 5
ENDMDL
MODEL 4
REMARK VINA RESULT:      -6.1      0.632      1.145
REMARK  Name = 
REMARK  6 active torsions:
REMARK  status: ('A' for Active; 'I' for Inactive)
REMARK    1  A    between atoms: C_1  and  C_2
REMARK    2  A    between atoms: C_2  and  O_3
REMARK    3  A    between atoms: C_2  and  C_14
REMARK    4  A    between atoms: O_3  and  C_4
REMARK    5  A    between atoms: C_9  and  O_10
REMARK    6  A    between atoms: O_10  and  C_11
REMARK                            x       y       z     vdW  Elec       q    Type
REMARK                         _______ _______ _______ _____ _____    ______ ____
ROOT
ATOM      1  C   UNL     1       3.049   3.970  18.720  0.00  0.00    +0.000 A 
ATOM      2  C   UNL     1       3.075   2.755  19.409  0.00  0.00    +0.000 A 
ATOM      3  C   UNL     1       2.275   2.572  20.529  0.00  0.00    +0.000 A 
ATOM      4  C   UNL     1       1.436   3.605  20.960  0.00  0.00    +0.000 A 
ATOM      5  C   UNL     1       1.354   4.807  20.243  0.00  0.00    +0.000 A 
ATOM      6  C   UNL     1       2.142   4.978  19.102  0.00  0.00    +0.000 A 
ENDROOT
BRANCH   1   7
ATOM      7  O   UNL     1       3.863   4.261  17.658  0.00  0.00    +0.000 OA
BRANCH   7   9
ATOM      8  C   UNL     1       5.777   5.450  18.642  0.00  0.00    +0.000 C 
ATOM      9  C   UNL     1       5.278   4.243  17.853  0.00  0.00    +0.000 C 
BRANCH   9  10
ATOM     10  C   UNL     1       5.880   4.271  16.456  0.00  0.00    +0.000 C 
ATOM     11  N   UNL     1       5.143   4.058  15.392  0.00  0.00    +0.000 NA
ATOM     12  C   UNL     1       6.093   4.248  14.258  0.00  0.00    +0.000 C 
ATOM     13  C   UNL     1       7.331   4.935  14.846  0.00  0.00    +0.000 C 
ATOM     14  N   UNL     1       7.209   4.561  16.235  0.00  0.00    +0.000 N 
ATOM     15  H   UNL     1       7.634   5.165  16.935  0.00  0.00    +0.000 HD
ENDBRANCH   9  10
ENDBRANCH   7   9
ENDBRANCH   1   7
BRANCH   6  16
ATOM     16  O   UNL     1       2.113   6.077  18.285  0.00  0.00    +0.000 OA
BRANCH  16  17
ATOM     17  C   UNL     1       2.644   7.341  18.709  0.00  0.00    +0.000 C 
ATOM     18  C   UNL     1       2.176   8.434  17.769  0.00  0.00    +0.000 C 
ATOM     19  C   UNL     1       1.747   8.446  19.201  0.00  0.00    +0.000 C 
ENDBRANCH  16  17
ENDBRANCH   6  16
TORSDOF 5
ENDMDL
MODEL 5
REMARK VINA RESULT:      -6.1      1.435      1.739
REMARK  Name = 
REMARK  6 active torsions:
REMARK  status: ('A' for Active; 'I' for Inactive)
REMARK    1  A    between atoms: C_1  and  C_2
REMARK    2  A    between atoms: C_2  and  O_3
REMARK    3  A    between atoms: C_2  and  C_14
REMARK    4  A    between atoms: O_3  and  C_4
REMARK    5  A    between atoms: C_9  and  O_10
REMARK    6  A    between atoms: O_10  and  C_11
REMARK                            x       y       z     vdW  Elec       q    Type
REMARK                         _______ _______ _______ _____ _____    ______ ____
ROOT
ATOM      1  C   UNL     1       3.394   3.937  17.631  0.00  0.00    +0.000 A 
ATOM      2  C   UNL     1       3.612   2.569  17.806  0.00  0.00    +0.000 A 
ATOM      3  C   UNL     1       2.799   1.838  18.662  0.00  0.00    +0.000 A 
ATOM      4  C   UNL     1       1.756   2.475  19.342  0.00  0.00    +0.000 A 
ATOM      5  C   UNL     1       1.487   3.835  19.129  0.00  0.00    +0.000 A 
ATOM      6  C   UNL     1       2.293   4.561  18.248  0.00  0.00    +0.000 A 
ENDROOT
BRANCH   1   7
ATOM      7  O   UNL     1       4.198   4.745  16.870  0.00  0.00    +0.000 OA
BRANCH   7   9
ATOM      8  C   UNL     1       6.159   5.967  17.710  0.00  0.00    +0.000 C 
ATOM      9  C   UNL     1       5.611   4.693  17.072  0.00  0.00    +0.000 C 
BRANCH   9  10
ATOM     10  C   UNL     1       6.213   4.526  15.686  0.00  0.00    +0.000 C 
ATOM     11  N   UNL     1       5.627   3.788  14.773  0.00  0.00    +0.000 NA
ATOM     12  C   UNL     1       6.494   3.957  13.570  0.00  0.00    +0.000 C 
ATOM     13  C   UNL     1       7.405   5.154  13.863  0.00  0.00    +0.000 C 
ATOM     14  N   UNL     1       7.372   5.168  15.306  0.00  0.00    +0.000 N 
ATOM     15  H   UNL     1       7.544   6.051  15.782  0.00  0.00    +0.000 HD
ENDBRANCH   9  10
ENDBRANCH   7   9
ENDBRANCH   1   7
BRANCH   6  16
ATOM     16  O   UNL     1       2.102   5.875  17.911  0.00  0.00    +0.000 OA
BRANCH  16  17
ATOM     17  C   UNL     1       2.654   6.940  18.700  0.00  0.00    +0.000 C 
ATOM     18  C   UNL     1       2.909   8.148  17.822  0.00  0.00    +0.000 C 
ATOM     19  C   UNL     1       1.902   8.225  18.923  0.00  0.00    +0.000 C 
ENDBRANCH  16  17
ENDBRANCH   6  16
TORSDOF 5
ENDMDL
MODEL 6
REMARK VINA RESULT:      -6.1      1.649      4.017
REMARK  Name = 
REMARK  6 active torsions:
REMARK  status: ('A' for Active; 'I' for Inactive)
REMARK    1  A    between atoms: C_1  and  C_2
REMARK    2  A    between atoms: C_2  and  O_3
REMARK    3  A    between atoms: C_2  and  C_14
REMARK    4  A    between atoms: O_3  and  C_4
REMARK    5  A    between atoms: C_9  and  O_10
REMARK    6  A    between atoms: O_10  and  C_11
REMARK                            x       y       z     vdW  Elec       q    Type
REMARK                         _______ _______ _______ _____ _____    ______ ____
ROOT
ATOM      1  C   UNL     1       3.145   6.382  18.405  0.00  0.00    +0.000 A 
ATOM      2  C   UNL     1       3.064   7.548  17.639  0.00  0.00    +0.000 A 
ATOM      3  C   UNL     1       2.335   8.635  18.100  0.00  0.00    +0.000 A 
ATOM      4  C   UNL     1       1.688   8.564  19.338  0.00  0.00    +0.000 A 
ATOM      5  C   UNL     1       1.811   7.424  20.145  0.00  0.00    +0.000 A 
ATOM      6  C   UNL     1       2.566   6.341  19.689  0.00  0.00    +0.000 A 
ENDROOT
BRANCH   1   7
ATOM      7  O   UNL     1       3.774   5.240  17.989  0.00  0.00    +0.000 OA
BRANCH   7   9
ATOM      8  C   UNL     1       4.970   4.050  16.200  0.00  0.00    +0.000 C 
ATOM      9  C   UNL     1       4.795   5.341  16.994  0.00  0.00    +0.000 C 
BRANCH   9  10
ATOM     10  C   UNL     1       6.076   5.640  17.757  0.00  0.00    +0.000 C 
ATOM     11  N   UNL     1       6.786   6.713  17.503  0.00  0.00    +0.000 NA
ATOM     12  C   UNL     1       7.889   6.655  18.505  0.00  0.00    +0.000 C 
ATOM     13  C   UNL     1       7.469   5.610  19.545  0.00  0.00    +0.000 C 
ATOM     14  N   UNL     1       6.531   4.829  18.775  0.00  0.00    +0.000 N 
ATOM     15  H   UNL     1       5.802   4.324  19.273  0.00  0.00    +0.000 HD
ENDBRANCH   9  10
ENDBRANCH   7   9
ENDBRANCH   1   7
BRANCH   6  16
ATOM     16  O   UNL     1       2.810   5.198  20.402  0.00  0.00    +0.000 OA
BRANCH  16  17
ATOM     17  C   UNL     1       1.748   4.314  20.791  0.00  0.00    +0.000 C 
ATOM     18  C   UNL     1       1.939   2.962  20.134  0.00  0.00    +0.000 C 
ATOM     19  C   UNL     1       2.010   3.086  21.621  0.00  0.00    +0.000 C 
ENDBRANCH  16  17
ENDBRANCH   6  16
TORSDOF 5
ENDMDL
MODEL 7
REMARK VINA RESULT:      -6.0      2.327      5.701
REMARK  Name = 
REMARK  6 active torsions:
REMARK  status: ('A' for Active; 'I' for Inactive)
REMARK    1  A    between atoms: C_1  and  C_2
REMARK    2  A    between atoms: C_2  and  O_3
REMARK    3  A    between atoms: C_2  and  C_14
REMARK    4  A    between atoms: O_3  and  C_4
REMARK    5  A    between atoms: C_9  and  O_10
REMARK    6  A    between atoms: O_10  and  C_11
REMARK                            x       y       z     vdW  Elec       q    Type
REMARK                         _______ _______ _______ _____ _____    ______ ____
ROOT
ATOM      1  C   UNL     1       5.043   4.379  16.761  0.00  0.00    +0.000 A 
ATOM      2  C   UNL     1       4.611   4.281  15.437  0.00  0.00    +0.000 A 
ATOM      3  C   UNL     1       5.525   4.388  14.397  0.00  0.00    +0.000 A 
ATOM      4  C   UNL     1       6.880   4.585  14.680  0.00  0.00    +0.000 A 
ATOM      5  C   UNL     1       7.336   4.624  16.005  0.00  0.00    +0.000 A 
ATOM      6  C   UNL     1       6.417   4.491  17.049  0.00  0.00    +0.000 A 
ENDROOT
BRANCH   1   7
ATOM      7  O   UNL     1       4.199   4.366  17.840  0.00  0.00    +0.000 OA
BRANCH   7   9
ATOM      8  C   UNL     1       2.898   6.389  18.352  0.00  0.00    +0.000 C 
ATOM      9  C   UNL     1       2.924   4.999  17.722  0.00  0.00    +0.000 C 
BRANCH   9  10
ATOM     10  C   UNL     1       1.951   4.094  18.461  0.00  0.00    +0.000 C 
ATOM     11  N   UNL     1       1.474   3.007  17.902  0.00  0.00    +0.000 NA
ATOM     12  C   UNL     1       0.639   2.393  18.977  0.00  0.00    +0.000 C 
ATOM     13  C   UNL     1       1.024   3.106  20.278  0.00  0.00    +0.000 C 
ATOM     14  N   UNL     1       1.558   4.342  19.758  0.00  0.00    +0.000 N 
ATOM     15  H   UNL     1       2.241   4.845  20.320  0.00  0.00    +0.000 HD
ENDBRANCH   9  10
ENDBRANCH   7   9
ENDBRANCH   1   7
BRANCH   6  16
ATOM     16  O   UNL     1       6.739   4.455  18.379  0.00  0.00    +0.000 OA
BRANCH  16  17
ATOM     17  C   UNL     1       6.925   5.658  19.140  0.00  0.00    +0.000 C 
ATOM     18  C   UNL     1       8.277   5.629  19.824  0.00  0.00    +0.000 C 
ATOM     19  C   UNL     1       7.990   6.660  18.781  0.00  0.00    +0.000 C 
ENDBRANCH  16  17
ENDBRANCH   6  16
TORSDOF 5
ENDMDL
MODEL 8
REMARK VINA RESULT:      -6.0      2.235      4.905
REMARK  Name = 
REMARK  6 active torsions:
REMARK  status: ('A' for Active; 'I' for Inactive)
REMARK    1  A    between atoms: C_1  and  C_2
REMARK    2  A    between atoms: C_2  and  O_3
REMARK    3  A    between atoms: C_2  and  C_14
REMARK    4  A    between atoms: O_3  and  C_4
REMARK    5  A    between atoms: C_9  and  O_10
REMARK    6  A    between atoms: O_10  and  C_11
REMARK                            x       y       z     vdW  Elec       q    Type
REMARK                         _______ _______ _______ _____ _____    ______ ____
ROOT
ATOM      1  C   UNL     1       4.851   4.505  17.284  0.00  0.00    +0.000 A 
ATOM      2  C   UNL     1       5.926   4.002  16.547  0.00  0.00    +0.000 A 
ATOM      3  C   UNL     1       6.959   4.845  16.158  0.00  0.00    +0.000 A 
ATOM      4  C   UNL     1       6.923   6.197  16.514  0.00  0.00    +0.000 A 
ATOM      5  C   UNL     1       5.882   6.703  17.305  0.00  0.00    +0.000 A 
ATOM      6  C   UNL     1       4.857   5.846  17.715  0.00  0.00    +0.000 A 
ENDROOT
BRANCH   1   7
ATOM      7  O   UNL     1       3.756   3.762  17.636  0.00  0.00    +0.000 OA
BRANCH   7   9
ATOM      8  C   UNL     1       3.659   1.349  18.099  0.00  0.00    +0.000 C 
ATOM      9  C   UNL     1       3.904   2.755  18.639  0.00  0.00    +0.000 C 
BRANCH   9  10
ATOM     10  C   UNL     1       2.858   3.077  19.695  0.00  0.00    +0.000 C 
ATOM     11  N   UNL     1       2.988   2.662  20.932  0.00  0.00    +0.000 NA
ATOM     12  C   UNL     1       1.807   3.250  21.630  0.00  0.00    +0.000 C 
ATOM     13  C   UNL     1       1.238   4.316  20.686  0.00  0.00    +0.000 C 
ATOM     14  N   UNL     1       1.751   3.851  19.419  0.00  0.00    +0.000 N 
ATOM     15  H   UNL     1       1.884   4.532  18.675  0.00  0.00    +0.000 HD
ENDBRANCH   9  10
ENDBRANCH   7   9
ENDBRANCH   1   7
BRANCH   6  16
ATOM     16  O   UNL     1       3.818   6.200  18.534  0.00  0.00    +0.000 OA
BRANCH  16  17
ATOM     17  C   UNL     1       2.668   6.895  18.029  0.00  0.00    +0.000 C 
ATOM     18  C   UNL     1       2.107   7.806  19.102  0.00  0.00    +0.000 C 
ATOM     19  C   UNL     1       2.670   8.390  17.847  0.00  0.00    +0.000 C 
ENDBRANCH  16  17
ENDBRANCH   6  16
TORSDOF 5
ENDMDL
MODEL 9
REMARK VINA RESULT:      -6.0      2.119      4.475
REMARK  Name = 
REMARK  6 active torsions:
REMARK  status: ('A' for Active; 'I' for Inactive)
REMARK    1  A    between atoms: C_1  and  C_2
REMARK    2  A    between atoms: C_2  and  O_3
REMARK    3  A    between atoms: C_2  and  C_14
REMARK    4  A    between atoms: O_3  and  C_4
REMARK    5  A    between atoms: C_9  and  O_10
REMARK    6  A    between atoms: O_10  and  C_11
REMARK                            x       y       z     vdW  Elec       q    Type
REMARK                         _______ _______ _______ _____ _____    ______ ____
ROOT
ATOM      1  C   UNL     1       2.427   6.823  19.645  0.00  0.00    +0.000 A 
ATOM      2  C   UNL     1       1.655   7.659  20.455  0.00  0.00    +0.000 A 
ATOM      3  C   UNL     1       1.201   8.876  19.967  0.00  0.00    +0.000 A 
ATOM      4  C   UNL     1       1.511   9.260  18.658  0.00  0.00    +0.000 A 
ATOM      5  C   UNL     1       2.233   8.404  17.813  0.00  0.00    +0.000 A 
ATOM      6  C   UNL     1       2.667   7.169  18.301  0.00  0.00    +0.000 A 
ENDROOT
BRANCH   1   7
ATOM      7  O   UNL     1       2.982   5.647  20.075  0.00  0.00    +0.000 OA
BRANCH   7   9
ATOM      8  C   UNL     1       2.204   3.940  21.665  0.00  0.00    +0.000 C 
ATOM      9  C   UNL     1       2.132   4.512  20.251  0.00  0.00    +0.000 C 
BRANCH   9  10
ATOM     10  C   UNL     1       2.634   3.471  19.262  0.00  0.00    +0.000 C 
ATOM     11  N   UNL     1       3.420   2.492  19.643  0.00  0.00    +0.000 NA
ATOM     12  C   UNL     1       3.605   1.683  18.403  0.00  0.00    +0.000 C 
ATOM     13  C   UNL     1       2.534   2.160  17.416  0.00  0.00    +0.000 C 
ATOM     14  N   UNL     1       2.260   3.479  17.936  0.00  0.00    +0.000 N 
ATOM     15  H   UNL     1       1.345   3.887  17.755  0.00  0.00    +0.000 HD
ENDBRANCH   9  10
ENDBRANCH   7   9
ENDBRANCH   1   7
BRANCH   6  16
ATOM     16  O   UNL     1       3.328   6.222  17.564  0.00  0.00    +0.000 OA
BRANCH  16  17
ATOM     17  C   UNL     1       4.721   6.357  17.246  0.00  0.00    +0.000 C 
ATOM     18  C   UNL     1       5.258   5.039  16.725  0.00  0.00    +0.000 C 
ATOM     19  C   UNL     1       5.220   6.235  15.830  0.00  0.00    +0.000 C 
ENDBRANCH  16  17
ENDBRANCH   6  16
TORSDOF 5
ENDMDL
