MODEL 1
REMARK VINA RESULT:      -7.6      0.000      0.000
REMARK  Name = 
REMARK  3 active torsions:
REMARK  status: ('A' for Active; 'I' for Inactive)
REMARK    1  A    between atoms: C_1  and  O_2
REMARK    2  A    between atoms: O_2  and  C_3
REMARK    3  A    between atoms: C_8  and  N_9
REMARK                            x       y       z     vdW  Elec       q    Type
REMARK                         _______ _______ _______ _____ _____    ______ ____
ROOT
ATOM      1  N   UNL     1       4.029   3.898  17.447  0.00  0.00    +0.000 N 
ATOM      2  C   UNL     1       3.269   4.939  17.944  0.00  0.00    +0.000 C 
ATOM      3  O   UNL     1       3.218   6.129  17.672  0.00  0.00    +0.000 OA
ATOM      4  C   UNL     1       2.451   4.408  19.007  0.00  0.00    +0.000 A 
ATOM      5  C   UNL     1       1.724   5.091  19.965  0.00  0.00    +0.000 A 
ATOM      6  C   UNL     1       1.127   4.335  20.972  0.00  0.00    +0.000 A 
ATOM      7  C   UNL     1       1.250   2.930  20.974  0.00  0.00    +0.000 A 
ATOM      8  C   UNL     1       1.986   2.265  19.980  0.00  0.00    +0.000 A 
ATOM      9  C   UNL     1       2.604   3.042  19.017  0.00  0.00    +0.000 A 
ATOM     10  C   UNL     1       3.543   2.695  17.939  0.00  0.00    +0.000 C 
ATOM     11  O   UNL     1       3.693   1.541  17.588  0.00  0.00    +0.000 OA
ENDROOT
BRANCH   1  17
ATOM     12  C   UNL     1       6.473   4.439  17.178  0.00  0.00    +0.000 A 
ATOM     13  C   UNL     1       7.513   4.838  16.314  0.00  0.00    +0.000 A 
ATOM     14  C   UNL     1       7.333   4.899  14.936  0.00  0.00    +0.000 A 
ATOM     15  C   UNL     1       6.116   4.530  14.395  0.00  0.00    +0.000 A 
ATOM     16  C   UNL     1       5.079   4.129  15.240  0.00  0.00    +0.000 A 
ATOM     17  C   UNL     1       5.206   4.105  16.647  0.00  0.00    +0.000 A 
BRANCH  12  19
ATOM     18  C   UNL     1       7.360   5.650  19.017  0.00  0.00    +0.000 C 
ATOM     19  O   UNL     1       6.638   4.518  18.537  0.00  0.00    +0.000 OA
ENDBRANCH  12  19
ENDBRANCH   1  17
TORSDOF 2
ENDMDL
MODEL 2
REMARK VINA RESULT:      -7.6      0.737      2.075
REMARK  Name = 
REMARK  3 active torsions:
REMARK  status: ('A' for Active; 'I' for Inactive)
REMARK    1  A    between atoms: C_1  and  O_2
REMARK    2  A    between atoms: O_2  and  C_3
REMARK    3  A    between atoms: C_8  and  N_9
REMARK                            x       y       z     vdW  Elec       q    Type
REMARK                         _______ _______ _______ _____ _____    ______ ____
ROOT
ATOM      1  N   UNL     1       4.498   3.995  17.942  0.00  0.00    +0.000 N 
ATOM      2  C   UNL     1       3.827   2.810  18.176  0.00  0.00    +0.000 C 
ATOM      3  O   UNL     1       3.990   1.671  17.762  0.00  0.00    +0.000 OA
ATOM      4  C   UNL     1       2.721   3.105  19.054  0.00  0.00    +0.000 A 
ATOM      5  C   UNL     1       1.628   2.317  19.367  0.00  0.00    +0.000 A 
ATOM      6  C   UNL     1       0.623   2.897  20.138  0.00  0.00    +0.000 A 
ATOM      7  C   UNL     1       0.754   4.225  20.593  0.00  0.00    +0.000 A 
ATOM      8  C   UNL     1       1.882   4.996  20.267  0.00  0.00    +0.000 A 
ATOM      9  C   UNL     1       2.845   4.411  19.465  0.00  0.00    +0.000 A 
ATOM     10  C   UNL     1       4.053   4.961  18.832  0.00  0.00    +0.000 C 
ATOM     11  O   UNL     1       4.515   6.026  19.190  0.00  0.00    +0.000 OA
ENDROOT
BRANCH   1  17
ATOM     12  C   UNL     1       6.796   4.420  17.007  0.00  0.00    +0.000 A 
ATOM     13  C   UNL     1       7.575   4.793  15.892  0.00  0.00    +0.000 A 
ATOM     14  C   UNL     1       7.021   4.905  14.621  0.00  0.00    +0.000 A 
ATOM     15  C   UNL     1       5.683   4.614  14.437  0.00  0.00    +0.000 A 
ATOM     16  C   UNL     1       4.901   4.241  15.533  0.00  0.00    +0.000 A 
ATOM     17  C   UNL     1       5.414   4.167  16.847  0.00  0.00    +0.000 A 
BRANCH  12  19
ATOM     18  C   UNL     1       7.788   5.721  18.728  0.00  0.00    +0.000 C 
ATOM     19  O   UNL     1       7.338   4.449  18.266  0.00  0.00    +0.000 OA
ENDBRANCH  12  19
ENDBRANCH   1  17
TORSDOF 2
ENDMDL
MODEL 3
REMARK VINA RESULT:      -7.4      1.762      2.767
REMARK  Name = 
REMARK  3 active torsions:
REMARK  status: ('A' for Active; 'I' for Inactive)
REMARK    1  A    between atoms: C_1  and  O_2
REMARK    2  A    between atoms: O_2  and  C_3
REMARK    3  A    between atoms: C_8  and  N_9
REMARK                            x       y       z     vdW  Elec       q    Type
REMARK                         _______ _______ _______ _____ _____    ______ ____
ROOT
ATOM      1  N   UNL     1       4.266   5.087  18.362  0.00  0.00    +0.000 N 
ATOM      2  C   UNL     1       3.160   5.492  19.084  0.00  0.00    +0.000 C 
ATOM      3  O   UNL     1       2.887   6.531  19.667  0.00  0.00    +0.000 OA
ATOM      4  C   UNL     1       2.240   4.381  19.125  0.00  0.00    +0.000 A 
ATOM      5  C   UNL     1       1.126   4.206  19.927  0.00  0.00    +0.000 A 
ATOM      6  C   UNL     1       0.485   2.972  19.867  0.00  0.00    +0.000 A 
ATOM      7  C   UNL     1       0.954   1.968  18.994  0.00  0.00    +0.000 A 
ATOM      8  C   UNL     1       2.081   2.180  18.184  0.00  0.00    +0.000 A 
ATOM      9  C   UNL     1       2.725   3.400  18.293  0.00  0.00    +0.000 A 
ATOM     10  C   UNL     1       3.983   3.894  17.713  0.00  0.00    +0.000 C 
ATOM     11  O   UNL     1       4.511   3.317  16.784  0.00  0.00    +0.000 OA
ENDROOT
BRANCH   1  17
ATOM     12  C   UNL     1       5.964   6.701  17.439  0.00  0.00    +0.000 A 
ATOM     13  C   UNL     1       7.296   7.162  17.455  0.00  0.00    +0.000 A 
ATOM     14  C   UNL     1       8.200   6.742  18.425  0.00  0.00    +0.000 A 
ATOM     15  C   UNL     1       7.777   5.878  19.417  0.00  0.00    +0.000 A 
ATOM     16  C   UNL     1       6.459   5.417  19.414  0.00  0.00    +0.000 A 
ATOM     17  C   UNL     1       5.526   5.777  18.416  0.00  0.00    +0.000 A 
BRANCH  12  19
ATOM     18  C   UNL     1       5.317   6.279  15.193  0.00  0.00    +0.000 C 
ATOM     19  O   UNL     1       5.135   7.025  16.395  0.00  0.00    +0.000 OA
ENDBRANCH  12  19
ENDBRANCH   1  17
TORSDOF 2
ENDMDL
MODEL 4
REMARK VINA RESULT:      -7.4      1.225      2.083
REMARK  Name = 
REMARK  3 active torsions:
REMARK  status: ('A' for Active; 'I' for Inactive)
REMARK    1  A    between atoms: C_1  and  O_2
REMARK    2  A    between atoms: O_2  and  C_3
REMARK    3  A    between atoms: C_8  and  N_9
REMARK                            x       y       z     vdW  Elec       q    Type
REMARK                         _______ _______ _______ _____ _____    ______ ____
ROOT
ATOM      1  N   UNL     1       4.441   4.494  18.224  0.00  0.00    +0.000 N 
ATOM      2  C   UNL     1       4.604   3.667  19.319  0.00  0.00    +0.000 C 
ATOM      3  O   UNL     1       5.570   3.065  19.765  0.00  0.00    +0.000 OA
ATOM      4  C   UNL     1       3.315   3.529  19.952  0.00  0.00    +0.000 A 
ATOM      5  C   UNL     1       2.915   2.618  20.914  0.00  0.00    +0.000 A 
ATOM      6  C   UNL     1       1.566   2.608  21.260  0.00  0.00    +0.000 A 
ATOM      7  C   UNL     1       0.671   3.518  20.660  0.00  0.00    +0.000 A 
ATOM      8  C   UNL     1       1.110   4.438  19.694  0.00  0.00    +0.000 A 
ATOM      9  C   UNL     1       2.447   4.400  19.338  0.00  0.00    +0.000 A 
ATOM     10  C   UNL     1       3.197   5.105  18.288  0.00  0.00    +0.000 C 
ATOM     11  O   UNL     1       2.729   6.080  17.734  0.00  0.00    +0.000 OA
ENDROOT
BRANCH   1  17
ATOM     12  C   UNL     1       6.517   5.438  17.157  0.00  0.00    +0.000 A 
ATOM     13  C   UNL     1       7.278   5.604  15.982  0.00  0.00    +0.000 A 
ATOM     14  C   UNL     1       6.969   4.919  14.811  0.00  0.00    +0.000 A 
ATOM     15  C   UNL     1       5.911   4.031  14.805  0.00  0.00    +0.000 A 
ATOM     16  C   UNL     1       5.152   3.853  15.964  0.00  0.00    +0.000 A 
ATOM     17  C   UNL     1       5.400   4.570  17.156  0.00  0.00    +0.000 A 
BRANCH  12  19
ATOM     18  C   UNL     1       7.811   5.789  19.116  0.00  0.00    +0.000 C 
ATOM     19  O   UNL     1       6.762   6.224  18.254  0.00  0.00    +0.000 OA
ENDBRANCH  12  19
ENDBRANCH   1  17
TORSDOF 2
ENDMDL
MODEL 5
REMARK VINA RESULT:      -7.3      1.601      2.002
REMARK  Name = 
REMARK  3 active torsions:
REMARK  status: ('A' for Active; 'I' for Inactive)
REMARK    1  A    between atoms: C_1  and  O_2
REMARK    2  A    between atoms: O_2  and  C_3
REMARK    3  A    between atoms: C_8  and  N_9
REMARK                            x       y       z     vdW  Elec       q    Type
REMARK                         _______ _______ _______ _____ _____    ______ ____
ROOT
ATOM      1  N   UNL     1       4.129   3.543  17.913  0.00  0.00    +0.000 N 
ATOM      2  C   UNL     1       2.789   3.304  17.679  0.00  0.00    +0.000 C 
ATOM      3  O   UNL     1       2.113   3.305  16.661  0.00  0.00    +0.000 OA
ATOM      4  C   UNL     1       2.163   3.062  18.957  0.00  0.00    +0.000 A 
ATOM      5  C   UNL     1       0.816   3.028  19.271  0.00  0.00    +0.000 A 
ATOM      6  C   UNL     1       0.478   2.912  20.617  0.00  0.00    +0.000 A 
ATOM      7  C   UNL     1       1.487   2.804  21.596  0.00  0.00    +0.000 A 
ATOM      8  C   UNL     1       2.845   2.830  21.245  0.00  0.00    +0.000 A 
ATOM      9  C   UNL     1       3.155   2.989  19.906  0.00  0.00    +0.000 A 
ATOM     10  C   UNL     1       4.440   3.194  19.219  0.00  0.00    +0.000 C 
ATOM     11  O   UNL     1       5.492   2.970  19.784  0.00  0.00    +0.000 OA
ENDROOT
BRANCH   1  17
ATOM     12  C   UNL     1       5.273   5.559  16.930  0.00  0.00    +0.000 A 
ATOM     13  C   UNL     1       5.943   6.124  15.825  0.00  0.00    +0.000 A 
ATOM     14  C   UNL     1       6.350   5.347  14.746  0.00  0.00    +0.000 A 
ATOM     15  C   UNL     1       6.123   3.984  14.767  0.00  0.00    +0.000 A 
ATOM     16  C   UNL     1       5.464   3.412  15.857  0.00  0.00    +0.000 A 
ATOM     17  C   UNL     1       4.987   4.174  16.948  0.00  0.00    +0.000 A 
BRANCH  12  19
ATOM     18  C   UNL     1       3.625   7.147  17.561  0.00  0.00    +0.000 C 
ATOM     19  O   UNL     1       4.766   6.367  17.915  0.00  0.00    +0.000 OA
ENDBRANCH  12  19
ENDBRANCH   1  17
TORSDOF 2
ENDMDL
MODEL 6
REMARK VINA RESULT:      -7.2      1.575      5.652
REMARK  Name = 
REMARK  3 active torsions:
REMARK  status: ('A' for Active; 'I' for Inactive)
REMARK    1  A    between atoms: C_1  and  O_2
REMARK    2  A    between atoms: O_2  and  C_3
REMARK    3  A    between atoms: C_8  and  N_9
REMARK                            x       y       z     vdW  Elec       q    Type
REMARK                         _______ _______ _______ _____ _____    ______ ____
ROOT
ATOM      1  N   UNL     1       4.003   4.303  18.498  0.00  0.00    +0.000 N 
ATOM      2  C   UNL     1       3.663   3.991  17.195  0.00  0.00    +0.000 C 
ATOM      3  O   UNL     1       2.647   3.533  16.692  0.00  0.00    +0.000 OA
ATOM      4  C   UNL     1       4.817   4.258  16.371  0.00  0.00    +0.000 A 
ATOM      5  C   UNL     1       5.056   3.872  15.064  0.00  0.00    +0.000 A 
ATOM      6  C   UNL     1       6.319   4.141  14.541  0.00  0.00    +0.000 A 
ATOM      7  C   UNL     1       7.285   4.808  15.324  0.00  0.00    +0.000 A 
ATOM      8  C   UNL     1       7.007   5.196  16.644  0.00  0.00    +0.000 A 
ATOM      9  C   UNL     1       5.761   4.879  17.153  0.00  0.00    +0.000 A 
ATOM     10  C   UNL     1       5.198   5.008  18.506  0.00  0.00    +0.000 C 
ATOM     11  O   UNL     1       5.735   5.708  19.341  0.00  0.00    +0.000 OA
ENDROOT
BRANCH   1  17
ATOM     12  C   UNL     1       3.638   2.728  20.427  0.00  0.00    +0.000 A 
ATOM     13  C   UNL     1       2.739   2.203  21.378  0.00  0.00    +0.000 A 
ATOM     14  C   UNL     1       1.478   2.756  21.571  0.00  0.00    +0.000 A 
ATOM     15  C   UNL     1       1.105   3.866  20.837  0.00  0.00    +0.000 A 
ATOM     16  C   UNL     1       1.987   4.398  19.894  0.00  0.00    +0.000 A 
ATOM     17  C   UNL     1       3.255   3.833  19.631  0.00  0.00    +0.000 A 
BRANCH  12  19
ATOM     18  C   UNL     1       5.270   1.170  21.164  0.00  0.00    +0.000 C 
ATOM     19  O   UNL     1       4.819   2.082  20.165  0.00  0.00    +0.000 OA
ENDBRANCH  12  19
ENDBRANCH   1  17
TORSDOF 2
ENDMDL
MODEL 7
REMARK VINA RESULT:      -7.2      1.466      2.471
REMARK  Name = 
REMARK  3 active torsions:
REMARK  status: ('A' for Active; 'I' for Inactive)
REMARK    1  A    between atoms: C_1  and  O_2
REMARK    2  A    between atoms: O_2  and  C_3
REMARK    3  A    between atoms: C_8  and  N_9
REMARK                            x       y       z     vdW  Elec       q    Type
REMARK                         _______ _______ _______ _____ _____    ______ ____
ROOT
ATOM      1  N   UNL     1       4.859   5.002  17.817  0.00  0.00    +0.000 N 
ATOM      2  C   UNL     1       4.757   4.065  18.828  0.00  0.00    +0.000 C 
ATOM      3  O   UNL     1       5.391   3.053  19.086  0.00  0.00    +0.000 OA
ATOM      4  C   UNL     1       3.626   4.433  19.645  0.00  0.00    +0.000 A 
ATOM      5  C   UNL     1       2.972   3.685  20.608  0.00  0.00    +0.000 A 
ATOM      6  C   UNL     1       1.812   4.226  21.157  0.00  0.00    +0.000 A 
ATOM      7  C   UNL     1       1.362   5.500  20.753  0.00  0.00    +0.000 A 
ATOM      8  C   UNL     1       2.054   6.240  19.781  0.00  0.00    +0.000 A 
ATOM      9  C   UNL     1       3.179   5.662  19.220  0.00  0.00    +0.000 A 
ATOM     10  C   UNL     1       4.041   6.084  18.106  0.00  0.00    +0.000 C 
ATOM     11  O   UNL     1       4.002   7.223  17.684  0.00  0.00    +0.000 OA
ENDROOT
BRANCH   1  17
ATOM     12  C   UNL     1       6.954   5.206  16.435  0.00  0.00    +0.000 A 
ATOM     13  C   UNL     1       7.545   5.135  15.158  0.00  0.00    +0.000 A 
ATOM     14  C   UNL     1       6.853   4.629  14.062  0.00  0.00    +0.000 A 
ATOM     15  C   UNL     1       5.567   4.157  14.232  0.00  0.00    +0.000 A 
ATOM     16  C   UNL     1       4.970   4.219  15.493  0.00  0.00    +0.000 A 
ATOM     17  C   UNL     1       5.620   4.774  16.619  0.00  0.00    +0.000 A 
BRANCH  12  19
ATOM     18  C   UNL     1       7.560   7.256  17.468  0.00  0.00    +0.000 C 
ATOM     19  O   UNL     1       7.610   5.831  17.464  0.00  0.00    +0.000 OA
ENDBRANCH  12  19
ENDBRANCH   1  17
TORSDOF 2
ENDMDL
MODEL 8
REMARK VINA RESULT:      -7.2      2.028      5.659
REMARK  Name = 
REMARK  3 active torsions:
REMARK  status: ('A' for Active; 'I' for Inactive)
REMARK    1  A    between atoms: C_1  and  O_2
REMARK    2  A    between atoms: O_2  and  C_3
REMARK    3  A    between atoms: C_8  and  N_9
REMARK                            x       y       z     vdW  Elec       q    Type
REMARK                         _______ _______ _______ _____ _____    ______ ____
ROOT
ATOM      1  N   UNL     1       4.183   4.941  18.294  0.00  0.00    +0.000 N 
ATOM      2  C   UNL     1       5.364   4.525  18.879  0.00  0.00    +0.000 C 
ATOM      3  O   UNL     1       5.650   3.557  19.567  0.00  0.00    +0.000 OA
ATOM      4  C   UNL     1       6.365   5.524  18.590  0.00  0.00    +0.000 A 
ATOM      5  C   UNL     1       7.615   5.689  19.159  0.00  0.00    +0.000 A 
ATOM      6  C   UNL     1       8.335   6.824  18.797  0.00  0.00    +0.000 A 
ATOM      7  C   UNL     1       7.801   7.738  17.864  0.00  0.00    +0.000 A 
ATOM      8  C   UNL     1       6.533   7.537  17.296  0.00  0.00    +0.000 A 
ATOM      9  C   UNL     1       5.821   6.423  17.703  0.00  0.00    +0.000 A 
ATOM     10  C   UNL     1       4.442   5.991  17.425  0.00  0.00    +0.000 C 
ATOM     11  O   UNL     1       3.806   6.484  16.515  0.00  0.00    +0.000 OA
ENDROOT
BRANCH   1  17
ATOM     12  C   UNL     1       2.113   4.910  19.727  0.00  0.00    +0.000 A 
ATOM     13  C   UNL     1       0.979   4.194  20.159  0.00  0.00    +0.000 A 
ATOM     14  C   UNL     1       0.596   3.001  19.555  0.00  0.00    +0.000 A 
ATOM     15  C   UNL     1       1.325   2.519  18.485  0.00  0.00    +0.000 A 
ATOM     16  C   UNL     1       2.449   3.221  18.044  0.00  0.00    +0.000 A 
ATOM     17  C   UNL     1       2.901   4.408  18.665  0.00  0.00    +0.000 A 
BRANCH  12  19
ATOM     18  C   UNL     1       2.017   7.266  20.002  0.00  0.00    +0.000 C 
ATOM     19  O   UNL     1       2.542   6.009  20.426  0.00  0.00    +0.000 OA
ENDBRANCH  12  19
ENDBRANCH   1  17
TORSDOF 2
ENDMDL
MODEL 9
REMARK VINA RESULT:      -7.1      1.361      1.473
REMARK  Name = 
REMARK  3 active torsions:
REMARK  status: ('A' for Active; 'I' for Inactive)
REMARK    1  A    between atoms: C_1  and  O_2
REMARK    2  A    between atoms: O_2  and  C_3
REMARK    3  A    between atoms: C_8  and  N_9
REMARK                            x       y       z     vdW  Elec       q    Type
REMARK                         _______ _______ _______ _____ _____    ______ ____
ROOT
ATOM      1  N   UNL     1       4.299   3.402  17.965  0.00  0.00    +0.000 N 
ATOM      2  C   UNL     1       2.954   3.371  17.649  0.00  0.00    +0.000 C 
ATOM      3  O   UNL     1       2.348   3.508  16.597  0.00  0.00    +0.000 OA
ATOM      4  C   UNL     1       2.226   3.177  18.879  0.00  0.00    +0.000 A 
ATOM      5  C   UNL     1       0.872   3.330  19.119  0.00  0.00    +0.000 A 
ATOM      6  C   UNL     1       0.440   3.215  20.438  0.00  0.00    +0.000 A 
ATOM      7  C   UNL     1       1.363   2.925  21.465  0.00  0.00    +0.000 A 
ATOM      8  C   UNL     1       2.730   2.765  21.188  0.00  0.00    +0.000 A 
ATOM      9  C   UNL     1       3.138   2.925  19.876  0.00  0.00    +0.000 A 
ATOM     10  C   UNL     1       4.478   2.965  19.269  0.00  0.00    +0.000 C 
ATOM     11  O   UNL     1       5.451   2.568  19.879  0.00  0.00    +0.000 OA
ENDROOT
BRANCH   1  17
ATOM     12  C   UNL     1       6.095   5.064  17.370  0.00  0.00    +0.000 A 
ATOM     13  C   UNL     1       6.886   5.646  16.359  0.00  0.00    +0.000 A 
ATOM     14  C   UNL     1       6.917   5.128  15.068  0.00  0.00    +0.000 A 
ATOM     15  C   UNL     1       6.180   3.997  14.775  0.00  0.00    +0.000 A 
ATOM     16  C   UNL     1       5.394   3.408  15.768  0.00  0.00    +0.000 A 
ATOM     17  C   UNL     1       5.295   3.935  17.075  0.00  0.00    +0.000 A 
BRANCH  12  19
ATOM     18  C   UNL     1       7.143   5.647  19.418  0.00  0.00    +0.000 C 
ATOM     19  O   UNL     1       5.981   5.673  18.593  0.00  0.00    +0.000 OA
ENDBRANCH  12  19
ENDBRANCH   1  17
TORSDOF 2
ENDMDL
