MODEL 1
REMARK VINA RESULT:      -6.9      0.000      0.000
REMARK  Name = 
REMARK  7 active torsions:
REMARK  status: ('A' for Active; 'I' for Inactive)
REMARK    1  A    between atoms: C_1  and  C_2
REMARK    2  A    between atoms: C_2  and  C_3
REMARK    3  A    between atoms: C_3  and  C_4
REMARK    4  A    between atoms: C_4  and  N_5
REMARK    5  A    between atoms: N_5  and  C_6
REMARK    6  A    between atoms: C_11  and  C_12
REMARK    7  A    between atoms: N_14  and  C_15
REMARK                            x       y       z     vdW  Elec       q    Type
REMARK                         _______ _______ _______ _____ _____    ______ ____
ROOT
ATOM      1  N   UNL     1       5.734   3.498  12.418  0.00  0.00    +0.000 N 
ATOM      2  C   UNL     1       4.330   3.417  12.051  0.00  0.00    +0.000 C 
ATOM      3  C   UNL     1       6.042   4.177  13.596  0.00  0.00    +0.000 A 
ATOM      4  C   UNL     1       7.378   4.513  13.904  0.00  0.00    +0.000 A 
ATOM      5  N   UNL     1       7.782   5.176  15.014  0.00  0.00    +0.000 NA
ATOM      6  C   UNL     1       6.783   5.511  15.856  0.00  0.00    +0.000 A 
ATOM      7  C   UNL     1       5.453   5.196  15.598  0.00  0.00    +0.000 A 
ATOM      8  N   UNL     1       5.052   4.539  14.465  0.00  0.00    +0.000 NA
ENDROOT
BRANCH   7   9
ATOM      9  C   UNL     1       4.441   5.593  16.627  0.00  0.00    +0.000 C 
ATOM     10  O   UNL     1       4.309   6.783  16.924  0.00  0.00    +0.000 OA
ATOM     11  N   UNL     1       3.684   4.597  17.213  0.00  0.00    +0.000 N 
ATOM     12  H   UNL     1       3.922   3.637  16.974  0.00  0.00    +0.000 HD
BRANCH  11  13
ATOM     13  C   UNL     1       2.664   4.897  18.227  0.00  0.00    +0.000 C 
ATOM     14  C   UNL     1       1.444   3.982  18.079  0.00  0.00    +0.000 C 
ATOM     15  C   UNL     1       1.640   2.539  18.535  0.00  0.00    +0.000 C 
ATOM     16  C   UNL     1       1.387   2.323  20.023  0.00  0.00    +0.000 C 
ATOM     17  C   UNL     1       2.357   3.029  20.962  0.00  0.00    +0.000 C 
ATOM     18  C   UNL     1       2.412   4.547  20.812  0.00  0.00    +0.000 C 
ATOM     19  C   UNL     1       3.278   5.007  19.636  0.00  0.00    +0.000 C 
ENDBRANCH  11  13
ENDBRANCH   7   9
BRANCH   1  20
ATOM     20  C   UNL     1       6.688   2.561  11.810  0.00  0.00    +0.000 C 
BRANCH  20  21
ATOM     21  C   UNL     1       5.980   1.371  11.152  0.00  0.00    +0.000 C 
BRANCH  21  23
ATOM     22  C   UNL     1       5.772  -1.131  11.318  0.00  0.00    +0.000 C 
ATOM     23  C   UNL     1       6.725   0.055  11.390  0.00  0.00    +0.000 C 
ENDBRANCH  21  23
ENDBRANCH  20  21
ENDBRANCH   1  20
TORSDOF 5
ENDMDL
MODEL 2
REMARK VINA RESULT:      -6.6      4.956      9.930
REMARK  Name = 
REMARK  7 active torsions:
REMARK  status: ('A' for Active; 'I' for Inactive)
REMARK    1  A    between atoms: C_1  and  C_2
REMARK    2  A    between atoms: C_2  and  C_3
REMARK    3  A    between atoms: C_3  and  C_4
REMARK    4  A    between atoms: C_4  and  N_5
REMARK    5  A    between atoms: N_5  and  C_6
REMARK    6  A    between atoms: C_11  and  C_12
REMARK    7  A    between atoms: N_14  and  C_15
REMARK                            x       y       z     vdW  Elec       q    Type
REMARK                         _______ _______ _______ _____ _____    ______ ____
ROOT
ATOM      1  N   UNL     1       0.519   9.806  21.454  0.00  0.00    +0.000 N 
ATOM      2  C   UNL     1       0.972   9.261  22.723  0.00  0.00    +0.000 C 
ATOM      3  C   UNL     1       1.057   9.247  20.297  0.00  0.00    +0.000 A 
ATOM      4  C   UNL     1       0.865   9.866  19.042  0.00  0.00    +0.000 A 
ATOM      5  N   UNL     1       1.350   9.410  17.862  0.00  0.00    +0.000 NA
ATOM      6  C   UNL     1       2.062   8.268  17.958  0.00  0.00    +0.000 A 
ATOM      7  C   UNL     1       2.273   7.620  19.171  0.00  0.00    +0.000 A 
ATOM      8  N   UNL     1       1.791   8.097  20.360  0.00  0.00    +0.000 NA
ENDROOT
BRANCH   7   9
ATOM      9  C   UNL     1       3.052   6.342  19.140  0.00  0.00    +0.000 C 
ATOM     10  O   UNL     1       2.714   5.405  19.867  0.00  0.00    +0.000 OA
ATOM     11  N   UNL     1       4.136   6.262  18.287  0.00  0.00    +0.000 N 
ATOM     12  H   UNL     1       4.396   7.112  17.791  0.00  0.00    +0.000 HD
BRANCH  11  13
ATOM     13  C   UNL     1       4.952   5.045  18.187  0.00  0.00    +0.000 C 
ATOM     14  C   UNL     1       4.472   4.142  17.046  0.00  0.00    +0.000 C 
ATOM     15  C   UNL     1       4.806   4.622  15.637  0.00  0.00    +0.000 C 
ATOM     16  C   UNL     1       6.184   4.187  15.149  0.00  0.00    +0.000 C 
ATOM     17  C   UNL     1       7.365   4.775  15.913  0.00  0.00    +0.000 C 
ATOM     18  C   UNL     1       7.386   4.463  17.407  0.00  0.00    +0.000 C 
ATOM     19  C   UNL     1       6.459   5.366  18.225  0.00  0.00    +0.000 C 
ENDBRANCH  11  13
ENDBRANCH   7   9
BRANCH   1  20
ATOM     20  C   UNL     1      -0.726  10.585  21.414  0.00  0.00    +0.000 C 
BRANCH  20  21
ATOM     21  C   UNL     1      -1.118  11.110  22.799  0.00  0.00    +0.000 C 
BRANCH  21  23
ATOM     22  C   UNL     1      -1.755  13.472  23.384  0.00  0.00    +0.000 C 
ATOM     23  C   UNL     1      -2.211  12.179  22.723  0.00  0.00    +0.000 C 
ENDBRANCH  21  23
ENDBRANCH  20  21
ENDBRANCH   1  20
TORSDOF 5
ENDMDL
MODEL 3
REMARK VINA RESULT:      -6.6      5.623     10.044
REMARK  Name = 
REMARK  7 active torsions:
REMARK  status: ('A' for Active; 'I' for Inactive)
REMARK    1  A    between atoms: C_1  and  C_2
REMARK    2  A    between atoms: C_2  and  C_3
REMARK    3  A    between atoms: C_3  and  C_4
REMARK    4  A    between atoms: C_4  and  N_5
REMARK    5  A    between atoms: N_5  and  C_6
REMARK    6  A    between atoms: C_11  and  C_12
REMARK    7  A    between atoms: N_14  and  C_15
REMARK                            x       y       z     vdW  Elec       q    Type
REMARK                         _______ _______ _______ _____ _____    ______ ____
ROOT
ATOM      1  N   UNL     1      -0.136  10.667  21.480  0.00  0.00    +0.000 N 
ATOM      2  C   UNL     1      -0.109   9.605  22.471  0.00  0.00    +0.000 C 
ATOM      3  C   UNL     1       0.611  10.470  20.320  0.00  0.00    +0.000 A 
ATOM      4  C   UNL     1       0.840  11.535  19.421  0.00  0.00    +0.000 A 
ATOM      5  N   UNL     1       1.555  11.451  18.274  0.00  0.00    +0.000 NA
ATOM      6  C   UNL     1       2.061  10.226  18.023  0.00  0.00    +0.000 A 
ATOM      7  C   UNL     1       1.858   9.146  18.876  0.00  0.00    +0.000 A 
ATOM      8  N   UNL     1       1.146   9.244  20.041  0.00  0.00    +0.000 NA
ENDROOT
BRANCH   7   9
ATOM      9  C   UNL     1       2.443   7.830  18.468  0.00  0.00    +0.000 C 
ATOM     10  O   UNL     1       3.173   7.769  17.477  0.00  0.00    +0.000 OA
ATOM     11  N   UNL     1       2.136   6.718  19.230  0.00  0.00    +0.000 N 
ATOM     12  H   UNL     1       1.456   6.844  19.976  0.00  0.00    +0.000 HD
BRANCH  11  13
ATOM     13  C   UNL     1       2.672   5.389  18.907  0.00  0.00    +0.000 C 
ATOM     14  C   UNL     1       3.077   4.627  20.173  0.00  0.00    +0.000 C 
ATOM     15  C   UNL     1       1.926   4.087  21.017  0.00  0.00    +0.000 C 
ATOM     16  C   UNL     1       1.431   2.714  20.576  0.00  0.00    +0.000 C 
ATOM     17  C   UNL     1       0.790   2.661  19.195  0.00  0.00    +0.000 C 
ATOM     18  C   UNL     1       1.690   3.115  18.049  0.00  0.00    +0.000 C 
ATOM     19  C   UNL     1       1.768   4.638  17.910  0.00  0.00    +0.000 C 
ENDBRANCH  11  13
ENDBRANCH   7   9
BRANCH   1  20
ATOM     20  C   UNL     1      -1.213  11.665  21.529  0.00  0.00    +0.000 C 
BRANCH  20  21
ATOM     21  C   UNL     1      -0.827  12.883  22.376  0.00  0.00    +0.000 C 
BRANCH  21  23
ATOM     22  C   UNL     1      -3.034  12.211  23.379  0.00  0.00    +0.000 C 
ATOM     23  C   UNL     1      -1.877  13.198  23.445  0.00  0.00    +0.000 C 
ENDBRANCH  21  23
ENDBRANCH  20  21
ENDBRANCH   1  20
TORSDOF 5
ENDMDL
MODEL 4
REMARK VINA RESULT:      -6.6      6.250     10.604
REMARK  Name = 
REMARK  7 active torsions:
REMARK  status: ('A' for Active; 'I' for Inactive)
REMARK    1  A    between atoms: C_1  and  C_2
REMARK    2  A    between atoms: C_2  and  C_3
REMARK    3  A    between atoms: C_3  and  C_4
REMARK    4  A    between atoms: C_4  and  N_5
REMARK    5  A    between atoms: N_5  and  C_6
REMARK    6  A    between atoms: C_11  and  C_12
REMARK    7  A    between atoms: N_14  and  C_15
REMARK                            x       y       z     vdW  Elec       q    Type
REMARK                         _______ _______ _______ _____ _____    ______ ____
ROOT
ATOM      1  N   UNL     1      -1.430  11.602  20.138  0.00  0.00    +0.000 N 
ATOM      2  C   UNL     1      -1.815  11.278  18.775  0.00  0.00    +0.000 C 
ATOM      3  C   UNL     1      -0.534  10.738  20.765  0.00  0.00    +0.000 A 
ATOM      4  C   UNL     1      -0.294  10.834  22.154  0.00  0.00    +0.000 A 
ATOM      5  N   UNL     1       0.549  10.042  22.859  0.00  0.00    +0.000 NA
ATOM      6  C   UNL     1       1.183   9.108  22.120  0.00  0.00    +0.000 A 
ATOM      7  C   UNL     1       0.982   8.979  20.749  0.00  0.00    +0.000 A 
ATOM      8  N   UNL     1       0.117   9.775  20.048  0.00  0.00    +0.000 NA
ENDROOT
BRANCH   7   9
ATOM      9  C   UNL     1       1.771   7.925  20.036  0.00  0.00    +0.000 C 
ATOM     10  O   UNL     1       2.337   8.201  18.976  0.00  0.00    +0.000 OA
ATOM     11  N   UNL     1       1.832   6.666  20.601  0.00  0.00    +0.000 N 
ATOM     12  H   UNL     1       1.263   6.504  21.428  0.00  0.00    +0.000 HD
BRANCH  11  13
ATOM     13  C   UNL     1       2.589   5.574  19.974  0.00  0.00    +0.000 C 
ATOM     14  C   UNL     1       2.593   4.320  20.854  0.00  0.00    +0.000 C 
ATOM     15  C   UNL     1       1.282   3.541  20.903  0.00  0.00    +0.000 C 
ATOM     16  C   UNL     1       1.129   2.522  19.778  0.00  0.00    +0.000 C 
ATOM     17  C   UNL     1       1.035   3.106  18.374  0.00  0.00    +0.000 C 
ATOM     18  C   UNL     1       2.231   3.952  17.946  0.00  0.00    +0.000 C 
ATOM     19  C   UNL     1       2.189   5.380  18.498  0.00  0.00    +0.000 C 
ENDBRANCH  11  13
ENDBRANCH   7   9
BRANCH   1  20
ATOM     20  C   UNL     1      -1.645  12.967  20.637  0.00  0.00    +0.000 C 
BRANCH  20  21
ATOM     21  C   UNL     1      -3.111  13.216  21.009  0.00  0.00    +0.000 C 
BRANCH  21  23
ATOM     22  C   UNL     1      -3.295  12.333  23.357  0.00  0.00    +0.000 C 
ATOM     23  C   UNL     1      -3.277  13.582  22.486  0.00  0.00    +0.000 C 
ENDBRANCH  21  23
ENDBRANCH  20  21
ENDBRANCH   1  20
TORSDOF 5
ENDMDL
MODEL 5
REMARK VINA RESULT:      -6.5      5.899      9.832
REMARK  Name = 
REMARK  7 active torsions:
REMARK  status: ('A' for Active; 'I' for Inactive)
REMARK    1  A    between atoms: C_1  and  C_2
REMARK    2  A    between atoms: C_2  and  C_3
REMARK    3  A    between atoms: C_3  and  C_4
REMARK    4  A    between atoms: C_4  and  N_5
REMARK    5  A    between atoms: N_5  and  C_6
REMARK    6  A    between atoms: C_11  and  C_12
REMARK    7  A    between atoms: N_14  and  C_15
REMARK                            x       y       z     vdW  Elec       q    Type
REMARK                         _______ _______ _______ _____ _____    ______ ____
ROOT
ATOM      1  N   UNL     1      -1.134  11.603  19.830  0.00  0.00    +0.000 N 
ATOM      2  C   UNL     1      -1.479  11.294  18.453  0.00  0.00    +0.000 C 
ATOM      3  C   UNL     1      -0.304  10.701  20.492  0.00  0.00    +0.000 A 
ATOM      4  C   UNL     1      -0.115  10.790  21.889  0.00  0.00    +0.000 A 
ATOM      5  N   UNL     1       0.662   9.962  22.627  0.00  0.00    +0.000 NA
ATOM      6  C   UNL     1       1.282   8.998  21.914  0.00  0.00    +0.000 A 
ATOM      7  C   UNL     1       1.130   8.875  20.537  0.00  0.00    +0.000 A 
ATOM      8  N   UNL     1       0.330   9.708  19.801  0.00  0.00    +0.000 NA
ENDROOT
BRANCH   7   9
ATOM      9  C   UNL     1       1.897   7.785  19.856  0.00  0.00    +0.000 C 
ATOM     10  O   UNL     1       2.513   8.031  18.817  0.00  0.00    +0.000 OA
ATOM     11  N   UNL     1       1.883   6.526  20.427  0.00  0.00    +0.000 N 
ATOM     12  H   UNL     1       1.277   6.392  21.232  0.00  0.00    +0.000 HD
BRANCH  11  13
ATOM     13  C   UNL     1       2.613   5.399  19.830  0.00  0.00    +0.000 C 
ATOM     14  C   UNL     1       2.746   4.235  20.817  0.00  0.00    +0.000 C 
ATOM     15  C   UNL     1       1.474   3.431  21.066  0.00  0.00    +0.000 C 
ATOM     16  C   UNL     1       1.249   2.306  20.061  0.00  0.00    +0.000 C 
ATOM     17  C   UNL     1       1.000   2.752  18.625  0.00  0.00    +0.000 C 
ATOM     18  C   UNL     1       2.119   3.585  18.005  0.00  0.00    +0.000 C 
ATOM     19  C   UNL     1       2.080   5.056  18.425  0.00  0.00    +0.000 C 
ENDBRANCH  11  13
ENDBRANCH   7   9
BRANCH   1  20
ATOM     20  C   UNL     1      -1.306  12.978  20.319  0.00  0.00    +0.000 C 
BRANCH  20  21
ATOM     21  C   UNL     1      -0.657  14.004  19.384  0.00  0.00    +0.000 C 
BRANCH  21  23
ATOM     22  C   UNL     1       1.674  13.465  18.606  0.00  0.00    +0.000 C 
ATOM     23  C   UNL     1       0.839  14.173  19.664  0.00  0.00    +0.000 C 
ENDBRANCH  21  23
ENDBRANCH  20  21
ENDBRANCH   1  20
TORSDOF 5
ENDMDL
MODEL 6
REMARK VINA RESULT:      -6.5      5.480      8.629
REMARK  Name = 
REMARK  7 active torsions:
REMARK  status: ('A' for Active; 'I' for Inactive)
REMARK    1  A    between atoms: C_1  and  C_2
REMARK    2  A    between atoms: C_2  and  C_3
REMARK    3  A    between atoms: C_3  and  C_4
REMARK    4  A    between atoms: C_4  and  N_5
REMARK    5  A    between atoms: N_5  and  C_6
REMARK    6  A    between atoms: C_11  and  C_12
REMARK    7  A    between atoms: N_14  and  C_15
REMARK                            x       y       z     vdW  Elec       q    Type
REMARK                         _______ _______ _______ _____ _____    ______ ____
ROOT
ATOM      1  N   UNL     1       0.295  10.635  20.529  0.00  0.00    +0.000 N 
ATOM      2  C   UNL     1       0.054  10.053  21.838  0.00  0.00    +0.000 C 
ATOM      3  C   UNL     1       1.044   9.880  19.628  0.00  0.00    +0.000 A 
ATOM      4  C   UNL     1       1.531  10.458  18.435  0.00  0.00    +0.000 A 
ATOM      5  N   UNL     1       2.271   9.816  17.500  0.00  0.00    +0.000 NA
ATOM      6  C   UNL     1       2.527   8.523  17.786  0.00  0.00    +0.000 A 
ATOM      7  C   UNL     1       2.065   7.909  18.945  0.00  0.00    +0.000 A 
ATOM      8  N   UNL     1       1.330   8.571  19.892  0.00  0.00    +0.000 NA
ENDROOT
BRANCH   7   9
ATOM      9  C   UNL     1       2.389   6.460  19.132  0.00  0.00    +0.000 C 
ATOM     10  O   UNL     1       2.611   5.753  18.146  0.00  0.00    +0.000 OA
ATOM     11  N   UNL     1       2.425   5.962  20.420  0.00  0.00    +0.000 N 
ATOM     12  H   UNL     1       2.141   6.593  21.166  0.00  0.00    +0.000 HD
BRANCH  11  13
ATOM     13  C   UNL     1       2.741   4.554  20.696  0.00  0.00    +0.000 C 
ATOM     14  C   UNL     1       1.468   3.724  20.890  0.00  0.00    +0.000 C 
ATOM     15  C   UNL     1       0.678   3.419  19.621  0.00  0.00    +0.000 C 
ATOM     16  C   UNL     1       1.154   2.172  18.883  0.00  0.00    +0.000 C 
ATOM     17  C   UNL     1       2.561   2.251  18.303  0.00  0.00    +0.000 C 
ATOM     18  C   UNL     1       3.664   2.522  19.322  0.00  0.00    +0.000 C 
ATOM     19  C   UNL     1       3.783   4.000  19.705  0.00  0.00    +0.000 C 
ENDBRANCH  11  13
ENDBRANCH   7   9
BRANCH   1  20
ATOM     20  C   UNL     1      -0.556  11.741  20.069  0.00  0.00    +0.000 C 
BRANCH  20  21
ATOM     21  C   UNL     1      -1.842  11.235  19.406  0.00  0.00    +0.000 C 
BRANCH  21  23
ATOM     22  C   UNL     1      -2.045  10.288  17.084  0.00  0.00    +0.000 C 
ATOM     23  C   UNL     1      -1.884  11.557  17.910  0.00  0.00    +0.000 C 
ENDBRANCH  21  23
ENDBRANCH  20  21
ENDBRANCH   1  20
TORSDOF 5
ENDMDL
MODEL 7
REMARK VINA RESULT:      -6.4      5.278      9.857
REMARK  Name = 
REMARK  7 active torsions:
REMARK  status: ('A' for Active; 'I' for Inactive)
REMARK    1  A    between atoms: C_1  and  C_2
REMARK    2  A    between atoms: C_2  and  C_3
REMARK    3  A    between atoms: C_3  and  C_4
REMARK    4  A    between atoms: C_4  and  N_5
REMARK    5  A    between atoms: N_5  and  C_6
REMARK    6  A    between atoms: C_11  and  C_12
REMARK    7  A    between atoms: N_14  and  C_15
REMARK                            x       y       z     vdW  Elec       q    Type
REMARK                         _______ _______ _______ _____ _____    ______ ____
ROOT
ATOM      1  N   UNL     1       0.298  10.280  21.624  0.00  0.00    +0.000 N 
ATOM      2  C   UNL     1       0.364   9.511  22.855  0.00  0.00    +0.000 C 
ATOM      3  C   UNL     1       0.900   9.723  20.497  0.00  0.00    +0.000 A 
ATOM      4  C   UNL     1       1.098  10.495  19.331  0.00  0.00    +0.000 A 
ATOM      5  N   UNL     1       1.677  10.053  18.189  0.00  0.00    +0.000 NA
ATOM      6  C   UNL     1       2.072   8.764  18.229  0.00  0.00    +0.000 A 
ATOM      7  C   UNL     1       1.893   7.963  19.352  0.00  0.00    +0.000 A 
ATOM      8  N   UNL     1       1.320   8.423  20.508  0.00  0.00    +0.000 NA
ENDROOT
BRANCH   7   9
ATOM      9  C   UNL     1       2.345   6.539  19.259  0.00  0.00    +0.000 C 
ATOM     10  O   UNL     1       2.470   6.011  18.152  0.00  0.00    +0.000 OA
ATOM     11  N   UNL     1       2.605   5.862  20.435  0.00  0.00    +0.000 N 
ATOM     12  H   UNL     1       2.389   6.346  21.303  0.00  0.00    +0.000 HD
BRANCH  11  13
ATOM     13  C   UNL     1       3.059   4.464  20.438  0.00  0.00    +0.000 C 
ATOM     14  C   UNL     1       1.924   3.509  20.821  0.00  0.00    +0.000 C 
ATOM     15  C   UNL     1       0.859   3.284  19.751  0.00  0.00    +0.000 C 
ATOM     16  C   UNL     1       1.205   2.176  18.762  0.00  0.00    +0.000 C 
ATOM     17  C   UNL     1       2.415   2.443  17.875  0.00  0.00    +0.000 C 
ATOM     18  C   UNL     1       3.721   2.691  18.624  0.00  0.00    +0.000 C 
ATOM     19  C   UNL     1       3.849   4.120  19.160  0.00  0.00    +0.000 C 
ENDBRANCH  11  13
ENDBRANCH   7   9
BRANCH   1  20
ATOM     20  C   UNL     1      -0.701  11.350  21.501  0.00  0.00    +0.000 C 
BRANCH  20  21
ATOM     21  C   UNL     1      -1.177  11.848  22.870  0.00  0.00    +0.000 C 
BRANCH  21  23
ATOM     22  C   UNL     1      -3.468  12.303  23.806  0.00  0.00    +0.000 C 
ATOM     23  C   UNL     1      -2.436  12.711  22.763  0.00  0.00    +0.000 C 
ENDBRANCH  21  23
ENDBRANCH  20  21
ENDBRANCH   1  20
TORSDOF 5
ENDMDL
MODEL 8
REMARK VINA RESULT:      -6.4      5.870     10.321
REMARK  Name = 
REMARK  7 active torsions:
REMARK  status: ('A' for Active; 'I' for Inactive)
REMARK    1  A    between atoms: C_1  and  C_2
REMARK    2  A    between atoms: C_2  and  C_3
REMARK    3  A    between atoms: C_3  and  C_4
REMARK    4  A    between atoms: C_4  and  N_5
REMARK    5  A    between atoms: N_5  and  C_6
REMARK    6  A    between atoms: C_11  and  C_12
REMARK    7  A    between atoms: N_14  and  C_15
REMARK                            x       y       z     vdW  Elec       q    Type
REMARK                         _______ _______ _______ _____ _____    ______ ____
ROOT
ATOM      1  N   UNL     1      -0.344  10.614  22.134  0.00  0.00    +0.000 N 
ATOM      2  C   UNL     1      -0.052   9.597  23.130  0.00  0.00    +0.000 C 
ATOM      3  C   UNL     1       0.267  10.475  20.889  0.00  0.00    +0.000 A 
ATOM      4  C   UNL     1       0.238  11.530  19.951  0.00  0.00    +0.000 A 
ATOM      5  N   UNL     1       0.804  11.500  18.721  0.00  0.00    +0.000 NA
ATOM      6  C   UNL     1       1.428  10.341  18.425  0.00  0.00    +0.000 A 
ATOM      7  C   UNL     1       1.479   9.273  19.314  0.00  0.00    +0.000 A 
ATOM      8  N   UNL     1       0.916   9.318  20.561  0.00  0.00    +0.000 NA
ENDROOT
BRANCH   7   9
ATOM      9  C   UNL     1       2.173   8.029  18.855  0.00  0.00    +0.000 C 
ATOM     10  O   UNL     1       2.880   8.064  17.845  0.00  0.00    +0.000 OA
ATOM     11  N   UNL     1       1.991   6.873  19.590  0.00  0.00    +0.000 N 
ATOM     12  H   UNL     1       1.321   6.914  20.354  0.00  0.00    +0.000 HD
BRANCH  11  13
ATOM     13  C   UNL     1       2.640   5.609  19.215  0.00  0.00    +0.000 C 
ATOM     14  C   UNL     1       2.888   4.725  20.441  0.00  0.00    +0.000 C 
ATOM     15  C   UNL     1       1.654   4.051  21.033  0.00  0.00    +0.000 C 
ATOM     16  C   UNL     1       1.305   2.720  20.377  0.00  0.00    +0.000 C 
ATOM     17  C   UNL     1       0.884   2.800  18.915  0.00  0.00    +0.000 C 
ATOM     18  C   UNL     1       1.921   3.413  17.978  0.00  0.00    +0.000 C 
ATOM     19  C   UNL     1       1.938   4.944  18.015  0.00  0.00    +0.000 C 
ENDBRANCH  11  13
ENDBRANCH   7   9
BRANCH   1  20
ATOM     20  C   UNL     1      -1.526  11.468  22.308  0.00  0.00    +0.000 C 
BRANCH  20  21
ATOM     21  C   UNL     1      -1.198  12.748  23.086  0.00  0.00    +0.000 C 
BRANCH  21  23
ATOM     22  C   UNL     1       0.078  14.776  22.321  0.00  0.00    +0.000 C 
ATOM     23  C   UNL     1      -1.218  13.988  22.190  0.00  0.00    +0.000 C 
ENDBRANCH  21  23
ENDBRANCH  20  21
ENDBRANCH   1  20
TORSDOF 5
ENDMDL
MODEL 9
REMARK VINA RESULT:      -6.4      5.313      8.769
REMARK  Name = 
REMARK  7 active torsions:
REMARK  status: ('A' for Active; 'I' for Inactive)
REMARK    1  A    between atoms: C_1  and  C_2
REMARK    2  A    between atoms: C_2  and  C_3
REMARK    3  A    between atoms: C_3  and  C_4
REMARK    4  A    between atoms: C_4  and  N_5
REMARK    5  A    between atoms: N_5  and  C_6
REMARK    6  A    between atoms: C_11  and  C_12
REMARK    7  A    between atoms: N_14  and  C_15
REMARK                            x       y       z     vdW  Elec       q    Type
REMARK                         _______ _______ _______ _____ _____    ______ ____
ROOT
ATOM      1  N   UNL     1      -0.196  11.398  19.624  0.00  0.00    +0.000 N 
ATOM      2  C   UNL     1      -0.681  11.318  20.991  0.00  0.00    +0.000 C 
ATOM      3  C   UNL     1       0.655  10.382  19.194  0.00  0.00    +0.000 A 
ATOM      4  C   UNL     1       1.362  10.502  17.977  0.00  0.00    +0.000 A 
ATOM      5  N   UNL     1       2.217   9.579  17.474  0.00  0.00    +0.000 NA
ATOM      6  C   UNL     1       2.359   8.478  18.240  0.00  0.00    +0.000 A 
ATOM      7  C   UNL     1       1.681   8.313  19.443  0.00  0.00    +0.000 A 
ATOM      8  N   UNL     1       0.830   9.258  19.951  0.00  0.00    +0.000 NA
ENDROOT
BRANCH   7   9
ATOM      9  C   UNL     1       1.899   7.031  20.185  0.00  0.00    +0.000 C 
ATOM     10  O   UNL     1       1.509   6.927  21.350  0.00  0.00    +0.000 OA
ATOM     11  N   UNL     1       2.540   6.000  19.525  0.00  0.00    +0.000 N 
ATOM     12  H   UNL     1       2.907   6.203  18.599  0.00  0.00    +0.000 HD
BRANCH  11  13
ATOM     13  C   UNL     1       2.790   4.705  20.174  0.00  0.00    +0.000 C 
ATOM     14  C   UNL     1       1.514   3.861  20.246  0.00  0.00    +0.000 C 
ATOM     15  C   UNL     1       1.054   3.244  18.929  0.00  0.00    +0.000 C 
ATOM     16  C   UNL     1       1.702   1.899  18.619  0.00  0.00    +0.000 C 
ATOM     17  C   UNL     1       3.206   1.936  18.380  0.00  0.00    +0.000 C 
ATOM     18  C   UNL     1       4.031   2.485  19.541  0.00  0.00    +0.000 C 
ATOM     19  C   UNL     1       4.044   4.015  19.601  0.00  0.00    +0.000 C 
ENDBRANCH  11  13
ENDBRANCH   7   9
BRANCH   1  20
ATOM     20  C   UNL     1      -0.905  12.253  18.662  0.00  0.00    +0.000 C 
BRANCH  20  21
ATOM     21  C   UNL     1      -2.385  11.875  18.543  0.00  0.00    +0.000 C 
BRANCH  21  23
ATOM     22  C   UNL     1      -2.179   9.906  16.990  0.00  0.00    +0.000 C 
ATOM     23  C   UNL     1      -2.728  11.316  17.160  0.00  0.00    +0.000 C 
ENDBRANCH  21  23
ENDBRANCH  20  21
ENDBRANCH   1  20
TORSDOF 5
ENDMDL
