MODEL 1
REMARK VINA RESULT:      -7.8      0.000      0.000
REMARK  Name = 
REMARK  1 active torsions:
REMARK  status: ('A' for Active; 'I' for Inactive)
REMARK    1  A    between atoms: C_6  and  C_7
REMARK                            x       y       z     vdW  Elec       q    Type
REMARK                         _______ _______ _______ _____ _____    ______ ____
ROOT
ATOM      1  C   UNL     1       5.112   4.676  18.301  0.00  0.00    +0.000 A 
ATOM      2  C   UNL     1       5.937   5.269  19.279  0.00  0.00    +0.000 A 
ATOM      3  C   UNL     1       7.230   5.670  18.963  0.00  0.00    +0.000 A 
ATOM      4  N   UNL     1       7.818   5.531  17.761  0.00  0.00    +0.000 NA
ATOM      5  C   UNL     1       7.010   4.964  16.848  0.00  0.00    +0.000 A 
ATOM      6  N   UNL     1       7.395   4.714  15.561  0.00  0.00    +0.000 N 
ATOM      7  C   UNL     1       6.360   4.151  14.866  0.00  0.00    +0.000 A 
ATOM      8  C   UNL     1       5.286   4.060  15.725  0.00  0.00    +0.000 A 
ATOM      9  C   UNL     1       5.693   4.537  17.012  0.00  0.00    +0.000 A 
ATOM     10  H   UNL     1       8.316   4.924  15.205  0.00  0.00    +0.000 HD
ENDROOT
BRANCH   1  16
ATOM     11 CL   UNL     1       1.755   2.501  21.647  0.00  0.00    +0.000 Cl
ATOM     12  C   UNL     1       2.102   3.232  20.127  0.00  0.00    +0.000 A 
ATOM     13  C   UNL     1       1.085   3.386  19.191  0.00  0.00    +0.000 A 
ATOM     14  C   UNL     1       1.382   3.942  17.951  0.00  0.00    +0.000 A 
ATOM     15  C   UNL     1       2.692   4.335  17.656  0.00  0.00    +0.000 A 
ATOM     16  C   UNL     1       3.731   4.233  18.600  0.00  0.00    +0.000 A 
ATOM     17  C   UNL     1       3.402   3.660  19.844  0.00  0.00    +0.000 A 
ENDBRANCH   1  16
TORSDOF 1
ENDMDL
MODEL 2
REMARK VINA RESULT:      -7.7      1.131      1.163
REMARK  Name = 
REMARK  1 active torsions:
REMARK  status: ('A' for Active; 'I' for Inactive)
REMARK    1  A    between atoms: C_6  and  C_7
REMARK                            x       y       z     vdW  Elec       q    Type
REMARK                         _______ _______ _______ _____ _____    ______ ____
ROOT
ATOM      1  C   UNL     1       5.286   4.554  17.980  0.00  0.00    +0.000 A 
ATOM      2  C   UNL     1       6.039   5.147  19.012  0.00  0.00    +0.000 A 
ATOM      3  C   UNL     1       7.224   5.816  18.727  0.00  0.00    +0.000 A 
ATOM      4  N   UNL     1       7.767   5.954  17.504  0.00  0.00    +0.000 NA
ATOM      5  C   UNL     1       7.028   5.380  16.538  0.00  0.00    +0.000 A 
ATOM      6  N   UNL     1       7.387   5.384  15.219  0.00  0.00    +0.000 N 
ATOM      7  C   UNL     1       6.436   4.742  14.475  0.00  0.00    +0.000 A 
ATOM      8  C   UNL     1       5.438   4.340  15.338  0.00  0.00    +0.000 A 
ATOM      9  C   UNL     1       5.817   4.701  16.671  0.00  0.00    +0.000 A 
ATOM     10  H   UNL     1       8.237   5.805  14.876  0.00  0.00    +0.000 HD
ENDROOT
BRANCH   1  16
ATOM     11 CL   UNL     1       0.703   4.343  20.460  0.00  0.00    +0.000 Cl
ATOM     12  C   UNL     1       1.853   3.675  19.366  0.00  0.00    +0.000 A 
ATOM     13  C   UNL     1       1.589   2.455  18.753  0.00  0.00    +0.000 A 
ATOM     14  C   UNL     1       2.539   1.904  17.900  0.00  0.00    +0.000 A 
ATOM     15  C   UNL     1       3.746   2.573  17.672  0.00  0.00    +0.000 A 
ATOM     16  C   UNL     1       4.021   3.828  18.244  0.00  0.00    +0.000 A 
ATOM     17  C   UNL     1       3.043   4.360  19.108  0.00  0.00    +0.000 A 
ENDBRANCH   1  16
TORSDOF 1
ENDMDL
MODEL 3
REMARK VINA RESULT:      -7.4      1.247      2.597
REMARK  Name = 
REMARK  1 active torsions:
REMARK  status: ('A' for Active; 'I' for Inactive)
REMARK    1  A    between atoms: C_6  and  C_7
REMARK                            x       y       z     vdW  Elec       q    Type
REMARK                         _______ _______ _______ _____ _____    ______ ____
ROOT
ATOM      1  C   UNL     1       4.996   4.328  17.062  0.00  0.00    +0.000 A 
ATOM      2  C   UNL     1       5.060   4.289  15.654  0.00  0.00    +0.000 A 
ATOM      3  C   UNL     1       6.106   4.905  14.978  0.00  0.00    +0.000 A 
ATOM      4  N   UNL     1       7.114   5.587  15.553  0.00  0.00    +0.000 NA
ATOM      5  C   UNL     1       7.029   5.607  16.894  0.00  0.00    +0.000 A 
ATOM      6  N   UNL     1       7.936   6.249  17.691  0.00  0.00    +0.000 N 
ATOM      7  C   UNL     1       7.599   6.082  19.007  0.00  0.00    +0.000 A 
ATOM      8  C   UNL     1       6.465   5.299  19.048  0.00  0.00    +0.000 A 
ATOM      9  C   UNL     1       6.058   5.019  17.704  0.00  0.00    +0.000 A 
ATOM     10  H   UNL     1       8.726   6.763  17.332  0.00  0.00    +0.000 HD
ENDROOT
BRANCH   1  16
ATOM     11 CL   UNL     1       1.119   4.771  20.522  0.00  0.00    +0.000 Cl
ATOM     12  C   UNL     1       2.055   3.831  19.424  0.00  0.00    +0.000 A 
ATOM     13  C   UNL     1       1.776   2.477  19.270  0.00  0.00    +0.000 A 
ATOM     14  C   UNL     1       2.560   1.716  18.410  0.00  0.00    +0.000 A 
ATOM     15  C   UNL     1       3.619   2.312  17.716  0.00  0.00    +0.000 A 
ATOM     16  C   UNL     1       3.895   3.688  17.819  0.00  0.00    +0.000 A 
ATOM     17  C   UNL     1       3.088   4.432  18.702  0.00  0.00    +0.000 A 
ENDBRANCH   1  16
TORSDOF 1
ENDMDL
MODEL 4
REMARK VINA RESULT:      -7.4      0.553      2.299
REMARK  Name = 
REMARK  1 active torsions:
REMARK  status: ('A' for Active; 'I' for Inactive)
REMARK    1  A    between atoms: C_6  and  C_7
REMARK                            x       y       z     vdW  Elec       q    Type
REMARK                         _______ _______ _______ _____ _____    ______ ____
ROOT
ATOM      1  C   UNL     1       4.882   4.142  17.374  0.00  0.00    +0.000 A 
ATOM      2  C   UNL     1       5.075   3.785  16.025  0.00  0.00    +0.000 A 
ATOM      3  C   UNL     1       6.278   4.065  15.385  0.00  0.00    +0.000 A 
ATOM      4  N   UNL     1       7.331   4.690  15.943  0.00  0.00    +0.000 NA
ATOM      5  C   UNL     1       7.120   5.018  17.229  0.00  0.00    +0.000 A 
ATOM      6  N   UNL     1       8.045   5.669  17.996  0.00  0.00    +0.000 N 
ATOM      7  C   UNL     1       7.557   5.851  19.261  0.00  0.00    +0.000 A 
ATOM      8  C   UNL     1       6.301   5.284  19.305  0.00  0.00    +0.000 A 
ATOM      9  C   UNL     1       5.984   4.782  18.003  0.00  0.00    +0.000 A 
ATOM     10  H   UNL     1       8.947   5.962  17.651  0.00  0.00    +0.000 HD
ENDROOT
BRANCH   1  16
ATOM     11 CL   UNL     1       2.469   2.601  21.733  0.00  0.00    +0.000 Cl
ATOM     12  C   UNL     1       2.421   3.163  20.106  0.00  0.00    +0.000 A 
ATOM     13  C   UNL     1       1.193   3.337  19.476  0.00  0.00    +0.000 A 
ATOM     14  C   UNL     1       1.164   3.754  18.150  0.00  0.00    +0.000 A 
ATOM     15  C   UNL     1       2.361   3.989  17.463  0.00  0.00    +0.000 A 
ATOM     16  C   UNL     1       3.615   3.864  18.089  0.00  0.00    +0.000 A 
ATOM     17  C   UNL     1       3.614   3.434  19.431  0.00  0.00    +0.000 A 
ENDBRANCH   1  16
TORSDOF 1
ENDMDL
MODEL 5
REMARK VINA RESULT:      -7.3      3.588      5.558
REMARK  Name = 
REMARK  1 active torsions:
REMARK  status: ('A' for Active; 'I' for Inactive)
REMARK    1  A    between atoms: C_6  and  C_7
REMARK                            x       y       z     vdW  Elec       q    Type
REMARK                         _______ _______ _______ _____ _____    ______ ____
ROOT
ATOM      1  C   UNL     1       4.169   4.145  19.029  0.00  0.00    +0.000 A 
ATOM      2  C   UNL     1       3.977   2.921  19.700  0.00  0.00    +0.000 A 
ATOM      3  C   UNL     1       3.023   2.808  20.705  0.00  0.00    +0.000 A 
ATOM      4  N   UNL     1       2.229   3.802  21.143  0.00  0.00    +0.000 NA
ATOM      5  C   UNL     1       2.432   4.958  20.486  0.00  0.00    +0.000 A 
ATOM      6  N   UNL     1       1.747   6.107  20.765  0.00  0.00    +0.000 N 
ATOM      7  C   UNL     1       2.155   7.108  19.926  0.00  0.00    +0.000 A 
ATOM      8  C   UNL     1       3.105   6.577  19.080  0.00  0.00    +0.000 A 
ATOM      9  C   UNL     1       3.329   5.211  19.448  0.00  0.00    +0.000 A 
ATOM     10  H   UNL     1       1.050   6.177  21.491  0.00  0.00    +0.000 HD
ENDROOT
BRANCH   1  16
ATOM     11 CL   UNL     1       5.323   4.029  13.945  0.00  0.00    +0.000 Cl
ATOM     12  C   UNL     1       5.781   4.282  15.586  0.00  0.00    +0.000 A 
ATOM     13  C   UNL     1       7.096   4.620  15.887  0.00  0.00    +0.000 A 
ATOM     14  C   UNL     1       7.467   4.785  17.217  0.00  0.00    +0.000 A 
ATOM     15  C   UNL     1       6.523   4.604  18.234  0.00  0.00    +0.000 A 
ATOM     16  C   UNL     1       5.177   4.306  17.956  0.00  0.00    +0.000 A 
ATOM     17  C   UNL     1       4.832   4.139  16.600  0.00  0.00    +0.000 A 
ENDBRANCH   1  16
TORSDOF 1
ENDMDL
MODEL 6
REMARK VINA RESULT:      -7.3      3.708      5.869
REMARK  Name = 
REMARK  1 active torsions:
REMARK  status: ('A' for Active; 'I' for Inactive)
REMARK    1  A    between atoms: C_6  and  C_7
REMARK                            x       y       z     vdW  Elec       q    Type
REMARK                         _______ _______ _______ _____ _____    ______ ____
ROOT
ATOM      1  C   UNL     1       3.430   3.573  18.236  0.00  0.00    +0.000 A 
ATOM      2  C   UNL     1       2.809   2.334  17.981  0.00  0.00    +0.000 A 
ATOM      3  C   UNL     1       1.600   2.012  18.586  0.00  0.00    +0.000 A 
ATOM      4  N   UNL     1       0.927   2.794  19.450  0.00  0.00    +0.000 NA
ATOM      5  C   UNL     1       1.540   3.969  19.674  0.00  0.00    +0.000 A 
ATOM      6  N   UNL     1       1.047   4.920  20.523  0.00  0.00    +0.000 N 
ATOM      7  C   UNL     1       1.874   6.010  20.534  0.00  0.00    +0.000 A 
ATOM      8  C   UNL     1       2.906   5.754  19.655  0.00  0.00    +0.000 A 
ATOM      9  C   UNL     1       2.734   4.436  19.124  0.00  0.00    +0.000 A 
ATOM     10  H   UNL     1       0.196   4.806  21.052  0.00  0.00    +0.000 HD
ENDROOT
BRANCH   1  16
ATOM     11 CL   UNL     1       6.336   4.035  13.930  0.00  0.00    +0.000 Cl
ATOM     12  C   UNL     1       6.132   4.204  15.631  0.00  0.00    +0.000 A 
ATOM     13  C   UNL     1       7.185   4.680  16.405  0.00  0.00    +0.000 A 
ATOM     14  C   UNL     1       7.024   4.777  17.783  0.00  0.00    +0.000 A 
ATOM     15  C   UNL     1       5.817   4.393  18.376  0.00  0.00    +0.000 A 
ATOM     16  C   UNL     1       4.720   3.951  17.614  0.00  0.00    +0.000 A 
ATOM     17  C   UNL     1       4.914   3.857  16.221  0.00  0.00    +0.000 A 
ENDBRANCH   1  16
TORSDOF 1
ENDMDL
MODEL 7
REMARK VINA RESULT:      -7.3      3.696      4.491
REMARK  Name = 
REMARK  1 active torsions:
REMARK  status: ('A' for Active; 'I' for Inactive)
REMARK    1  A    between atoms: C_6  and  C_7
REMARK                            x       y       z     vdW  Elec       q    Type
REMARK                         _______ _______ _______ _____ _____    ______ ____
ROOT
ATOM      1  C   UNL     1       3.234   6.231  17.934  0.00  0.00    +0.000 A 
ATOM      2  C   UNL     1       4.514   6.382  17.362  0.00  0.00    +0.000 A 
ATOM      3  C   UNL     1       5.207   5.278  16.879  0.00  0.00    +0.000 A 
ATOM      4  N   UNL     1       4.770   4.006  16.914  0.00  0.00    +0.000 NA
ATOM      5  C   UNL     1       3.548   3.890  17.463  0.00  0.00    +0.000 A 
ATOM      6  N   UNL     1       2.907   2.693  17.614  0.00  0.00    +0.000 N 
ATOM      7  C   UNL     1       1.679   2.890  18.184  0.00  0.00    +0.000 A 
ATOM      8  C   UNL     1       1.528   4.247  18.381  0.00  0.00    +0.000 A 
ATOM      9  C   UNL     1       2.731   4.903  17.964  0.00  0.00    +0.000 A 
ATOM     10  H   UNL     1       3.307   1.809  17.337  0.00  0.00    +0.000 HD
ENDROOT
BRANCH   1  16
ATOM     11 CL   UNL     1       1.014   8.612  22.008  0.00  0.00    +0.000 Cl
ATOM     12  C   UNL     1       1.416   8.556  20.334  0.00  0.00    +0.000 A 
ATOM     13  C   UNL     1       1.003   9.585  19.495  0.00  0.00    +0.000 A 
ATOM     14  C   UNL     1       1.298   9.514  18.138  0.00  0.00    +0.000 A 
ATOM     15  C   UNL     1       1.998   8.414  17.631  0.00  0.00    +0.000 A 
ATOM     16  C   UNL     1       2.466   7.381  18.463  0.00  0.00    +0.000 A 
ATOM     17  C   UNL     1       2.147   7.477  19.832  0.00  0.00    +0.000 A 
ENDBRANCH   1  16
TORSDOF 1
ENDMDL
MODEL 8
REMARK VINA RESULT:      -7.2      1.217      1.339
REMARK  Name = 
REMARK  1 active torsions:
REMARK  status: ('A' for Active; 'I' for Inactive)
REMARK    1  A    between atoms: C_6  and  C_7
REMARK                            x       y       z     vdW  Elec       q    Type
REMARK                         _______ _______ _______ _____ _____    ______ ____
ROOT
ATOM      1  C   UNL     1       5.310   5.031  18.696  0.00  0.00    +0.000 A 
ATOM      2  C   UNL     1       6.499   5.388  19.363  0.00  0.00    +0.000 A 
ATOM      3  C   UNL     1       7.719   5.352  18.698  0.00  0.00    +0.000 A 
ATOM      4  N   UNL     1       7.900   4.976  17.419  0.00  0.00    +0.000 NA
ATOM      5  C   UNL     1       6.751   4.641  16.807  0.00  0.00    +0.000 A 
ATOM      6  N   UNL     1       6.689   4.218  15.509  0.00  0.00    +0.000 N 
ATOM      7  C   UNL     1       5.390   3.968  15.161  0.00  0.00    +0.000 A 
ATOM      8  C   UNL     1       4.605   4.259  16.256  0.00  0.00    +0.000 A 
ATOM      9  C   UNL     1       5.460   4.652  17.336  0.00  0.00    +0.000 A 
ATOM     10  H   UNL     1       7.501   4.114  14.919  0.00  0.00    +0.000 HD
ENDROOT
BRANCH   1  16
ATOM     11 CL   UNL     1       1.622   2.479  21.357  0.00  0.00    +0.000 Cl
ATOM     12  C   UNL     1       2.230   3.918  20.633  0.00  0.00    +0.000 A 
ATOM     13  C   UNL     1       1.470   5.082  20.678  0.00  0.00    +0.000 A 
ATOM     14  C   UNL     1       1.951   6.230  20.057  0.00  0.00    +0.000 A 
ATOM     15  C   UNL     1       3.182   6.204  19.394  0.00  0.00    +0.000 A 
ATOM     16  C   UNL     1       3.991   5.053  19.371  0.00  0.00    +0.000 A 
ATOM     17  C   UNL     1       3.476   3.903  20.003  0.00  0.00    +0.000 A 
ENDBRANCH   1  16
TORSDOF 1
ENDMDL
MODEL 9
REMARK VINA RESULT:      -7.2      4.037      5.224
REMARK  Name = 
REMARK  1 active torsions:
REMARK  status: ('A' for Active; 'I' for Inactive)
REMARK    1  A    between atoms: C_6  and  C_7
REMARK                            x       y       z     vdW  Elec       q    Type
REMARK                         _______ _______ _______ _____ _____    ______ ____
ROOT
ATOM      1  C   UNL     1       3.079   5.846  19.388  0.00  0.00    +0.000 A 
ATOM      2  C   UNL     1       4.400   5.653  18.936  0.00  0.00    +0.000 A 
ATOM      3  C   UNL     1       5.016   4.413  19.061  0.00  0.00    +0.000 A 
ATOM      4  N   UNL     1       4.460   3.318  19.612  0.00  0.00    +0.000 NA
ATOM      5  C   UNL     1       3.201   3.529  20.034  0.00  0.00    +0.000 A 
ATOM      6  N   UNL     1       2.442   2.565  20.635  0.00  0.00    +0.000 N 
ATOM      7  C   UNL     1       1.205   3.065  20.936  0.00  0.00    +0.000 A 
ATOM      8  C   UNL     1       1.170   4.372  20.497  0.00  0.00    +0.000 A 
ATOM      9  C   UNL     1       2.452   4.703  19.953  0.00  0.00    +0.000 A 
ATOM     10  H   UNL     1       2.774   1.630  20.818  0.00  0.00    +0.000 HD
ENDROOT
BRANCH   1  16
ATOM     11 CL   UNL     1       0.282   9.617  21.656  0.00  0.00    +0.000 Cl
ATOM     12  C   UNL     1       1.089   8.963  20.283  0.00  0.00    +0.000 A 
ATOM     13  C   UNL     1       1.075   9.661  19.081  0.00  0.00    +0.000 A 
ATOM     14  C   UNL     1       1.697   9.108  17.967  0.00  0.00    +0.000 A 
ATOM     15  C   UNL     1       2.323   7.860  18.062  0.00  0.00    +0.000 A 
ATOM     16  C   UNL     1       2.391   7.152  19.276  0.00  0.00    +0.000 A 
ATOM     17  C   UNL     1       1.747   7.734  20.386  0.00  0.00    +0.000 A 
ENDBRANCH   1  16
TORSDOF 1
ENDMDL
