MODEL 1
REMARK VINA RESULT:      -7.8      0.000      0.000
REMARK  Name = 
REMARK  11 active torsions:
REMARK  status: ('A' for Active; 'I' for Inactive)
REMARK    1  A    between atoms: C_1  and  O_2
REMARK    2  A    between atoms: O_2  and  C_3
REMARK    3  A    between atoms: C_5  and  C_6
REMARK    4  A    between atoms: C_8  and  C_9
REMARK    5  A    between atoms: C_15  and  C_16
REMARK    6  A    between atoms: C_25  and  O_26
REMARK    7  A    between atoms: O_26  and  C_27
REMARK    8  A    between atoms: C_27  and  C_28
REMARK    9  A    between atoms: C_28  and  N_29
REMARK   10  A    between atoms: N_29  and  C_30
REMARK   11  A    between atoms: N_29  and  C_31
REMARK                            x       y       z     vdW  Elec       q    Type
REMARK                         _______ _______ _______ _____ _____    ______ ____
ROOT
ATOM      1  C   UNL     1       2.537   7.737  18.530  0.00  0.00    +0.000 A 
ATOM      2  N   UNL     1       3.670   7.628  17.864  0.00  0.00    +0.000 NA
ATOM      3  C   UNL     1       3.885   6.277  17.675  0.00  0.00    +0.000 A 
ATOM      4  C   UNL     1       2.872   5.532  18.265  0.00  0.00    +0.000 A 
ATOM      5  N   UNL     1       2.039   6.490  18.800  0.00  0.00    +0.000 N 
ATOM      6  H   UNL     1       1.175   6.306  19.282  0.00  0.00    +0.000 HD
ENDROOT
BRANCH   1   9
ATOM      7  C   UNL     1       0.451  10.190  20.476  0.00  0.00    +0.000 A 
ATOM      8  C   UNL     1       1.112   9.027  20.068  0.00  0.00    +0.000 A 
ATOM      9  C   UNL     1       1.834   8.975  18.869  0.00  0.00    +0.000 A 
ATOM     10  C   UNL     1       1.879  10.115  18.059  0.00  0.00    +0.000 A 
ATOM     11  C   UNL     1       1.251  11.297  18.467  0.00  0.00    +0.000 A 
ATOM     12  C   UNL     1       0.567  11.355  19.686  0.00  0.00    +0.000 A 
BRANCH   7  14
ATOM     13  C   UNL     1      -0.007   9.468  22.739  0.00  0.00    +0.000 C 
ATOM     14  O   UNL     1      -0.315  10.260  21.602  0.00  0.00    +0.000 OA
ENDBRANCH   7  14
BRANCH  12  15
ATOM     15  O   UNL     1       0.036  12.598  19.984  0.00  0.00    +0.000 OA
BRANCH  15  16
ATOM     16  C   UNL     1      -1.028  12.978  19.100  0.00  0.00    +0.000 C 
BRANCH  16  17
ATOM     17  C   UNL     1      -2.333  12.205  19.364  0.00  0.00    +0.000 C 
BRANCH  17  18
ATOM     18  N   UNL     1      -2.847  11.591  18.118  0.00  0.00    +0.000 NA
ATOM     19  C   UNL     1      -2.330  10.239  17.908  0.00  0.00    +0.000 C 
ATOM     20  C   UNL     1      -4.307  11.583  18.082  0.00  0.00    +0.000 C 
ENDBRANCH  17  18
ENDBRANCH  16  17
ENDBRANCH  15  16
ENDBRANCH  12  15
ENDBRANCH   1   9
BRANCH   3  21
ATOM     21  C   UNL     1       5.039   5.784  16.933  0.00  0.00    +0.000 A 
ATOM     22  C   UNL     1       6.205   5.426  17.626  0.00  0.00    +0.000 A 
ATOM     23  C   UNL     1       7.308   4.906  16.942  0.00  0.00    +0.000 A 
ATOM     24  C   UNL     1       7.259   4.734  15.559  0.00  0.00    +0.000 A 
ATOM     25  C   UNL     1       6.114   5.107  14.857  0.00  0.00    +0.000 A 
ATOM     26  C   UNL     1       5.017   5.644  15.540  0.00  0.00    +0.000 A 
ENDBRANCH   3  21
BRANCH   4  27
ATOM     27  C   UNL     1       2.589   4.104  18.408  0.00  0.00    +0.000 A 
ATOM     28  C   UNL     1       1.276   3.642  18.561  0.00  0.00    +0.000 A 
ATOM     29  C   UNL     1       1.012   2.285  18.750  0.00  0.00    +0.000 A 
ATOM     30  C   UNL     1       2.058   1.365  18.738  0.00  0.00    +0.000 A 
ATOM     31  C   UNL     1       3.366   1.803  18.556  0.00  0.00    +0.000 A 
ATOM     32  C   UNL     1       3.631   3.165  18.399  0.00  0.00    +0.000 A 
ENDBRANCH   4  27
TORSDOF 8
ENDMDL
MODEL 2
REMARK VINA RESULT:      -7.7      1.591      2.342
REMARK  Name = 
REMARK  11 active torsions:
REMARK  status: ('A' for Active; 'I' for Inactive)
REMARK    1  A    between atoms: C_1  and  O_2
REMARK    2  A    between atoms: O_2  and  C_3
REMARK    3  A    between atoms: C_5  and  C_6
REMARK    4  A    between atoms: C_8  and  C_9
REMARK    5  A    between atoms: C_15  and  C_16
REMARK    6  A    between atoms: C_25  and  O_26
REMARK    7  A    between atoms: O_26  and  C_27
REMARK    8  A    between atoms: C_27  and  C_28
REMARK    9  A    between atoms: C_28  and  N_29
REMARK   10  A    between atoms: N_29  and  C_30
REMARK   11  A    between atoms: N_29  and  C_31
REMARK                            x       y       z     vdW  Elec       q    Type
REMARK                         _______ _______ _______ _____ _____    ______ ____
ROOT
ATOM      1  C   UNL     1       2.230   8.440  18.201  0.00  0.00    +0.000 A 
ATOM      2  N   UNL     1       3.430   8.206  17.705  0.00  0.00    +0.000 NA
ATOM      3  C   UNL     1       3.618   6.838  17.764  0.00  0.00    +0.000 A 
ATOM      4  C   UNL     1       2.516   6.216  18.337  0.00  0.00    +0.000 A 
ATOM      5  N   UNL     1       1.660   7.261  18.604  0.00  0.00    +0.000 N 
ATOM      6  H   UNL     1       0.738   7.173  19.000  0.00  0.00    +0.000 HD
ENDROOT
BRANCH   1   9
ATOM      7  C   UNL     1      -0.593  10.925  18.285  0.00  0.00    +0.000 A 
ATOM      8  C   UNL     1       0.136   9.734  18.202  0.00  0.00    +0.000 A 
ATOM      9  C   UNL     1       1.537   9.727  18.248  0.00  0.00    +0.000 A 
ATOM     10  C   UNL     1       2.214  10.946  18.366  0.00  0.00    +0.000 A 
ATOM     11  C   UNL     1       1.499  12.143  18.483  0.00  0.00    +0.000 A 
ATOM     12  C   UNL     1       0.100  12.140  18.480  0.00  0.00    +0.000 A 
BRANCH   7  14
ATOM     13  C   UNL     1      -2.599  10.606  16.971  0.00  0.00    +0.000 C 
ATOM     14  O   UNL     1      -1.952  10.979  18.178  0.00  0.00    +0.000 OA
ENDBRANCH   7  14
BRANCH  12  15
ATOM     15  O   UNL     1      -0.474  13.388  18.651  0.00  0.00    +0.000 OA
BRANCH  15  16
ATOM     16  C   UNL     1      -0.593  13.764  20.030  0.00  0.00    +0.000 C 
BRANCH  16  17
ATOM     17  C   UNL     1      -1.990  13.479  20.611  0.00  0.00    +0.000 C 
BRANCH  17  18
ATOM     18  N   UNL     1      -1.949  12.343  21.561  0.00  0.00    +0.000 NA
ATOM     19  C   UNL     1      -0.618  12.147  22.137  0.00  0.00    +0.000 C 
ATOM     20  C   UNL     1      -2.941  12.489  22.622  0.00  0.00    +0.000 C 
ENDBRANCH  17  18
ENDBRANCH  16  17
ENDBRANCH  15  16
ENDBRANCH  12  15
ENDBRANCH   1   9
BRANCH   3  21
ATOM     21  C   UNL     1       4.834   6.213  17.258  0.00  0.00    +0.000 A 
ATOM     22  C   UNL     1       5.780   5.709  18.163  0.00  0.00    +0.000 A 
ATOM     23  C   UNL     1       6.931   5.063  17.703  0.00  0.00    +0.000 A 
ATOM     24  C   UNL     1       7.150   4.908  16.334  0.00  0.00    +0.000 A 
ATOM     25  C   UNL     1       6.228   5.423  15.426  0.00  0.00    +0.000 A 
ATOM     26  C   UNL     1       5.084   6.087  15.886  0.00  0.00    +0.000 A 
ENDBRANCH   3  21
BRANCH   4  27
ATOM     27  C   UNL     1       2.168   4.835  18.671  0.00  0.00    +0.000 A 
ATOM     28  C   UNL     1       2.378   3.798  17.753  0.00  0.00    +0.000 A 
ATOM     29  C   UNL     1       1.998   2.490  18.053  0.00  0.00    +0.000 A 
ATOM     30  C   UNL     1       1.446   2.193  19.298  0.00  0.00    +0.000 A 
ATOM     31  C   UNL     1       1.259   3.206  20.233  0.00  0.00    +0.000 A 
ATOM     32  C   UNL     1       1.612   4.521  19.919  0.00  0.00    +0.000 A 
ENDBRANCH   4  27
TORSDOF 8
ENDMDL
MODEL 3
REMARK VINA RESULT:      -7.6      2.206      4.647
REMARK  Name = 
REMARK  11 active torsions:
REMARK  status: ('A' for Active; 'I' for Inactive)
REMARK    1  A    between atoms: C_1  and  O_2
REMARK    2  A    between atoms: O_2  and  C_3
REMARK    3  A    between atoms: C_5  and  C_6
REMARK    4  A    between atoms: C_8  and  C_9
REMARK    5  A    between atoms: C_15  and  C_16
REMARK    6  A    between atoms: C_25  and  O_26
REMARK    7  A    between atoms: O_26  and  C_27
REMARK    8  A    between atoms: C_27  and  C_28
REMARK    9  A    between atoms: C_28  and  N_29
REMARK   10  A    between atoms: N_29  and  C_30
REMARK   11  A    between atoms: N_29  and  C_31
REMARK                            x       y       z     vdW  Elec       q    Type
REMARK                         _______ _______ _______ _____ _____    ______ ____
ROOT
ATOM      1  C   UNL     1       2.179   8.483  18.152  0.00  0.00    +0.000 A 
ATOM      2  N   UNL     1       1.538   7.410  18.575  0.00  0.00    +0.000 NA
ATOM      3  C   UNL     1       2.398   6.344  18.393  0.00  0.00    +0.000 A 
ATOM      4  C   UNL     1       3.589   6.768  17.817  0.00  0.00    +0.000 A 
ATOM      5  N   UNL     1       3.413   8.126  17.675  0.00  0.00    +0.000 N 
ATOM      6  H   UNL     1       4.098   8.767  17.313  0.00  0.00    +0.000 HD
ENDROOT
BRANCH   1   9
ATOM      7  C   UNL     1      -0.088  11.416  18.795  0.00  0.00    +0.000 A 
ATOM      8  C   UNL     1       0.402  10.115  18.646  0.00  0.00    +0.000 A 
ATOM      9  C   UNL     1       1.722   9.870  18.243  0.00  0.00    +0.000 A 
ATOM     10  C   UNL     1       2.557  10.960  17.972  0.00  0.00    +0.000 A 
ATOM     11  C   UNL     1       2.092  12.267  18.148  0.00  0.00    +0.000 A 
ATOM     12  C   UNL     1       0.787  12.505  18.592  0.00  0.00    +0.000 A 
BRANCH   7  14
ATOM     13  C   UNL     1      -2.409  11.625  18.142  0.00  0.00    +0.000 C 
ATOM     14  O   UNL     1      -1.383  11.694  19.121  0.00  0.00    +0.000 OA
ENDBRANCH   7  14
BRANCH  12  15
ATOM     15  O   UNL     1       0.478  13.843  18.766  0.00  0.00    +0.000 OA
BRANCH  15  16
ATOM     16  C   UNL     1       0.971  14.374  20.004  0.00  0.00    +0.000 C 
BRANCH  16  17
ATOM     17  C   UNL     1       1.841  15.630  19.813  0.00  0.00    +0.000 C 
BRANCH  17  18
ATOM     18  N   UNL     1       1.914  16.014  18.384  0.00  0.00    +0.000 NA
ATOM     19  C   UNL     1       1.385  17.355  18.140  0.00  0.00    +0.000 C 
ATOM     20  C   UNL     1       3.275  15.907  17.865  0.00  0.00    +0.000 C 
ENDBRANCH  17  18
ENDBRANCH  16  17
ENDBRANCH  15  16
ENDBRANCH  12  15
ENDBRANCH   1   9
BRANCH   3  21
ATOM     21  C   UNL     1       2.030   4.991  18.792  0.00  0.00    +0.000 A 
ATOM     22  C   UNL     1       2.055   3.959  17.843  0.00  0.00    +0.000 A 
ATOM     23  C   UNL     1       1.753   2.645  18.211  0.00  0.00    +0.000 A 
ATOM     24  C   UNL     1       1.427   2.344  19.533  0.00  0.00    +0.000 A 
ATOM     25  C   UNL     1       1.378   3.364  20.481  0.00  0.00    +0.000 A 
ATOM     26  C   UNL     1       1.662   4.683  20.108  0.00  0.00    +0.000 A 
ENDBRANCH   3  21
BRANCH   4  27
ATOM     27  C   UNL     1       4.819   6.104  17.382  0.00  0.00    +0.000 A 
ATOM     28  C   UNL     1       5.132   5.992  16.021  0.00  0.00    +0.000 A 
ATOM     29  C   UNL     1       6.278   5.315  15.605  0.00  0.00    +0.000 A 
ATOM     30  C   UNL     1       7.153   4.781  16.550  0.00  0.00    +0.000 A 
ATOM     31  C   UNL     1       6.872   4.910  17.906  0.00  0.00    +0.000 A 
ATOM     32  C   UNL     1       5.708   5.563  18.320  0.00  0.00    +0.000 A 
ENDBRANCH   4  27
TORSDOF 8
ENDMDL
MODEL 4
REMARK VINA RESULT:      -7.6      2.135      3.162
REMARK  Name = 
REMARK  11 active torsions:
REMARK  status: ('A' for Active; 'I' for Inactive)
REMARK    1  A    between atoms: C_1  and  O_2
REMARK    2  A    between atoms: O_2  and  C_3
REMARK    3  A    between atoms: C_5  and  C_6
REMARK    4  A    between atoms: C_8  and  C_9
REMARK    5  A    between atoms: C_15  and  C_16
REMARK    6  A    between atoms: C_25  and  O_26
REMARK    7  A    between atoms: O_26  and  C_27
REMARK    8  A    between atoms: C_27  and  C_28
REMARK    9  A    between atoms: C_28  and  N_29
REMARK   10  A    between atoms: N_29  and  C_30
REMARK   11  A    between atoms: N_29  and  C_31
REMARK                            x       y       z     vdW  Elec       q    Type
REMARK                         _______ _______ _______ _____ _____    ______ ____
ROOT
ATOM      1  C   UNL     1       2.452   8.233  18.155  0.00  0.00    +0.000 A 
ATOM      2  N   UNL     1       3.626   7.945  17.627  0.00  0.00    +0.000 NA
ATOM      3  C   UNL     1       3.741   6.569  17.657  0.00  0.00    +0.000 A 
ATOM      4  C   UNL     1       2.620   5.995  18.244  0.00  0.00    +0.000 A 
ATOM      5  N   UNL     1       1.828   7.079  18.550  0.00  0.00    +0.000 N 
ATOM      6  H   UNL     1       0.913   7.032  18.966  0.00  0.00    +0.000 HD
ENDROOT
BRANCH   1   9
ATOM      7  C   UNL     1      -0.169  10.867  18.748  0.00  0.00    +0.000 A 
ATOM      8  C   UNL     1       0.479   9.635  18.605  0.00  0.00    +0.000 A 
ATOM      9  C   UNL     1       1.829   9.555  18.241  0.00  0.00    +0.000 A 
ATOM     10  C   UNL     1       2.536  10.739  18.004  0.00  0.00    +0.000 A 
ATOM     11  C   UNL     1       1.913  11.980  18.174  0.00  0.00    +0.000 A 
ATOM     12  C   UNL     1       0.575  12.055  18.579  0.00  0.00    +0.000 A 
BRANCH   7  14
ATOM     13  C   UNL     1      -2.469  10.946  18.002  0.00  0.00    +0.000 C 
ATOM     14  O   UNL     1      -1.497  10.985  19.036  0.00  0.00    +0.000 OA
ENDBRANCH   7  14
BRANCH  12  15
ATOM     15  O   UNL     1       0.103  13.344  18.753  0.00  0.00    +0.000 OA
BRANCH  15  16
ATOM     16  C   UNL     1       0.983  14.161  19.537  0.00  0.00    +0.000 C 
BRANCH  16  17
ATOM     17  C   UNL     1       1.270  15.528  18.888  0.00  0.00    +0.000 C 
BRANCH  17  18
ATOM     18  N   UNL     1       2.588  15.529  18.212  0.00  0.00    +0.000 NA
ATOM     19  C   UNL     1       2.887  16.812  17.576  0.00  0.00    +0.000 C 
ATOM     20  C   UNL     1       3.664  15.157  19.126  0.00  0.00    +0.000 C 
ENDBRANCH  17  18
ENDBRANCH  16  17
ENDBRANCH  15  16
ENDBRANCH  12  15
ENDBRANCH   1   9
BRANCH   3  21
ATOM     21  C   UNL     1       4.910   5.889  17.111  0.00  0.00    +0.000 A 
ATOM     22  C   UNL     1       5.051   5.764  15.722  0.00  0.00    +0.000 A 
ATOM     23  C   UNL     1       6.185   5.158  15.173  0.00  0.00    +0.000 A 
ATOM     24  C   UNL     1       7.195   4.674  16.005  0.00  0.00    +0.000 A 
ATOM     25  C   UNL     1       7.056   4.774  17.388  0.00  0.00    +0.000 A 
ATOM     26  C   UNL     1       5.911   5.363  17.937  0.00  0.00    +0.000 A 
ENDBRANCH   3  21
BRANCH   4  27
ATOM     27  C   UNL     1       2.207   4.628  18.563  0.00  0.00    +0.000 A 
ATOM     28  C   UNL     1       1.503   4.346  19.740  0.00  0.00    +0.000 A 
ATOM     29  C   UNL     1       1.154   3.036  20.068  0.00  0.00    +0.000 A 
ATOM     30  C   UNL     1       1.464   1.994  19.195  0.00  0.00    +0.000 A 
ATOM     31  C   UNL     1       2.135   2.261  18.007  0.00  0.00    +0.000 A 
ATOM     32  C   UNL     1       2.510   3.570  17.695  0.00  0.00    +0.000 A 
ENDBRANCH   4  27
TORSDOF 8
ENDMDL
MODEL 5
REMARK VINA RESULT:      -7.5      1.557      4.184
REMARK  Name = 
REMARK  11 active torsions:
REMARK  status: ('A' for Active; 'I' for Inactive)
REMARK    1  A    between atoms: C_1  and  O_2
REMARK    2  A    between atoms: O_2  and  C_3
REMARK    3  A    between atoms: C_5  and  C_6
REMARK    4  A    between atoms: C_8  and  C_9
REMARK    5  A    between atoms: C_15  and  C_16
REMARK    6  A    between atoms: C_25  and  O_26
REMARK    7  A    between atoms: O_26  and  C_27
REMARK    8  A    between atoms: C_27  and  C_28
REMARK    9  A    between atoms: C_28  and  N_29
REMARK   10  A    between atoms: N_29  and  C_30
REMARK   11  A    between atoms: N_29  and  C_31
REMARK                            x       y       z     vdW  Elec       q    Type
REMARK                         _______ _______ _______ _____ _____    ______ ____
ROOT
ATOM      1  C   UNL     1       2.138   8.178  18.062  0.00  0.00    +0.000 A 
ATOM      2  N   UNL     1       1.534   7.059  18.412  0.00  0.00    +0.000 NA
ATOM      3  C   UNL     1       2.450   6.043  18.218  0.00  0.00    +0.000 A 
ATOM      4  C   UNL     1       3.640   6.547  17.709  0.00  0.00    +0.000 A 
ATOM      5  N   UNL     1       3.405   7.900  17.619  0.00  0.00    +0.000 N 
ATOM      6  H   UNL     1       4.072   8.588  17.312  0.00  0.00    +0.000 HD
ENDROOT
BRANCH   1   9
ATOM      7  C   UNL     1      -0.338  10.975  18.508  0.00  0.00    +0.000 A 
ATOM      8  C   UNL     1       0.229   9.709  18.335  0.00  0.00    +0.000 A 
ATOM      9  C   UNL     1       1.612   9.537  18.194  0.00  0.00    +0.000 A 
ATOM     10  C   UNL     1       2.438  10.668  18.215  0.00  0.00    +0.000 A 
ATOM     11  C   UNL     1       1.890  11.938  18.420  0.00  0.00    +0.000 A 
ATOM     12  C   UNL     1       0.512  12.099  18.603  0.00  0.00    +0.000 A 
BRANCH   7  14
ATOM     13  C   UNL     1      -2.441  11.456  17.412  0.00  0.00    +0.000 C 
ATOM     14  O   UNL     1      -1.683  11.189  18.583  0.00  0.00    +0.000 OA
ENDBRANCH   7  14
BRANCH  12  15
ATOM     15  O   UNL     1       0.116  13.403  18.843  0.00  0.00    +0.000 OA
BRANCH  15  16
ATOM     16  C   UNL     1      -0.486  13.576  20.133  0.00  0.00    +0.000 C 
BRANCH  16  17
ATOM     17  C   UNL     1       0.402  13.067  21.283  0.00  0.00    +0.000 C 
BRANCH  17  18
ATOM     18  N   UNL     1      -0.376  12.227  22.223  0.00  0.00    +0.000 NA
ATOM     19  C   UNL     1      -1.818  12.428  22.087  0.00  0.00    +0.000 C 
ATOM     20  C   UNL     1      -0.048  10.811  22.081  0.00  0.00    +0.000 C 
ENDBRANCH  17  18
ENDBRANCH  16  17
ENDBRANCH  15  16
ENDBRANCH  12  15
ENDBRANCH   1   9
BRANCH   3  21
ATOM     21  C   UNL     1       2.133   4.658  18.544  0.00  0.00    +0.000 A 
ATOM     22  C   UNL     1       2.410   3.648  17.611  0.00  0.00    +0.000 A 
ATOM     23  C   UNL     1       2.159   2.307  17.918  0.00  0.00    +0.000 A 
ATOM     24  C   UNL     1       1.632   1.958  19.162  0.00  0.00    +0.000 A 
ATOM     25  C   UNL     1       1.332   2.955  20.088  0.00  0.00    +0.000 A 
ATOM     26  C   UNL     1       1.566   4.299  19.773  0.00  0.00    +0.000 A 
ENDBRANCH   3  21
BRANCH   4  27
ATOM     27  C   UNL     1       4.916   5.961  17.295  0.00  0.00    +0.000 A 
ATOM     28  C   UNL     1       5.245   5.839  15.939  0.00  0.00    +0.000 A 
ATOM     29  C   UNL     1       6.438   5.234  15.544  0.00  0.00    +0.000 A 
ATOM     30  C   UNL     1       7.342   4.785  16.505  0.00  0.00    +0.000 A 
ATOM     31  C   UNL     1       7.044   4.926  17.856  0.00  0.00    +0.000 A 
ATOM     32  C   UNL     1       5.836   5.505  18.250  0.00  0.00    +0.000 A 
ENDBRANCH   4  27
TORSDOF 8
ENDMDL
MODEL 6
REMARK VINA RESULT:      -7.5      2.296      4.602
REMARK  Name = 
REMARK  11 active torsions:
REMARK  status: ('A' for Active; 'I' for Inactive)
REMARK    1  A    between atoms: C_1  and  O_2
REMARK    2  A    between atoms: O_2  and  C_3
REMARK    3  A    between atoms: C_5  and  C_6
REMARK    4  A    between atoms: C_8  and  C_9
REMARK    5  A    between atoms: C_15  and  C_16
REMARK    6  A    between atoms: C_25  and  O_26
REMARK    7  A    between atoms: O_26  and  C_27
REMARK    8  A    between atoms: C_27  and  C_28
REMARK    9  A    between atoms: C_28  and  N_29
REMARK   10  A    between atoms: N_29  and  C_30
REMARK   11  A    between atoms: N_29  and  C_31
REMARK                            x       y       z     vdW  Elec       q    Type
REMARK                         _______ _______ _______ _____ _____    ______ ____
ROOT
ATOM      1  C   UNL     1       2.195   8.448  18.283  0.00  0.00    +0.000 A 
ATOM      2  N   UNL     1       1.634   7.414  18.880  0.00  0.00    +0.000 NA
ATOM      3  C   UNL     1       2.468   6.334  18.660  0.00  0.00    +0.000 A 
ATOM      4  C   UNL     1       3.557   6.708  17.882  0.00  0.00    +0.000 A 
ATOM      5  N   UNL     1       3.349   8.050  17.660  0.00  0.00    +0.000 N 
ATOM      6  H   UNL     1       3.967   8.659  17.150  0.00  0.00    +0.000 HD
ENDROOT
BRANCH   1   9
ATOM      7  C   UNL     1      -0.020  11.418  18.935  0.00  0.00    +0.000 A 
ATOM      8  C   UNL     1       0.460  10.109  18.823  0.00  0.00    +0.000 A 
ATOM      9  C   UNL     1       1.743   9.838  18.329  0.00  0.00    +0.000 A 
ATOM     10  C   UNL     1       2.551  10.908  17.927  0.00  0.00    +0.000 A 
ATOM     11  C   UNL     1       2.098  12.225  18.062  0.00  0.00    +0.000 A 
ATOM     12  C   UNL     1       0.832  12.491  18.597  0.00  0.00    +0.000 A 
BRANCH   7  14
ATOM     13  C   UNL     1      -2.362  11.753  18.423  0.00  0.00    +0.000 C 
ATOM     14  O   UNL     1      -1.285  11.717  19.349  0.00  0.00    +0.000 OA
ENDBRANCH   7  14
BRANCH  12  15
ATOM     15  O   UNL     1       0.534  13.838  18.717  0.00  0.00    +0.000 OA
BRANCH  15  16
ATOM     16  C   UNL     1       1.010  14.408  19.944  0.00  0.00    +0.000 C 
BRANCH  16  17
ATOM     17  C   UNL     1       2.096  15.478  19.726  0.00  0.00    +0.000 C 
BRANCH  17  18
ATOM     18  N   UNL     1       2.014  16.049  18.361  0.00  0.00    +0.000 NA
ATOM     19  C   UNL     1       1.404  17.378  18.350  0.00  0.00    +0.000 C 
ATOM     20  C   UNL     1       3.321  16.088  17.712  0.00  0.00    +0.000 C 
ENDBRANCH  17  18
ENDBRANCH  16  17
ENDBRANCH  15  16
ENDBRANCH  12  15
ENDBRANCH   1   9
BRANCH   3  21
ATOM     21  C   UNL     1       2.176   5.019  19.216  0.00  0.00    +0.000 A 
ATOM     22  C   UNL     1       2.513   4.741  20.548  0.00  0.00    +0.000 A 
ATOM     23  C   UNL     1       2.202   3.504  21.119  0.00  0.00    +0.000 A 
ATOM     24  C   UNL     1       1.545   2.529  20.366  0.00  0.00    +0.000 A 
ATOM     25  C   UNL     1       1.224   2.786  19.035  0.00  0.00    +0.000 A 
ATOM     26  C   UNL     1       1.554   4.018  18.458  0.00  0.00    +0.000 A 
ENDBRANCH   3  21
BRANCH   4  27
ATOM     27  C   UNL     1       4.716   6.009  17.325  0.00  0.00    +0.000 A 
ATOM     28  C   UNL     1       4.556   4.842  16.567  0.00  0.00    +0.000 A 
ATOM     29  C   UNL     1       5.663   4.147  16.080  0.00  0.00    +0.000 A 
ATOM     30  C   UNL     1       6.947   4.640  16.305  0.00  0.00    +0.000 A 
ATOM     31  C   UNL     1       7.122   5.815  17.029  0.00  0.00    +0.000 A 
ATOM     32  C   UNL     1       6.014   6.492  17.542  0.00  0.00    +0.000 A 
ENDBRANCH   4  27
TORSDOF 8
ENDMDL
MODEL 7
REMARK VINA RESULT:      -7.5      2.763      8.984
REMARK  Name = 
REMARK  11 active torsions:
REMARK  status: ('A' for Active; 'I' for Inactive)
REMARK    1  A    between atoms: C_1  and  O_2
REMARK    2  A    between atoms: O_2  and  C_3
REMARK    3  A    between atoms: C_5  and  C_6
REMARK    4  A    between atoms: C_8  and  C_9
REMARK    5  A    between atoms: C_15  and  C_16
REMARK    6  A    between atoms: C_25  and  O_26
REMARK    7  A    between atoms: O_26  and  C_27
REMARK    8  A    between atoms: C_27  and  C_28
REMARK    9  A    between atoms: C_28  and  N_29
REMARK   10  A    between atoms: N_29  and  C_30
REMARK   11  A    between atoms: N_29  and  C_31
REMARK                            x       y       z     vdW  Elec       q    Type
REMARK                         _______ _______ _______ _____ _____    ______ ____
ROOT
ATOM      1  C   UNL     1       1.120   9.545  18.512  0.00  0.00    +0.000 A 
ATOM      2  N   UNL     1       1.297  10.718  19.090  0.00  0.00    +0.000 NA
ATOM      3  C   UNL     1       0.121  11.422  18.914  0.00  0.00    +0.000 A 
ATOM      4  C   UNL     1      -0.794  10.673  18.185  0.00  0.00    +0.000 A 
ATOM      5  N   UNL     1      -0.126   9.493  17.945  0.00  0.00    +0.000 N 
ATOM      6  H   UNL     1      -0.506   8.697  17.460  0.00  0.00    +0.000 HD
ENDROOT
BRANCH   1   9
ATOM      7  C   UNL     1       2.725   6.317  19.590  0.00  0.00    +0.000 A 
ATOM      8  C   UNL     1       1.904   7.448  19.538  0.00  0.00    +0.000 A 
ATOM      9  C   UNL     1       2.044   8.411  18.529  0.00  0.00    +0.000 A 
ATOM     10  C   UNL     1       3.042   8.235  17.564  0.00  0.00    +0.000 A 
ATOM     11  C   UNL     1       3.850   7.094  17.582  0.00  0.00    +0.000 A 
ATOM     12  C   UNL     1       3.676   6.115  18.567  0.00  0.00    +0.000 A 
BRANCH   7  14
ATOM     13  C   UNL     1       1.556   4.509  20.694  0.00  0.00    +0.000 C 
ATOM     14  O   UNL     1       2.662   5.393  20.591  0.00  0.00    +0.000 OA
ENDBRANCH   7  14
BRANCH  12  15
ATOM     15  O   UNL     1       4.512   5.018  18.436  0.00  0.00    +0.000 OA
BRANCH  15  16
ATOM     16  C   UNL     1       5.854   5.284  18.866  0.00  0.00    +0.000 C 
BRANCH  16  17
ATOM     17  C   UNL     1       6.912   4.569  18.007  0.00  0.00    +0.000 C 
BRANCH  17  18
ATOM     18  N   UNL     1       7.452   5.475  16.967  0.00  0.00    +0.000 NA
ATOM     19  C   UNL     1       6.748   5.341  15.692  0.00  0.00    +0.000 C 
ATOM     20  C   UNL     1       7.443   6.867  17.405  0.00  0.00    +0.000 C 
ENDBRANCH  17  18
ENDBRANCH  16  17
ENDBRANCH  15  16
ENDBRANCH  12  15
ENDBRANCH   1   9
BRANCH   3  21
ATOM     21  C   UNL     1      -0.056  12.760  19.464  0.00  0.00    +0.000 A 
ATOM     22  C   UNL     1      -0.132  12.932  20.854  0.00  0.00    +0.000 A 
ATOM     23  C   UNL     1      -0.255  14.209  21.408  0.00  0.00    +0.000 A 
ATOM     24  C   UNL     1      -0.298  15.332  20.581  0.00  0.00    +0.000 A 
ATOM     25  C   UNL     1      -0.245  15.172  19.198  0.00  0.00    +0.000 A 
ATOM     26  C   UNL     1      -0.142  13.891  18.643  0.00  0.00    +0.000 A 
ENDBRANCH   3  21
BRANCH   4  27
ATOM     27  C   UNL     1      -2.150  10.902  17.686  0.00  0.00    +0.000 A 
ATOM     28  C   UNL     1      -2.507  10.540  16.381  0.00  0.00    +0.000 A 
ATOM     29  C   UNL     1      -3.785  10.805  15.888  0.00  0.00    +0.000 A 
ATOM     30  C   UNL     1      -4.740  11.395  16.715  0.00  0.00    +0.000 A 
ATOM     31  C   UNL     1      -4.412  11.732  18.023  0.00  0.00    +0.000 A 
ATOM     32  C   UNL     1      -3.123  11.493  18.505  0.00  0.00    +0.000 A 
ENDBRANCH   4  27
TORSDOF 8
ENDMDL
MODEL 8
REMARK VINA RESULT:      -7.5      2.824      9.047
REMARK  Name = 
REMARK  11 active torsions:
REMARK  status: ('A' for Active; 'I' for Inactive)
REMARK    1  A    between atoms: C_1  and  O_2
REMARK    2  A    between atoms: O_2  and  C_3
REMARK    3  A    between atoms: C_5  and  C_6
REMARK    4  A    between atoms: C_8  and  C_9
REMARK    5  A    between atoms: C_15  and  C_16
REMARK    6  A    between atoms: C_25  and  O_26
REMARK    7  A    between atoms: O_26  and  C_27
REMARK    8  A    between atoms: C_27  and  C_28
REMARK    9  A    between atoms: C_28  and  N_29
REMARK   10  A    between atoms: N_29  and  C_30
REMARK   11  A    between atoms: N_29  and  C_31
REMARK                            x       y       z     vdW  Elec       q    Type
REMARK                         _______ _______ _______ _____ _____    ______ ____
ROOT
ATOM      1  C   UNL     1       1.183   9.141  18.911  0.00  0.00    +0.000 A 
ATOM      2  N   UNL     1       1.151   9.986  19.924  0.00  0.00    +0.000 NA
ATOM      3  C   UNL     1      -0.019  10.708  19.796  0.00  0.00    +0.000 A 
ATOM      4  C   UNL     1      -0.714  10.317  18.658  0.00  0.00    +0.000 A 
ATOM      5  N   UNL     1       0.078   9.326  18.122  0.00  0.00    +0.000 N 
ATOM      6  H   UNL     1      -0.137   8.791  17.297  0.00  0.00    +0.000 HD
ENDROOT
BRANCH   1   9
ATOM      7  C   UNL     1       3.126   5.956  19.389  0.00  0.00    +0.000 A 
ATOM      8  C   UNL     1       2.234   7.016  19.576  0.00  0.00    +0.000 A 
ATOM      9  C   UNL     1       2.172   8.089  18.677  0.00  0.00    +0.000 A 
ATOM     10  C   UNL     1       3.037   8.098  17.577  0.00  0.00    +0.000 A 
ATOM     11  C   UNL     1       3.913   7.029  17.358  0.00  0.00    +0.000 A 
ATOM     12  C   UNL     1       3.939   5.940  18.235  0.00  0.00    +0.000 A 
BRANCH   7  14
ATOM     13  C   UNL     1       2.156   4.488  21.051  0.00  0.00    +0.000 C 
ATOM     14  O   UNL     1       3.261   4.927  20.276  0.00  0.00    +0.000 OA
ENDBRANCH   7  14
BRANCH  12  15
ATOM     15  O   UNL     1       4.818   4.934  17.871  0.00  0.00    +0.000 OA
BRANCH  15  16
ATOM     16  C   UNL     1       5.728   5.334  16.837  0.00  0.00    +0.000 C 
BRANCH  16  17
ATOM     17  C   UNL     1       7.183   4.920  17.124  0.00  0.00    +0.000 C 
BRANCH  17  18
ATOM     18  N   UNL     1       7.893   5.973  17.887  0.00  0.00    +0.000 NA
ATOM     19  C   UNL     1       7.475   7.320  17.499  0.00  0.00    +0.000 C 
ATOM     20  C   UNL     1       7.741   5.792  19.327  0.00  0.00    +0.000 C 
ENDBRANCH  17  18
ENDBRANCH  16  17
ENDBRANCH  15  16
ENDBRANCH  12  15
ENDBRANCH   1   9
BRANCH   3  21
ATOM     21  C   UNL     1      -0.404  11.718  20.774  0.00  0.00    +0.000 A 
ATOM     22  C   UNL     1      -0.948  11.317  22.003  0.00  0.00    +0.000 A 
ATOM     23  C   UNL     1      -1.281  12.263  22.977  0.00  0.00    +0.000 A 
ATOM     24  C   UNL     1      -1.070  13.621  22.737  0.00  0.00    +0.000 A 
ATOM     25  C   UNL     1      -0.550  14.033  21.512  0.00  0.00    +0.000 A 
ATOM     26  C   UNL     1      -0.235  13.086  20.530  0.00  0.00    +0.000 A 
ENDBRANCH   3  21
BRANCH   4  27
ATOM     27  C   UNL     1      -1.962  10.733  18.017  0.00  0.00    +0.000 A 
ATOM     28  C   UNL     1      -2.208  10.444  16.669  0.00  0.00    +0.000 A 
ATOM     29  C   UNL     1      -3.375  10.885  16.044  0.00  0.00    +0.000 A 
ATOM     30  C   UNL     1      -4.335  11.582  16.776  0.00  0.00    +0.000 A 
ATOM     31  C   UNL     1      -4.120  11.851  18.124  0.00  0.00    +0.000 A 
ATOM     32  C   UNL     1      -2.938  11.434  18.739  0.00  0.00    +0.000 A 
ENDBRANCH   4  27
TORSDOF 8
ENDMDL
MODEL 9
REMARK VINA RESULT:      -7.5      1.886      4.334
REMARK  Name = 
REMARK  11 active torsions:
REMARK  status: ('A' for Active; 'I' for Inactive)
REMARK    1  A    between atoms: C_1  and  O_2
REMARK    2  A    between atoms: O_2  and  C_3
REMARK    3  A    between atoms: C_5  and  C_6
REMARK    4  A    between atoms: C_8  and  C_9
REMARK    5  A    between atoms: C_15  and  C_16
REMARK    6  A    between atoms: C_25  and  O_26
REMARK    7  A    between atoms: O_26  and  C_27
REMARK    8  A    between atoms: C_27  and  C_28
REMARK    9  A    between atoms: C_28  and  N_29
REMARK   10  A    between atoms: N_29  and  C_30
REMARK   11  A    between atoms: N_29  and  C_31
REMARK                            x       y       z     vdW  Elec       q    Type
REMARK                         _______ _______ _______ _____ _____    ______ ____
ROOT
ATOM      1  C   UNL     1       2.061   8.508  18.329  0.00  0.00    +0.000 A 
ATOM      2  N   UNL     1       1.507   7.455  18.899  0.00  0.00    +0.000 NA
ATOM      3  C   UNL     1       2.386   6.405  18.722  0.00  0.00    +0.000 A 
ATOM      4  C   UNL     1       3.499   6.815  17.998  0.00  0.00    +0.000 A 
ATOM      5  N   UNL     1       3.257   8.150  17.764  0.00  0.00    +0.000 N 
ATOM      6  H   UNL     1       3.879   8.779  17.285  0.00  0.00    +0.000 HD
ENDROOT
BRANCH   1   9
ATOM      7  C   UNL     1      -0.352  11.379  18.617  0.00  0.00    +0.000 A 
ATOM      8  C   UNL     1       0.188  10.091  18.544  0.00  0.00    +0.000 A 
ATOM      9  C   UNL     1       1.560   9.882  18.351  0.00  0.00    +0.000 A 
ATOM     10  C   UNL     1       2.400  10.994  18.215  0.00  0.00    +0.000 A 
ATOM     11  C   UNL     1       1.880  12.288  18.319  0.00  0.00    +0.000 A 
ATOM     12  C   UNL     1       0.516  12.491  18.555  0.00  0.00    +0.000 A 
BRANCH   7  14
ATOM     13  C   UNL     1      -2.566  11.417  17.642  0.00  0.00    +0.000 C 
ATOM     14  O   UNL     1      -1.689  11.624  18.739  0.00  0.00    +0.000 OA
ENDBRANCH   7  14
BRANCH  12  15
ATOM     15  O   UNL     1       0.149  13.820  18.682  0.00  0.00    +0.000 OA
BRANCH  15  16
ATOM     16  C   UNL     1       0.409  14.349  19.989  0.00  0.00    +0.000 C 
BRANCH  16  17
ATOM     17  C   UNL     1      -0.799  14.231  20.936  0.00  0.00    +0.000 C 
BRANCH  17  18
ATOM     18  N   UNL     1      -0.405  13.623  22.228  0.00  0.00    +0.000 NA
ATOM     19  C   UNL     1      -1.083  14.243  23.365  0.00  0.00    +0.000 C 
ATOM     20  C   UNL     1      -0.626  12.179  22.235  0.00  0.00    +0.000 C 
ENDBRANCH  17  18
ENDBRANCH  16  17
ENDBRANCH  15  16
ENDBRANCH  12  15
ENDBRANCH   1   9
BRANCH   3  21
ATOM     21  C   UNL     1       2.112   5.080  19.264  0.00  0.00    +0.000 A 
ATOM     22  C   UNL     1       2.182   4.872  20.649  0.00  0.00    +0.000 A 
ATOM     23  C   UNL     1       1.878   3.623  21.198  0.00  0.00    +0.000 A 
ATOM     24  C   UNL     1       1.495   2.567  20.371  0.00  0.00    +0.000 A 
ATOM     25  C   UNL     1       1.443   2.755  18.991  0.00  0.00    +0.000 A 
ATOM     26  C   UNL     1       1.766   4.001  18.440  0.00  0.00    +0.000 A 
ENDBRANCH   3  21
BRANCH   4  27
ATOM     27  C   UNL     1       4.707   6.156  17.500  0.00  0.00    +0.000 A 
ATOM     28  C   UNL     1       5.622   5.569  18.383  0.00  0.00    +0.000 A 
ATOM     29  C   UNL     1       6.799   4.987  17.911  0.00  0.00    +0.000 A 
ATOM     30  C   UNL     1       7.052   4.941  16.541  0.00  0.00    +0.000 A 
ATOM     31  C   UNL     1       6.138   5.492  15.648  0.00  0.00    +0.000 A 
ATOM     32  C   UNL     1       4.975   6.101  16.125  0.00  0.00    +0.000 A 
ENDBRANCH   4  27
TORSDOF 8
ENDMDL
