MODEL 1
REMARK VINA RESULT:      -6.6      0.000      0.000
REMARK  Name = 
REMARK  1 active torsions:
REMARK  status: ('A' for Active; 'I' for Inactive)
REMARK    1  A    between atoms: N_1  and  C_2
REMARK                            x       y       z     vdW  Elec       q    Type
REMARK                         _______ _______ _______ _____ _____    ______ ____
ROOT
ATOM      1  C   UNL     1       2.529   2.542  18.953  0.00  0.00    +0.000 A 
ATOM      2  N   UNL     1       1.650   2.263  19.934  0.00  0.00    +0.000 NA
ATOM      3  C   UNL     1       1.105   3.283  20.615  0.00  0.00    +0.000 A 
ATOM      4  N   UNL     1       1.334   4.586  20.455  0.00  0.00    +0.000 NA
ATOM      5  C   UNL     1       2.224   4.830  19.479  0.00  0.00    +0.000 A 
ATOM      6  S   UNL     1       2.671   6.430  19.099  0.00  0.00    +0.000 S 
ATOM      7  C   UNL     1       3.741   5.906  17.890  0.00  0.00    +0.000 A 
ATOM      8  C   UNL     1       3.755   4.530  17.746  0.00  0.00    +0.000 A 
ATOM      9  C   UNL     1       2.866   3.885  18.688  0.00  0.00    +0.000 A 
ATOM     10  C   UNL     1       4.641   3.859  16.737  0.00  0.00    +0.000 C 
ATOM     11  C   UNL     1       5.184   4.846  15.693  0.00  0.00    +0.000 C 
ATOM     12  C   UNL     1       5.680   6.142  16.348  0.00  0.00    +0.000 C 
ATOM     13  C   UNL     1       4.537   6.873  17.065  0.00  0.00    +0.000 C 
ENDROOT
BRANCH   1  14
ATOM     14  N   UNL     1       3.050   1.450  18.274  0.00  0.00    +0.000 N 
ATOM     15  H   UNL     1       3.570   1.754  17.459  0.00  0.00    +0.000 HD
ATOM     16  H   UNL     1       2.416   0.679  18.131  0.00  0.00    +0.000 HD
ENDBRANCH   1  14
TORSDOF 1
ENDMDL
MODEL 2
REMARK VINA RESULT:      -6.4      1.434      2.718
REMARK  Name = 
REMARK  1 active torsions:
REMARK  status: ('A' for Active; 'I' for Inactive)
REMARK    1  A    between atoms: N_1  and  C_2
REMARK                            x       y       z     vdW  Elec       q    Type
REMARK                         _______ _______ _______ _____ _____    ______ ____
ROOT
ATOM      1  C   UNL     1       2.220   5.555  19.943  0.00  0.00    +0.000 A 
ATOM      2  N   UNL     1       1.405   4.900  20.791  0.00  0.00    +0.000 NA
ATOM      3  C   UNL     1       1.309   3.566  20.685  0.00  0.00    +0.000 A 
ATOM      4  N   UNL     1       1.925   2.770  19.812  0.00  0.00    +0.000 NA
ATOM      5  C   UNL     1       2.720   3.454  18.973  0.00  0.00    +0.000 A 
ATOM      6  S   UNL     1       3.608   2.639  17.769  0.00  0.00    +0.000 S 
ATOM      7  C   UNL     1       4.271   4.092  17.192  0.00  0.00    +0.000 A 
ATOM      8  C   UNL     1       3.850   5.197  17.911  0.00  0.00    +0.000 A 
ATOM      9  C   UNL     1       2.926   4.829  18.962  0.00  0.00    +0.000 A 
ATOM     10  C   UNL     1       4.312   6.581  17.560  0.00  0.00    +0.000 C 
ATOM     11  C   UNL     1       5.532   6.567  16.627  0.00  0.00    +0.000 C 
ATOM     12  C   UNL     1       5.363   5.547  15.493  0.00  0.00    +0.000 C 
ATOM     13  C   UNL     1       5.237   4.120  16.046  0.00  0.00    +0.000 C 
ENDROOT
BRANCH   1  14
ATOM     14  N   UNL     1       2.292   6.931  20.108  0.00  0.00    +0.000 N 
ATOM     15  H   UNL     1       1.434   7.371  19.798  0.00  0.00    +0.000 HD
ATOM     16  H   UNL     1       3.148   7.366  19.800  0.00  0.00    +0.000 HD
ENDBRANCH   1  14
TORSDOF 1
ENDMDL
MODEL 3
REMARK VINA RESULT:      -6.3      1.217      1.217
REMARK  Name = 
REMARK  1 active torsions:
REMARK  status: ('A' for Active; 'I' for Inactive)
REMARK    1  A    between atoms: N_1  and  C_2
REMARK                            x       y       z     vdW  Elec       q    Type
REMARK                         _______ _______ _______ _____ _____    ______ ____
ROOT
ATOM      1  C   UNL     1       3.883   2.807  20.068  0.00  0.00    +0.000 A 
ATOM      2  N   UNL     1       3.151   2.443  21.138  0.00  0.00    +0.000 NA
ATOM      3  C   UNL     1       2.253   3.313  21.625  0.00  0.00    +0.000 A 
ATOM      4  N   UNL     1       1.984   4.542  21.185  0.00  0.00    +0.000 NA
ATOM      5  C   UNL     1       2.740   4.879  20.127  0.00  0.00    +0.000 A 
ATOM      6  S   UNL     1       2.568   6.409  19.397  0.00  0.00    +0.000 S 
ATOM      7  C   UNL     1       3.780   6.067  18.259  0.00  0.00    +0.000 A 
ATOM      8  C   UNL     1       4.307   4.796  18.402  0.00  0.00    +0.000 A 
ATOM      9  C   UNL     1       3.703   4.089  19.510  0.00  0.00    +0.000 A 
ATOM     10  C   UNL     1       5.399   4.297  17.501  0.00  0.00    +0.000 C 
ATOM     11  C   UNL     1       5.557   5.164  16.244  0.00  0.00    +0.000 C 
ATOM     12  C   UNL     1       5.523   6.660  16.584  0.00  0.00    +0.000 C 
ATOM     13  C   UNL     1       4.176   7.057  17.204  0.00  0.00    +0.000 C 
ENDROOT
BRANCH   1  14
ATOM     14  N   UNL     1       4.785   1.864  19.599  0.00  0.00    +0.000 N 
ATOM     15  H   UNL     1       4.299   1.108  19.131  0.00  0.00    +0.000 HD
ATOM     16  H   UNL     1       5.510   1.590  20.244  0.00  0.00    +0.000 HD
ENDBRANCH   1  14
TORSDOF 1
ENDMDL
MODEL 4
REMARK VINA RESULT:      -6.2      2.419      4.431
REMARK  Name = 
REMARK  1 active torsions:
REMARK  status: ('A' for Active; 'I' for Inactive)
REMARK    1  A    between atoms: N_1  and  C_2
REMARK                            x       y       z     vdW  Elec       q    Type
REMARK                         _______ _______ _______ _____ _____    ______ ____
ROOT
ATOM      1  C   UNL     1       5.297   4.482  16.557  0.00  0.00    +0.000 A 
ATOM      2  N   UNL     1       6.032   5.530  16.140  0.00  0.00    +0.000 NA
ATOM      3  C   UNL     1       5.696   6.757  16.564  0.00  0.00    +0.000 A 
ATOM      4  N   UNL     1       4.685   7.097  17.364  0.00  0.00    +0.000 NA
ATOM      5  C   UNL     1       3.964   6.031  17.752  0.00  0.00    +0.000 A 
ATOM      6  S   UNL     1       2.619   6.228  18.778  0.00  0.00    +0.000 S 
ATOM      7  C   UNL     1       2.294   4.562  18.768  0.00  0.00    +0.000 A 
ATOM      8  C   UNL     1       3.203   3.843  18.013  0.00  0.00    +0.000 A 
ATOM      9  C   UNL     1       4.190   4.706  17.402  0.00  0.00    +0.000 A 
ATOM     10  C   UNL     1       3.091   2.353  17.864  0.00  0.00    +0.000 C 
ATOM     11  C   UNL     1       2.148   1.735  18.906  0.00  0.00    +0.000 C 
ATOM     12  C   UNL     1       0.856   2.550  19.051  0.00  0.00    +0.000 C 
ATOM     13  C   UNL     1       1.152   3.974  19.541  0.00  0.00    +0.000 C 
ENDROOT
BRANCH   1  14
ATOM     14  N   UNL     1       5.699   3.236  16.099  0.00  0.00    +0.000 N 
ATOM     15  H   UNL     1       5.441   3.114  15.127  0.00  0.00    +0.000 HD
ATOM     16  H   UNL     1       5.500   2.459  16.711  0.00  0.00    +0.000 HD
ENDBRANCH   1  14
TORSDOF 1
ENDMDL
MODEL 5
REMARK VINA RESULT:      -6.1      2.220      4.420
REMARK  Name = 
REMARK  1 active torsions:
REMARK  status: ('A' for Active; 'I' for Inactive)
REMARK    1  A    between atoms: N_1  and  C_2
REMARK                            x       y       z     vdW  Elec       q    Type
REMARK                         _______ _______ _______ _____ _____    ______ ____
ROOT
ATOM      1  C   UNL     1       4.853   4.425  16.865  0.00  0.00    +0.000 A 
ATOM      2  N   UNL     1       5.454   5.297  16.035  0.00  0.00    +0.000 NA
ATOM      3  C   UNL     1       5.162   6.601  16.157  0.00  0.00    +0.000 A 
ATOM      4  N   UNL     1       4.315   7.173  17.013  0.00  0.00    +0.000 NA
ATOM      5  C   UNL     1       3.724   6.274  17.818  0.00  0.00    +0.000 A 
ATOM      6  S   UNL     1       2.598   6.779  18.993  0.00  0.00    +0.000 S 
ATOM      7  C   UNL     1       2.338   5.184  19.514  0.00  0.00    +0.000 A 
ATOM      8  C   UNL     1       3.108   4.263  18.825  0.00  0.00    +0.000 A 
ATOM      9  C   UNL     1       3.925   4.899  17.815  0.00  0.00    +0.000 A 
ATOM     10  C   UNL     1       3.023   2.795  19.124  0.00  0.00    +0.000 C 
ATOM     11  C   UNL     1       2.325   2.513  20.462  0.00  0.00    +0.000 C 
ATOM     12  C   UNL     1       1.057   3.362  20.626  0.00  0.00    +0.000 C 
ATOM     13  C   UNL     1       1.391   4.861  20.630  0.00  0.00    +0.000 C 
ENDROOT
BRANCH   1  14
ATOM     14  N   UNL     1       5.202   3.092  16.704  0.00  0.00    +0.000 N 
ATOM     15  H   UNL     1       5.991   3.005  16.073  0.00  0.00    +0.000 HD
ATOM     16  H   UNL     1       4.438   2.453  16.546  0.00  0.00    +0.000 HD
ENDBRANCH   1  14
TORSDOF 1
ENDMDL
MODEL 6
REMARK VINA RESULT:      -6.1      2.543      5.090
REMARK  Name = 
REMARK  1 active torsions:
REMARK  status: ('A' for Active; 'I' for Inactive)
REMARK    1  A    between atoms: N_1  and  C_2
REMARK                            x       y       z     vdW  Elec       q    Type
REMARK                         _______ _______ _______ _____ _____    ______ ____
ROOT
ATOM      1  C   UNL     1       4.099   6.156  17.312  0.00  0.00    +0.000 A 
ATOM      2  N   UNL     1       4.986   6.232  16.302  0.00  0.00    +0.000 NA
ATOM      3  C   UNL     1       5.445   5.091  15.767  0.00  0.00    +0.000 A 
ATOM      4  N   UNL     1       5.141   3.842  16.120  0.00  0.00    +0.000 NA
ATOM      5  C   UNL     1       4.266   3.801  17.138  0.00  0.00    +0.000 A 
ATOM      6  S   UNL     1       3.734   2.306  17.759  0.00  0.00    +0.000 S 
ATOM      7  C   UNL     1       2.757   3.068  18.919  0.00  0.00    +0.000 A 
ATOM      8  C   UNL     1       2.804   4.449  18.836  0.00  0.00    +0.000 A 
ATOM      9  C   UNL     1       3.700   4.890  17.790  0.00  0.00    +0.000 A 
ATOM     10  C   UNL     1       2.019   5.316  19.777  0.00  0.00    +0.000 C 
ATOM     11  C   UNL     1       0.931   4.529  20.521  0.00  0.00    +0.000 C 
ATOM     12  C   UNL     1       1.462   3.187  21.042  0.00  0.00    +0.000 C 
ATOM     13  C   UNL     1       1.920   2.286  19.885  0.00  0.00    +0.000 C 
ENDROOT
BRANCH   1  14
ATOM     14  N   UNL     1       3.648   7.367  17.818  0.00  0.00    +0.000 N 
ATOM     15  H   UNL     1       2.822   7.228  18.389  0.00  0.00    +0.000 HD
ATOM     16  H   UNL     1       3.606   8.129  17.159  0.00  0.00    +0.000 HD
ENDBRANCH   1  14
TORSDOF 1
ENDMDL
MODEL 7
REMARK VINA RESULT:      -5.9      1.071      1.071
REMARK  Name = 
REMARK  1 active torsions:
REMARK  status: ('A' for Active; 'I' for Inactive)
REMARK    1  A    between atoms: N_1  and  C_2
REMARK                            x       y       z     vdW  Elec       q    Type
REMARK                         _______ _______ _______ _____ _____    ______ ____
ROOT
ATOM      1  C   UNL     1       3.631   2.865  19.413  0.00  0.00    +0.000 A 
ATOM      2  N   UNL     1       2.930   2.810  20.561  0.00  0.00    +0.000 NA
ATOM      3  C   UNL     1       2.350   3.933  21.010  0.00  0.00    +0.000 A 
ATOM      4  N   UNL     1       2.384   5.147  20.461  0.00  0.00    +0.000 NA
ATOM      5  C   UNL     1       3.100   5.170  19.325  0.00  0.00    +0.000 A 
ATOM      6  S   UNL     1       3.282   6.620  18.449  0.00  0.00    +0.000 S 
ATOM      7  C   UNL     1       4.246   5.860  17.277  0.00  0.00    +0.000 A 
ATOM      8  C   UNL     1       4.421   4.509  17.520  0.00  0.00    +0.000 A 
ATOM      9  C   UNL     1       3.753   4.095  18.734  0.00  0.00    +0.000 A 
ATOM     10  C   UNL     1       5.249   3.652  16.608  0.00  0.00    +0.000 C 
ATOM     11  C   UNL     1       5.519   4.332  15.258  0.00  0.00    +0.000 C 
ATOM     12  C   UNL     1       5.922   5.801  15.438  0.00  0.00    +0.000 C 
ATOM     13  C   UNL     1       4.796   6.608  16.099  0.00  0.00    +0.000 C 
ENDROOT
BRANCH   1  14
ATOM     14  N   UNL     1       4.198   1.671  18.988  0.00  0.00    +0.000 N 
ATOM     15  H   UNL     1       3.644   0.883  19.302  0.00  0.00    +0.000 HD
ATOM     16  H   UNL     1       5.195   1.589  19.116  0.00  0.00    +0.000 HD
ENDBRANCH   1  14
TORSDOF 1
ENDMDL
MODEL 8
REMARK VINA RESULT:      -5.9      2.524      4.597
REMARK  Name = 
REMARK  1 active torsions:
REMARK  status: ('A' for Active; 'I' for Inactive)
REMARK    1  A    between atoms: N_1  and  C_2
REMARK                            x       y       z     vdW  Elec       q    Type
REMARK                         _______ _______ _______ _____ _____    ______ ____
ROOT
ATOM      1  C   UNL     1       5.658   4.946  18.132  0.00  0.00    +0.000 A 
ATOM      2  N   UNL     1       6.209   5.857  17.309  0.00  0.00    +0.000 NA
ATOM      3  C   UNL     1       5.491   6.943  16.984  0.00  0.00    +0.000 A 
ATOM      4  N   UNL     1       4.253   7.250  17.371  0.00  0.00    +0.000 NA
ATOM      5  C   UNL     1       3.728   6.316  18.181  0.00  0.00    +0.000 A 
ATOM      6  S   UNL     1       2.150   6.498  18.798  0.00  0.00    +0.000 S 
ATOM      7  C   UNL     1       2.242   5.021  19.630  0.00  0.00    +0.000 A 
ATOM      8  C   UNL     1       3.464   4.391  19.470  0.00  0.00    +0.000 A 
ATOM      9  C   UNL     1       4.345   5.146  18.608  0.00  0.00    +0.000 A 
ATOM     10  C   UNL     1       3.750   3.067  20.116  0.00  0.00    +0.000 C 
ATOM     11  C   UNL     1       2.737   2.726  21.219  0.00  0.00    +0.000 C 
ATOM     12  C   UNL     1       1.299   3.021  20.772  0.00  0.00    +0.000 C 
ATOM     13  C   UNL     1       1.108   4.514  20.468  0.00  0.00    +0.000 C 
ENDROOT
BRANCH   1  14
ATOM     14  N   UNL     1       6.450   3.851  18.445  0.00  0.00    +0.000 N 
ATOM     15  H   UNL     1       5.896   3.002  18.453  0.00  0.00    +0.000 HD
ATOM     16  H   UNL     1       7.082   3.974  19.222  0.00  0.00    +0.000 HD
ENDBRANCH   1  14
TORSDOF 1
ENDMDL
MODEL 9
REMARK VINA RESULT:      -5.9      2.821      4.554
REMARK  Name = 
REMARK  1 active torsions:
REMARK  status: ('A' for Active; 'I' for Inactive)
REMARK    1  A    between atoms: N_1  and  C_2
REMARK                            x       y       z     vdW  Elec       q    Type
REMARK                         _______ _______ _______ _____ _____    ______ ____
ROOT
ATOM      1  C   UNL     1       6.086   4.274  16.351  0.00  0.00    +0.000 A 
ATOM      2  N   UNL     1       7.111   5.123  16.149  0.00  0.00    +0.000 NA
ATOM      3  C   UNL     1       7.121   6.284  16.820  0.00  0.00    +0.000 A 
ATOM      4  N   UNL     1       6.213   6.737  17.684  0.00  0.00    +0.000 NA
ATOM      5  C   UNL     1       5.198   5.874  17.853  0.00  0.00    +0.000 A 
ATOM      6  S   UNL     1       3.917   6.245  18.913  0.00  0.00    +0.000 S 
ATOM      7  C   UNL     1       3.127   4.784  18.565  0.00  0.00    +0.000 A 
ATOM      8  C   UNL     1       3.827   3.996  17.668  0.00  0.00    +0.000 A 
ATOM      9  C   UNL     1       5.050   4.638  17.236  0.00  0.00    +0.000 A 
ATOM     10  C   UNL     1       3.298   2.666  17.218  0.00  0.00    +0.000 C 
ATOM     11  C   UNL     1       2.166   2.154  18.121  0.00  0.00    +0.000 C 
ATOM     12  C   UNL     1       1.158   3.265  18.444  0.00  0.00    +0.000 C 
ATOM     13  C   UNL     1       1.827   4.413  19.214  0.00  0.00    +0.000 C 
ENDROOT
BRANCH   1  14
ATOM     14  N   UNL     1       6.134   3.082  15.642  0.00  0.00    +0.000 N 
ATOM     15  H   UNL     1       5.403   2.453  15.954  0.00  0.00    +0.000 HD
ATOM     16  H   UNL     1       7.050   2.675  15.531  0.00  0.00    +0.000 HD
ENDBRANCH   1  14
TORSDOF 1
ENDMDL
