MODEL 1
REMARK VINA RESULT:      -9.1      0.000      0.000
REMARK  Name = 
REMARK  3 active torsions:
REMARK  status: ('A' for Active; 'I' for Inactive)
REMARK    1  A    between atoms: C_2  and  C_14
REMARK    2  A    between atoms: N_3  and  C_4
REMARK    3  A    between atoms: C_17  and  N_18
REMARK                            x       y       z     vdW  Elec       q    Type
REMARK                         _______ _______ _______ _____ _____    ______ ____
ROOT
ATOM      1  C   UNL     1       1.002   9.928  19.136  0.00  0.00    +0.000 A 
ATOM      2  C   UNL     1       0.951   9.342  20.400  0.00  0.00    +0.000 A 
ATOM      3  C   UNL     1       1.528   8.089  20.612  0.00  0.00    +0.000 A 
ATOM      4  C   UNL     1       2.183   7.390  19.586  0.00  0.00    +0.000 A 
ATOM      5  C   UNL     1       2.252   8.024  18.334  0.00  0.00    +0.000 A 
ATOM      6  C   UNL     1       1.660   9.271  18.098  0.00  0.00    +0.000 A 
ENDROOT
BRANCH   4   7
ATOM      7  N   UNL     1       2.728   6.144  19.813  0.00  0.00    +0.000 N 
ATOM      8  C   UNL     1       2.019   5.144  20.608  0.00  0.00    +0.000 C 
ATOM      9  C   UNL     1       2.701   3.817  20.324  0.00  0.00    +0.000 C 
ATOM     10  C   UNL     1       1.887   2.767  19.524  0.00  0.00    +0.000 C 
ATOM     11  C   UNL     1       1.333   3.375  18.255  0.00  0.00    +0.000 C 
ATOM     12  C   UNL     1       2.372   3.614  17.443  0.00  0.00    +0.000 C 
ATOM     13  C   UNL     1       3.622   3.176  18.176  0.00  0.00    +0.000 C 
ATOM     14  C   UNL     1       3.034   1.958  18.901  0.00  0.00    +0.000 C 
ATOM     15  C   UNL     1       3.899   4.115  19.381  0.00  0.00    +0.000 C 
ATOM     16  C   UNL     1       3.873   5.610  19.088  0.00  0.00    +0.000 C 
ENDBRANCH   4   7
BRANCH   1  18
ATOM     17  O   UNL     1      -0.584  11.355  18.232  0.00  0.00    +0.000 OA
ATOM     18  C   UNL     1       0.401  11.269  18.960  0.00  0.00    +0.000 C 
ATOM     19  N   UNL     1       1.053  12.308  19.589  0.00  0.00    +0.000 N 
ATOM     20  H   UNL     1       1.986  12.156  19.962  0.00  0.00    +0.000 HD
BRANCH  19  21
ATOM     21  C   UNL     1       0.685  13.676  19.524  0.00  0.00    +0.000 A 
ATOM     22  C   UNL     1      -0.539  14.138  20.024  0.00  0.00    +0.000 A 
ATOM     23  C   UNL     1      -0.909  15.467  19.868  0.00  0.00    +0.000 A 
ATOM     24  C   UNL     1      -0.055  16.345  19.214  0.00  0.00    +0.000 A 
ATOM     25  C   UNL     1       1.192  15.902  18.744  0.00  0.00    +0.000 A 
ATOM     26  C   UNL     1       2.061  16.778  18.084  0.00  0.00    +0.000 A 
ATOM     27  C   UNL     1       3.293  16.327  17.635  0.00  0.00    +0.000 A 
ATOM     28  C   UNL     1       3.619  15.004  17.862  0.00  0.00    +0.000 A 
ATOM     29  N   UNL     1       2.803  14.118  18.477  0.00  0.00    +0.000 NA
ATOM     30  C   UNL     1       1.594  14.557  18.914  0.00  0.00    +0.000 A 
ENDBRANCH  19  21
ENDBRANCH   1  18
TORSDOF 3
ENDMDL
MODEL 2
REMARK VINA RESULT:      -8.9      2.992      9.812
REMARK  Name = 
REMARK  3 active torsions:
REMARK  status: ('A' for Active; 'I' for Inactive)
REMARK    1  A    between atoms: C_2  and  C_14
REMARK    2  A    between atoms: N_3  and  C_4
REMARK    3  A    between atoms: C_17  and  N_18
REMARK                            x       y       z     vdW  Elec       q    Type
REMARK                         _______ _______ _______ _____ _____    ______ ____
ROOT
ATOM      1  C   UNL     1       1.384   9.109  19.530  0.00  0.00    +0.000 A 
ATOM      2  C   UNL     1       0.951  10.361  19.096  0.00  0.00    +0.000 A 
ATOM      3  C   UNL     1       0.313  11.226  19.986  0.00  0.00    +0.000 A 
ATOM      4  C   UNL     1       0.100  10.883  21.331  0.00  0.00    +0.000 A 
ATOM      5  C   UNL     1       0.585   9.631  21.747  0.00  0.00    +0.000 A 
ATOM      6  C   UNL     1       1.207   8.742  20.863  0.00  0.00    +0.000 A 
ENDROOT
BRANCH   4   7
ATOM      7  N   UNL     1      -0.551  11.744  22.188  0.00  0.00    +0.000 N 
ATOM      8  C   UNL     1      -0.349  13.189  22.102  0.00  0.00    +0.000 C 
ATOM      9  C   UNL     1      -1.480  13.821  22.896  0.00  0.00    +0.000 C 
ATOM     10  C   UNL     1      -2.548  14.607  22.091  0.00  0.00    +0.000 C 
ATOM     11  C   UNL     1      -3.086  13.767  20.955  0.00  0.00    +0.000 C 
ATOM     12  C   UNL     1      -3.807  12.778  21.500  0.00  0.00    +0.000 C 
ATOM     13  C   UNL     1      -3.740  12.951  23.002  0.00  0.00    +0.000 C 
ATOM     14  C   UNL     1      -3.744  14.485  23.045  0.00  0.00    +0.000 C 
ATOM     15  C   UNL     1      -2.305  12.659  23.516  0.00  0.00    +0.000 C 
ATOM     16  C   UNL     1      -1.671  11.359  23.038  0.00  0.00    +0.000 C 
ENDBRANCH   4   7
BRANCH   1  18
ATOM     17  O   UNL     1       2.149   8.622  17.397  0.00  0.00    +0.000 OA
ATOM     18  C   UNL     1       2.080   8.234  18.561  0.00  0.00    +0.000 C 
ATOM     19  N   UNL     1       2.531   7.028  19.053  0.00  0.00    +0.000 N 
ATOM     20  H   UNL     1       2.210   6.712  19.963  0.00  0.00    +0.000 HD
BRANCH  19  21
ATOM     21  C   UNL     1       3.182   6.018  18.300  0.00  0.00    +0.000 A 
ATOM     22  C   UNL     1       4.278   6.301  17.473  0.00  0.00    +0.000 A 
ATOM     23  C   UNL     1       4.839   5.308  16.681  0.00  0.00    +0.000 A 
ATOM     24  C   UNL     1       4.312   4.024  16.714  0.00  0.00    +0.000 A 
ATOM     25  C   UNL     1       3.240   3.719  17.568  0.00  0.00    +0.000 A 
ATOM     26  C   UNL     1       2.701   2.429  17.609  0.00  0.00    +0.000 A 
ATOM     27  C   UNL     1       1.648   2.142  18.466  0.00  0.00    +0.000 A 
ATOM     28  C   UNL     1       1.165   3.164  19.260  0.00  0.00    +0.000 A 
ATOM     29  N   UNL     1       1.642   4.430  19.239  0.00  0.00    +0.000 NA
ATOM     30  C   UNL     1       2.670   4.713  18.397  0.00  0.00    +0.000 A 
ENDBRANCH  19  21
ENDBRANCH   1  18
TORSDOF 3
ENDMDL
MODEL 3
REMARK VINA RESULT:      -8.8      0.569      1.082
REMARK  Name = 
REMARK  3 active torsions:
REMARK  status: ('A' for Active; 'I' for Inactive)
REMARK    1  A    between atoms: C_2  and  C_14
REMARK    2  A    between atoms: N_3  and  C_4
REMARK    3  A    between atoms: C_17  and  N_18
REMARK                            x       y       z     vdW  Elec       q    Type
REMARK                         _______ _______ _______ _____ _____    ______ ____
ROOT
ATOM      1  C   UNL     1       1.134   9.891  19.013  0.00  0.00    +0.000 A 
ATOM      2  C   UNL     1       1.777   9.435  17.863  0.00  0.00    +0.000 A 
ATOM      3  C   UNL     1       2.411   8.192  17.864  0.00  0.00    +0.000 A 
ATOM      4  C   UNL     1       2.414   7.361  18.996  0.00  0.00    +0.000 A 
ATOM      5  C   UNL     1       1.723   7.831  20.126  0.00  0.00    +0.000 A 
ATOM      6  C   UNL     1       1.101   9.086  20.149  0.00  0.00    +0.000 A 
ENDROOT
BRANCH   4   7
ATOM      7  N   UNL     1       3.064   6.146  18.982  0.00  0.00    +0.000 N 
ATOM      8  C   UNL     1       3.083   5.287  20.164  0.00  0.00    +0.000 C 
ATOM      9  C   UNL     1       3.524   3.915  19.682  0.00  0.00    +0.000 C 
ATOM     10  C   UNL     1       2.463   2.785  19.716  0.00  0.00    +0.000 C 
ATOM     11  C   UNL     1       1.194   3.223  19.019  0.00  0.00    +0.000 C 
ATOM     12  C   UNL     1       1.472   3.317  17.712  0.00  0.00    +0.000 C 
ATOM     13  C   UNL     1       2.931   2.954  17.537  0.00  0.00    +0.000 C 
ATOM     14  C   UNL     1       3.015   1.866  18.617  0.00  0.00    +0.000 C 
ATOM     15  C   UNL     1       3.839   4.045  18.166  0.00  0.00    +0.000 C 
ATOM     16  C   UNL     1       3.532   5.484  17.770  0.00  0.00    +0.000 C 
ENDBRANCH   4   7
BRANCH   1  18
ATOM     17  O   UNL     1      -0.659  11.241  18.436  0.00  0.00    +0.000 OA
ATOM     18  C   UNL     1       0.452  11.203  18.960  0.00  0.00    +0.000 C 
ATOM     19  N   UNL     1       1.166  12.274  19.453  0.00  0.00    +0.000 N 
ATOM     20  H   UNL     1       2.159  12.166  19.639  0.00  0.00    +0.000 HD
BRANCH  19  21
ATOM     21  C   UNL     1       0.732  13.624  19.463  0.00  0.00    +0.000 A 
ATOM     22  C   UNL     1      -0.491  14.004  20.033  0.00  0.00    +0.000 A 
ATOM     23  C   UNL     1      -0.929  15.319  19.950  0.00  0.00    +0.000 A 
ATOM     24  C   UNL     1      -0.145  16.265  19.302  0.00  0.00    +0.000 A 
ATOM     25  C   UNL     1       1.100  15.903  18.762  0.00  0.00    +0.000 A 
ATOM     26  C   UNL     1       1.898  16.848  18.107  0.00  0.00    +0.000 A 
ATOM     27  C   UNL     1       3.129  16.477  17.589  0.00  0.00    +0.000 A 
ATOM     28  C   UNL     1       3.527  15.162  17.744  0.00  0.00    +0.000 A 
ATOM     29  N   UNL     1       2.779  14.213  18.352  0.00  0.00    +0.000 NA
ATOM     30  C   UNL     1       1.571  14.573  18.856  0.00  0.00    +0.000 A 
ENDBRANCH  19  21
ENDBRANCH   1  18
TORSDOF 3
ENDMDL
MODEL 4
REMARK VINA RESULT:      -8.8      1.304      2.620
REMARK  Name = 
REMARK  3 active torsions:
REMARK  status: ('A' for Active; 'I' for Inactive)
REMARK    1  A    between atoms: C_2  and  C_14
REMARK    2  A    between atoms: N_3  and  C_4
REMARK    3  A    between atoms: C_17  and  N_18
REMARK                            x       y       z     vdW  Elec       q    Type
REMARK                         _______ _______ _______ _____ _____    ______ ____
ROOT
ATOM      1  C   UNL     1       1.061   9.509  19.122  0.00  0.00    +0.000 A 
ATOM      2  C   UNL     1       1.113   8.851  20.350  0.00  0.00    +0.000 A 
ATOM      3  C   UNL     1       1.789   7.636  20.463  0.00  0.00    +0.000 A 
ATOM      4  C   UNL     1       2.443   7.046  19.370  0.00  0.00    +0.000 A 
ATOM      5  C   UNL     1       2.407   7.754  18.156  0.00  0.00    +0.000 A 
ATOM      6  C   UNL     1       1.715   8.963  18.020  0.00  0.00    +0.000 A 
ENDROOT
BRANCH   4   7
ATOM      7  N   UNL     1       3.088   5.835  19.498  0.00  0.00    +0.000 N 
ATOM      8  C   UNL     1       2.587   4.807  20.408  0.00  0.00    +0.000 C 
ATOM      9  C   UNL     1       3.281   3.515  20.009  0.00  0.00    +0.000 C 
ATOM     10  C   UNL     1       2.398   2.414  19.366  0.00  0.00    +0.000 C 
ATOM     11  C   UNL     1       1.596   2.977  18.215  0.00  0.00    +0.000 C 
ATOM     12  C   UNL     1       2.460   3.263  17.231  0.00  0.00    +0.000 C 
ATOM     13  C   UNL     1       3.842   2.901  17.732  0.00  0.00    +0.000 C 
ATOM     14  C   UNL     1       3.459   1.662  18.552  0.00  0.00    +0.000 C 
ATOM     15  C   UNL     1       4.275   3.867  18.868  0.00  0.00    +0.000 C 
ATOM     16  C   UNL     1       4.115   5.355  18.582  0.00  0.00    +0.000 C 
ENDBRANCH   4   7
BRANCH   1  18
ATOM     17  O   UNL     1      -0.627  10.880  18.321  0.00  0.00    +0.000 OA
ATOM     18  C   UNL     1       0.356  10.808  19.054  0.00  0.00    +0.000 C 
ATOM     19  N   UNL     1       0.918  11.838  19.778  0.00  0.00    +0.000 N 
ATOM     20  H   UNL     1       1.856  11.728  20.151  0.00  0.00    +0.000 HD
BRANCH  19  21
ATOM     21  C   UNL     1       0.442  13.173  19.825  0.00  0.00    +0.000 A 
ATOM     22  C   UNL     1       0.669  14.076  18.778  0.00  0.00    +0.000 A 
ATOM     23  C   UNL     1       0.267  15.401  18.888  0.00  0.00    +0.000 A 
ATOM     24  C   UNL     1      -0.369  15.830  20.046  0.00  0.00    +0.000 A 
ATOM     25  C   UNL     1      -0.637  14.925  21.085  0.00  0.00    +0.000 A 
ATOM     26  C   UNL     1      -1.278  15.346  22.255  0.00  0.00    +0.000 A 
ATOM     27  C   UNL     1      -1.544  14.437  23.268  0.00  0.00    +0.000 A 
ATOM     28  C   UNL     1      -1.158  13.124  23.076  0.00  0.00    +0.000 A 
ATOM     29  N   UNL     1      -0.520  12.677  21.970  0.00  0.00    +0.000 NA
ATOM     30  C   UNL     1      -0.254  13.567  20.980  0.00  0.00    +0.000 A 
ENDBRANCH  19  21
ENDBRANCH   1  18
TORSDOF 3
ENDMDL
MODEL 5
REMARK VINA RESULT:      -8.8      2.438      3.592
REMARK  Name = 
REMARK  3 active torsions:
REMARK  status: ('A' for Active; 'I' for Inactive)
REMARK    1  A    between atoms: C_2  and  C_14
REMARK    2  A    between atoms: N_3  and  C_4
REMARK    3  A    between atoms: C_17  and  N_18
REMARK                            x       y       z     vdW  Elec       q    Type
REMARK                         _______ _______ _______ _____ _____    ______ ____
ROOT
ATOM      1  C   UNL     1       1.062   8.895  19.931  0.00  0.00    +0.000 A 
ATOM      2  C   UNL     1       1.639   8.886  18.662  0.00  0.00    +0.000 A 
ATOM      3  C   UNL     1       2.458   7.824  18.275  0.00  0.00    +0.000 A 
ATOM      4  C   UNL     1       2.715   6.737  19.126  0.00  0.00    +0.000 A 
ATOM      5  C   UNL     1       2.087   6.756  20.382  0.00  0.00    +0.000 A 
ATOM      6  C   UNL     1       1.280   7.824  20.795  0.00  0.00    +0.000 A 
ENDROOT
BRANCH   4   7
ATOM      7  N   UNL     1       3.544   5.708  18.731  0.00  0.00    +0.000 N 
ATOM      8  C   UNL     1       3.215   4.876  17.576  0.00  0.00    +0.000 C 
ATOM      9  C   UNL     1       4.491   4.139  17.210  0.00  0.00    +0.000 C 
ATOM     10  C   UNL     1       5.171   4.536  15.873  0.00  0.00    +0.000 C 
ATOM     11  C   UNL     1       5.369   6.032  15.798  0.00  0.00    +0.000 C 
ATOM     12  C   UNL     1       6.303   6.356  16.703  0.00  0.00    +0.000 C 
ATOM     13  C   UNL     1       6.720   5.074  17.391  0.00  0.00    +0.000 C 
ATOM     14  C   UNL     1       6.620   4.135  16.181  0.00  0.00    +0.000 C 
ATOM     15  C   UNL     1       5.561   4.528  18.267  0.00  0.00    +0.000 C 
ATOM     16  C   UNL     1       4.907   5.527  19.214  0.00  0.00    +0.000 C 
ENDBRANCH   4   7
BRANCH   1  18
ATOM     17  O   UNL     1      -0.516  10.507  19.399  0.00  0.00    +0.000 OA
ATOM     18  C   UNL     1       0.180  10.027  20.291  0.00  0.00    +0.000 C 
ATOM     19  N   UNL     1       0.274  10.475  21.591  0.00  0.00    +0.000 N 
ATOM     20  H   UNL     1       1.049  10.163  22.169  0.00  0.00    +0.000 HD
BRANCH  19  21
ATOM     21  C   UNL     1      -0.439  11.570  22.143  0.00  0.00    +0.000 A 
ATOM     22  C   UNL     1      -1.645  11.394  22.835  0.00  0.00    +0.000 A 
ATOM     23  C   UNL     1      -2.365  12.492  23.289  0.00  0.00    +0.000 A 
ATOM     24  C   UNL     1      -1.881  13.773  23.057  0.00  0.00    +0.000 A 
ATOM     25  C   UNL     1      -0.654  13.959  22.400  0.00  0.00    +0.000 A 
ATOM     26  C   UNL     1      -0.157  15.245  22.162  0.00  0.00    +0.000 A 
ATOM     27  C   UNL     1       1.061  15.412  21.520  0.00  0.00    +0.000 A 
ATOM     28  C   UNL     1       1.749  14.277  21.134  0.00  0.00    +0.000 A 
ATOM     29  N   UNL     1       1.297  13.017  21.327  0.00  0.00    +0.000 NA
ATOM     30  C   UNL     1       0.102  12.852  21.951  0.00  0.00    +0.000 A 
ENDBRANCH  19  21
ENDBRANCH   1  18
TORSDOF 3
ENDMDL
MODEL 6
REMARK VINA RESULT:      -8.8      2.969      3.905
REMARK  Name = 
REMARK  3 active torsions:
REMARK  status: ('A' for Active; 'I' for Inactive)
REMARK    1  A    between atoms: C_2  and  C_14
REMARK    2  A    between atoms: N_3  and  C_4
REMARK    3  A    between atoms: C_17  and  N_18
REMARK                            x       y       z     vdW  Elec       q    Type
REMARK                         _______ _______ _______ _____ _____    ______ ____
ROOT
ATOM      1  C   UNL     1       1.257   9.354  19.077  0.00  0.00    +0.000 A 
ATOM      2  C   UNL     1       1.381   8.454  20.134  0.00  0.00    +0.000 A 
ATOM      3  C   UNL     1       2.115   7.279  19.969  0.00  0.00    +0.000 A 
ATOM      4  C   UNL     1       2.757   6.969  18.759  0.00  0.00    +0.000 A 
ATOM      5  C   UNL     1       2.647   7.914  17.726  0.00  0.00    +0.000 A 
ATOM      6  C   UNL     1       1.897   9.088  17.868  0.00  0.00    +0.000 A 
ENDROOT
BRANCH   4   7
ATOM      7  N   UNL     1       3.459   5.792  18.611  0.00  0.00    +0.000 N 
ATOM      8  C   UNL     1       3.955   5.058  19.773  0.00  0.00    +0.000 C 
ATOM      9  C   UNL     1       4.313   3.668  19.273  0.00  0.00    +0.000 C 
ATOM     10  C   UNL     1       3.424   2.496  19.763  0.00  0.00    +0.000 C 
ATOM     11  C   UNL     1       1.962   2.798  19.524  0.00  0.00    +0.000 C 
ATOM     12  C   UNL     1       1.763   2.775  18.199  0.00  0.00    +0.000 C 
ATOM     13  C   UNL     1       3.097   2.469  17.552  0.00  0.00    +0.000 C 
ATOM     14  C   UNL     1       3.636   1.501  18.614  0.00  0.00    +0.000 C 
ATOM     15  C   UNL     1       4.074   3.662  17.738  0.00  0.00    +0.000 C 
ATOM     16  C   UNL     1       3.533   5.037  17.366  0.00  0.00    +0.000 C 
ENDBRANCH   4   7
BRANCH   1  18
ATOM     17  O   UNL     1       1.105  11.662  19.211  0.00  0.00    +0.000 OA
ATOM     18  C   UNL     1       0.493  10.601  19.303  0.00  0.00    +0.000 C 
ATOM     19  N   UNL     1      -0.828  10.441  19.661  0.00  0.00    +0.000 N 
ATOM     20  H   UNL     1      -1.160   9.522  19.939  0.00  0.00    +0.000 HD
BRANCH  19  21
ATOM     21  C   UNL     1      -1.734  11.488  19.969  0.00  0.00    +0.000 A 
ATOM     22  C   UNL     1      -1.507  12.375  21.030  0.00  0.00    +0.000 A 
ATOM     23  C   UNL     1      -2.454  13.335  21.362  0.00  0.00    +0.000 A 
ATOM     24  C   UNL     1      -3.633  13.417  20.633  0.00  0.00    +0.000 A 
ATOM     25  C   UNL     1      -3.854  12.559  19.544  0.00  0.00    +0.000 A 
ATOM     26  C   UNL     1      -5.038  12.634  18.802  0.00  0.00    +0.000 A 
ATOM     27  C   UNL     1      -5.236  11.786  17.722  0.00  0.00    +0.000 A 
ATOM     28  C   UNL     1      -4.235  10.884  17.417  0.00  0.00    +0.000 A 
ATOM     29  N   UNL     1      -3.084  10.765  18.118  0.00  0.00    +0.000 NA
ATOM     30  C   UNL     1      -2.890  11.591  19.178  0.00  0.00    +0.000 A 
ENDBRANCH  19  21
ENDBRANCH   1  18
TORSDOF 3
ENDMDL
MODEL 7
REMARK VINA RESULT:      -8.8      2.160      3.634
REMARK  Name = 
REMARK  3 active torsions:
REMARK  status: ('A' for Active; 'I' for Inactive)
REMARK    1  A    between atoms: C_2  and  C_14
REMARK    2  A    between atoms: N_3  and  C_4
REMARK    3  A    between atoms: C_17  and  N_18
REMARK                            x       y       z     vdW  Elec       q    Type
REMARK                         _______ _______ _______ _____ _____    ______ ____
ROOT
ATOM      1  C   UNL     1       1.145   9.929  19.456  0.00  0.00    +0.000 A 
ATOM      2  C   UNL     1       1.232   9.008  20.500  0.00  0.00    +0.000 A 
ATOM      3  C   UNL     1       1.736   7.729  20.262  0.00  0.00    +0.000 A 
ATOM      4  C   UNL     1       2.182   7.332  18.991  0.00  0.00    +0.000 A 
ATOM      5  C   UNL     1       2.119   8.295  17.970  0.00  0.00    +0.000 A 
ATOM      6  C   UNL     1       1.595   9.576  18.186  0.00  0.00    +0.000 A 
ENDROOT
BRANCH   4   7
ATOM      7  N   UNL     1       2.657   6.056  18.774  0.00  0.00    +0.000 N 
ATOM      8  C   UNL     1       3.587   5.428  19.710  0.00  0.00    +0.000 C 
ATOM      9  C   UNL     1       3.582   3.945  19.379  0.00  0.00    +0.000 C 
ATOM     10  C   UNL     1       2.948   2.995  20.428  0.00  0.00    +0.000 C 
ATOM     11  C   UNL     1       1.565   3.469  20.812  0.00  0.00    +0.000 C 
ATOM     12  C   UNL     1       0.773   3.290  19.745  0.00  0.00    +0.000 C 
ATOM     13  C   UNL     1       1.633   2.706  18.645  0.00  0.00    +0.000 C 
ATOM     14  C   UNL     1       2.539   1.828  19.518  0.00  0.00    +0.000 C 
ATOM     15  C   UNL     1       2.658   3.758  18.144  0.00  0.00    +0.000 C 
ATOM     16  C   UNL     1       2.097   5.131  17.796  0.00  0.00    +0.000 C 
ENDBRANCH   4   7
BRANCH   1  18
ATOM     17  O   UNL     1       0.200  11.946  18.817  0.00  0.00    +0.000 OA
ATOM     18  C   UNL     1       0.629  11.283  19.758  0.00  0.00    +0.000 C 
ATOM     19  N   UNL     1       0.740  11.692  21.069  0.00  0.00    +0.000 N 
ATOM     20  H   UNL     1       1.325  11.160  21.707  0.00  0.00    +0.000 HD
BRANCH  19  21
ATOM     21  C   UNL     1       0.356  12.959  21.576  0.00  0.00    +0.000 A 
ATOM     22  C   UNL     1       1.132  14.107  21.368  0.00  0.00    +0.000 A 
ATOM     23  C   UNL     1       0.776  15.316  21.949  0.00  0.00    +0.000 A 
ATOM     24  C   UNL     1      -0.364  15.387  22.740  0.00  0.00    +0.000 A 
ATOM     25  C   UNL     1      -1.171  14.253  22.924  0.00  0.00    +0.000 A 
ATOM     26  C   UNL     1      -2.322  14.314  23.718  0.00  0.00    +0.000 A 
ATOM     27  C   UNL     1      -3.114  13.187  23.881  0.00  0.00    +0.000 A 
ATOM     28  C   UNL     1      -2.727  12.027  23.238  0.00  0.00    +0.000 A 
ATOM     29  N   UNL     1      -1.614  11.918  22.477  0.00  0.00    +0.000 NA
ATOM     30  C   UNL     1      -0.834  13.019  22.321  0.00  0.00    +0.000 A 
ENDBRANCH  19  21
ENDBRANCH   1  18
TORSDOF 3
ENDMDL
MODEL 8
REMARK VINA RESULT:      -8.8      1.824      3.336
REMARK  Name = 
REMARK  3 active torsions:
REMARK  status: ('A' for Active; 'I' for Inactive)
REMARK    1  A    between atoms: C_2  and  C_14
REMARK    2  A    between atoms: N_3  and  C_4
REMARK    3  A    between atoms: C_17  and  N_18
REMARK                            x       y       z     vdW  Elec       q    Type
REMARK                         _______ _______ _______ _____ _____    ______ ____
ROOT
ATOM      1  C   UNL     1       1.440   9.368  19.063  0.00  0.00    +0.000 A 
ATOM      2  C   UNL     1       1.478   8.424  20.088  0.00  0.00    +0.000 A 
ATOM      3  C   UNL     1       2.151   7.216  19.900  0.00  0.00    +0.000 A 
ATOM      4  C   UNL     1       2.816   6.915  18.701  0.00  0.00    +0.000 A 
ATOM      5  C   UNL     1       2.794   7.903  17.702  0.00  0.00    +0.000 A 
ATOM      6  C   UNL     1       2.105   9.112  17.866  0.00  0.00    +0.000 A 
ENDROOT
BRANCH   4   7
ATOM      7  N   UNL     1       3.458   5.707  18.529  0.00  0.00    +0.000 N 
ATOM      8  C   UNL     1       4.033   4.991  19.665  0.00  0.00    +0.000 C 
ATOM      9  C   UNL     1       4.291   3.573  19.184  0.00  0.00    +0.000 C 
ATOM     10  C   UNL     1       3.410   2.453  19.795  0.00  0.00    +0.000 C 
ATOM     11  C   UNL     1       1.944   2.806  19.683  0.00  0.00    +0.000 C 
ATOM     12  C   UNL     1       1.621   2.749  18.383  0.00  0.00    +0.000 C 
ATOM     13  C   UNL     1       2.875   2.370  17.627  0.00  0.00    +0.000 C 
ATOM     14  C   UNL     1       3.476   1.415  18.667  0.00  0.00    +0.000 C 
ATOM     15  C   UNL     1       3.908   3.528  17.679  0.00  0.00    +0.000 C 
ATOM     16  C   UNL     1       3.386   4.911  17.311  0.00  0.00    +0.000 C 
ENDBRANCH   4   7
BRANCH   1  18
ATOM     17  O   UNL     1      -0.134  10.977  18.514  0.00  0.00    +0.000 OA
ATOM     18  C   UNL     1       0.739  10.646  19.313  0.00  0.00    +0.000 C 
ATOM     19  N   UNL     1       1.183  11.375  20.395  0.00  0.00    +0.000 N 
ATOM     20  H   UNL     1       2.061  11.122  20.838  0.00  0.00    +0.000 HD
BRANCH  19  21
ATOM     21  C   UNL     1       0.691  12.644  20.797  0.00  0.00    +0.000 A 
ATOM     22  C   UNL     1       1.242  13.838  20.312  0.00  0.00    +0.000 A 
ATOM     23  C   UNL     1       0.798  15.064  20.789  0.00  0.00    +0.000 A 
ATOM     24  C   UNL     1      -0.204  15.105  21.750  0.00  0.00    +0.000 A 
ATOM     25  C   UNL     1      -0.790  13.916  22.213  0.00  0.00    +0.000 A 
ATOM     26  C   UNL     1      -1.800  13.946  23.181  0.00  0.00    +0.000 A 
ATOM     27  C   UNL     1      -2.376  12.763  23.621  0.00  0.00    +0.000 A 
ATOM     28  C   UNL     1      -1.920  11.579  23.073  0.00  0.00    +0.000 A 
ATOM     29  N   UNL     1      -0.933  11.503  22.151  0.00  0.00    +0.000 NA
ATOM     30  C   UNL     1      -0.365  12.660  21.723  0.00  0.00    +0.000 A 
ENDBRANCH  19  21
ENDBRANCH   1  18
TORSDOF 3
ENDMDL
MODEL 9
REMARK VINA RESULT:      -8.7      2.100      2.729
REMARK  Name = 
REMARK  3 active torsions:
REMARK  status: ('A' for Active; 'I' for Inactive)
REMARK    1  A    between atoms: C_2  and  C_14
REMARK    2  A    between atoms: N_3  and  C_4
REMARK    3  A    between atoms: C_17  and  N_18
REMARK                            x       y       z     vdW  Elec       q    Type
REMARK                         _______ _______ _______ _____ _____    ______ ____
ROOT
ATOM      1  C   UNL     1       0.849   9.394  19.831  0.00  0.00    +0.000 A 
ATOM      2  C   UNL     1       1.093   8.417  20.795  0.00  0.00    +0.000 A 
ATOM      3  C   UNL     1       1.852   7.291  20.471  0.00  0.00    +0.000 A 
ATOM      4  C   UNL     1       2.401   7.109  19.192  0.00  0.00    +0.000 A 
ATOM      5  C   UNL     1       2.171   8.131  18.255  0.00  0.00    +0.000 A 
ATOM      6  C   UNL     1       1.394   9.256  18.557  0.00  0.00    +0.000 A 
ENDROOT
BRANCH   4   7
ATOM      7  N   UNL     1       3.129   5.979  18.888  0.00  0.00    +0.000 N 
ATOM      8  C   UNL     1       3.713   5.152  19.941  0.00  0.00    +0.000 C 
ATOM      9  C   UNL     1       4.085   3.833  19.285  0.00  0.00    +0.000 C 
ATOM     10  C   UNL     1       3.262   2.586  19.701  0.00  0.00    +0.000 C 
ATOM     11  C   UNL     1       1.780   2.856  19.573  0.00  0.00    +0.000 C 
ATOM     12  C   UNL     1       1.507   2.958  18.265  0.00  0.00    +0.000 C 
ATOM     13  C   UNL     1       2.810   2.767  17.520  0.00  0.00    +0.000 C 
ATOM     14  C   UNL     1       3.439   1.718  18.447  0.00  0.00    +0.000 C 
ATOM     15  C   UNL     1       3.758   3.970  17.772  0.00  0.00    +0.000 C 
ATOM     16  C   UNL     1       3.155   5.355  17.571  0.00  0.00    +0.000 C 
ENDBRANCH   4   7
BRANCH   1  18
ATOM     17  O   UNL     1      -0.441  11.251  19.324  0.00  0.00    +0.000 OA
ATOM     18  C   UNL     1       0.063  10.585  20.225  0.00  0.00    +0.000 C 
ATOM     19  N   UNL     1       0.028  10.865  21.574  0.00  0.00    +0.000 N 
ATOM     20  H   UNL     1       0.674  10.389  22.197  0.00  0.00    +0.000 HD
BRANCH  19  21
ATOM     21  C   UNL     1      -0.622  11.975  22.172  0.00  0.00    +0.000 A 
ATOM     22  C   UNL     1      -1.865  11.850  22.806  0.00  0.00    +0.000 A 
ATOM     23  C   UNL     1      -2.518  12.969  23.306  0.00  0.00    +0.000 A 
ATOM     24  C   UNL     1      -1.929  14.220  23.180  0.00  0.00    +0.000 A 
ATOM     25  C   UNL     1      -0.666  14.352  22.581  0.00  0.00    +0.000 A 
ATOM     26  C   UNL     1      -0.063  15.608  22.449  0.00  0.00    +0.000 A 
ATOM     27  C   UNL     1       1.190  15.719  21.865  0.00  0.00    +0.000 A 
ATOM     28  C   UNL     1       1.805  14.561  21.428  0.00  0.00    +0.000 A 
ATOM     29  N   UNL     1       1.251  13.330  21.519  0.00  0.00    +0.000 NA
ATOM     30  C   UNL     1       0.022  13.220  22.086  0.00  0.00    +0.000 A 
ENDBRANCH  19  21
ENDBRANCH   1  18
TORSDOF 3
ENDMDL
