MODEL 1
REMARK VINA RESULT:      -7.8      0.000      0.000
REMARK  Name = 
REMARK  12 active torsions:
REMARK  status: ('A' for Active; 'I' for Inactive)
REMARK    1  A    between atoms: C_1  and  C_2
REMARK    2  A    between atoms: C_2  and  N_3
REMARK    3  A    between atoms: N_3  and  C_4
REMARK    4  A    between atoms: N_3  and  S_18
REMARK    5  A    between atoms: C_4  and  C_5
REMARK    6  A    between atoms: N_7  and  C_8
REMARK    7  A    between atoms: C_13  and  C_14
REMARK    8  A    between atoms: C_14  and  O_16
REMARK    9  A    between atoms: O_16  and  C_17
REMARK   10  A    between atoms: S_18  and  C_21
REMARK   11  A    between atoms: C_24  and  O_25
REMARK   12  A    between atoms: O_25  and  C_26
REMARK                            x       y       z     vdW  Elec       q    Type
REMARK                         _______ _______ _______ _____ _____    ______ ____
ROOT
ATOM      1  C   UNL     1       2.639   4.759  20.120  0.00  0.00    +0.000 C 
ENDROOT
BRANCH   1   2
ATOM      2  C   UNL     1       2.270   6.032  19.372  0.00  0.00    +0.000 C 
ATOM      3  O   UNL     1       2.151   6.026  18.144  0.00  0.00    +0.000 OA
ATOM      4  N   UNL     1       2.173   7.169  20.164  0.00  0.00    +0.000 N 
ATOM      5  H   UNL     1       2.804   7.210  20.965  0.00  0.00    +0.000 HD
BRANCH   4   6
ATOM      6  C   UNL     1       1.753   8.420  19.637  0.00  0.00    +0.000 A 
ATOM      7  C   UNL     1       2.299   8.870  18.425  0.00  0.00    +0.000 A 
ATOM      8  C   UNL     1       1.922  10.097  17.875  0.00  0.00    +0.000 A 
ATOM      9  C   UNL     1       1.004  10.901  18.538  0.00  0.00    +0.000 A 
ATOM     10  C   UNL     1       0.438  10.463  19.736  0.00  0.00    +0.000 A 
ATOM     11  C   UNL     1       0.788   9.214  20.288  0.00  0.00    +0.000 A 
BRANCH  11  12
ATOM     12  C   UNL     1       0.191   8.776  21.584  0.00  0.00    +0.000 C 
ATOM     13  O   UNL     1      -0.489   7.769  21.717  0.00  0.00    +0.000 OA
BRANCH  12  14
ATOM     14  O   UNL     1       0.514   9.654  22.567  0.00  0.00    +0.000 OA
ATOM     15  C   UNL     1      -0.579  10.294  23.226  0.00  0.00    +0.000 C 
ENDBRANCH  12  14
ENDBRANCH  11  12
ENDBRANCH   4   6
ENDBRANCH   1   2
BRANCH   1  16
ATOM     16  N   UNL     1       2.471   3.474  19.366  0.00  0.00    +0.000 NA
BRANCH  16  17
ATOM     17  S   UNL     1       3.991   2.687  19.054  0.00  0.00    +0.000 S 
ATOM     18  O   UNL     1       4.630   2.342  20.303  0.00  0.00    +0.000 OA
ATOM     19  O   UNL     1       3.762   1.705  18.019  0.00  0.00    +0.000 OA
BRANCH  17  20
ATOM     20  C   UNL     1       4.972   4.002  18.379  0.00  0.00    +0.000 A 
ATOM     21  C   UNL     1       4.806   4.332  17.033  0.00  0.00    +0.000 A 
ATOM     22  C   UNL     1       5.527   5.397  16.497  0.00  0.00    +0.000 A 
ATOM     23  C   UNL     1       6.389   6.144  17.304  0.00  0.00    +0.000 A 
ATOM     24  C   UNL     1       6.559   5.798  18.648  0.00  0.00    +0.000 A 
ATOM     25  C   UNL     1       5.848   4.727  19.192  0.00  0.00    +0.000 A 
BRANCH  23  26
ATOM     26  O   UNL     1       7.042   7.163  16.666  0.00  0.00    +0.000 OA
ATOM     27  C   UNL     1       7.746   8.064  17.513  0.00  0.00    +0.000 C 
ENDBRANCH  23  26
ENDBRANCH  17  20
ENDBRANCH  16  17
BRANCH  16  29
ATOM     28  C   UNL     1       1.406   2.777  21.543  0.00  0.00    +0.000 C 
ATOM     29  C   UNL     1       1.504   2.543  20.045  0.00  0.00    +0.000 C 
ENDBRANCH  16  29
ENDBRANCH   1  16
TORSDOF 9
ENDMDL
MODEL 2
REMARK VINA RESULT:      -7.4      1.368      2.636
REMARK  Name = 
REMARK  12 active torsions:
REMARK  status: ('A' for Active; 'I' for Inactive)
REMARK    1  A    between atoms: C_1  and  C_2
REMARK    2  A    between atoms: C_2  and  N_3
REMARK    3  A    between atoms: N_3  and  C_4
REMARK    4  A    between atoms: N_3  and  S_18
REMARK    5  A    between atoms: C_4  and  C_5
REMARK    6  A    between atoms: N_7  and  C_8
REMARK    7  A    between atoms: C_13  and  C_14
REMARK    8  A    between atoms: C_14  and  O_16
REMARK    9  A    between atoms: O_16  and  C_17
REMARK   10  A    between atoms: S_18  and  C_21
REMARK   11  A    between atoms: C_24  and  O_25
REMARK   12  A    between atoms: O_25  and  C_26
REMARK                            x       y       z     vdW  Elec       q    Type
REMARK                         _______ _______ _______ _____ _____    ______ ____
ROOT
ATOM      1  C   UNL     1       2.973   4.768  20.414  0.00  0.00    +0.000 C 
ENDROOT
BRANCH   1   2
ATOM      2  C   UNL     1       1.876   5.817  20.535  0.00  0.00    +0.000 C 
ATOM      3  O   UNL     1       0.690   5.482  20.589  0.00  0.00    +0.000 OA
ATOM      4  N   UNL     1       2.318   7.133  20.490  0.00  0.00    +0.000 N 
ATOM      5  H   UNL     1       3.134   7.310  19.904  0.00  0.00    +0.000 HD
BRANCH   4   6
ATOM      6  C   UNL     1       1.435   8.231  20.676  0.00  0.00    +0.000 A 
ATOM      7  C   UNL     1       0.852   8.433  21.937  0.00  0.00    +0.000 A 
ATOM      8  C   UNL     1      -0.029   9.493  22.162  0.00  0.00    +0.000 A 
ATOM      9  C   UNL     1      -0.352  10.359  21.125  0.00  0.00    +0.000 A 
ATOM     10  C   UNL     1       0.231  10.183  19.869  0.00  0.00    +0.000 A 
ATOM     11  C   UNL     1       1.143   9.134  19.635  0.00  0.00    +0.000 A 
BRANCH  11  12
ATOM     12  C   UNL     1       1.735   8.948  18.277  0.00  0.00    +0.000 C 
ATOM     13  O   UNL     1       2.272   7.916  17.902  0.00  0.00    +0.000 OA
BRANCH  12  14
ATOM     14  O   UNL     1       1.586  10.079  17.544  0.00  0.00    +0.000 OA
ATOM     15  C   UNL     1       2.518  11.129  17.807  0.00  0.00    +0.000 C 
ENDBRANCH  12  14
ENDBRANCH  11  12
ENDBRANCH   4   6
ENDBRANCH   1   2
BRANCH   1  16
ATOM     16  N   UNL     1       2.776   3.723  19.357  0.00  0.00    +0.000 NA
BRANCH  16  17
ATOM     17  S   UNL     1       4.284   3.072  18.784  0.00  0.00    +0.000 S 
ATOM     18  O   UNL     1       5.077   2.615  19.901  0.00  0.00    +0.000 OA
ATOM     19  O   UNL     1       3.983   2.211  17.662  0.00  0.00    +0.000 OA
BRANCH  17  20
ATOM     20  C   UNL     1       5.121   4.515  18.181  0.00  0.00    +0.000 A 
ATOM     21  C   UNL     1       6.324   4.887  18.784  0.00  0.00    +0.000 A 
ATOM     22  C   UNL     1       7.025   5.984  18.290  0.00  0.00    +0.000 A 
ATOM     23  C   UNL     1       6.543   6.692  17.185  0.00  0.00    +0.000 A 
ATOM     24  C   UNL     1       5.331   6.319  16.595  0.00  0.00    +0.000 A 
ATOM     25  C   UNL     1       4.617   5.227  17.088  0.00  0.00    +0.000 A 
BRANCH  23  26
ATOM     26  O   UNL     1       7.317   7.749  16.792  0.00  0.00    +0.000 OA
ATOM     27  C   UNL     1       7.962   8.459  17.843  0.00  0.00    +0.000 C 
ENDBRANCH  23  26
ENDBRANCH  17  20
ENDBRANCH  16  17
BRANCH  16  29
ATOM     28  C   UNL     1       0.707   2.379  18.836  0.00  0.00    +0.000 C 
ATOM     29  C   UNL     1       1.847   2.630  19.809  0.00  0.00    +0.000 C 
ENDBRANCH  16  29
ENDBRANCH   1  16
TORSDOF 9
ENDMDL
MODEL 3
REMARK VINA RESULT:      -7.2      1.593      2.523
REMARK  Name = 
REMARK  12 active torsions:
REMARK  status: ('A' for Active; 'I' for Inactive)
REMARK    1  A    between atoms: C_1  and  C_2
REMARK    2  A    between atoms: C_2  and  N_3
REMARK    3  A    between atoms: N_3  and  C_4
REMARK    4  A    between atoms: N_3  and  S_18
REMARK    5  A    between atoms: C_4  and  C_5
REMARK    6  A    between atoms: N_7  and  C_8
REMARK    7  A    between atoms: C_13  and  C_14
REMARK    8  A    between atoms: C_14  and  O_16
REMARK    9  A    between atoms: O_16  and  C_17
REMARK   10  A    between atoms: S_18  and  C_21
REMARK   11  A    between atoms: C_24  and  O_25
REMARK   12  A    between atoms: O_25  and  C_26
REMARK                            x       y       z     vdW  Elec       q    Type
REMARK                         _______ _______ _______ _____ _____    ______ ____
ROOT
ATOM      1  C   UNL     1       2.969   5.498  19.561  0.00  0.00    +0.000 C 
ENDROOT
BRANCH   1   2
ATOM      2  C   UNL     1       1.909   6.375  20.211  0.00  0.00    +0.000 C 
ATOM      3  O   UNL     1       0.902   5.872  20.717  0.00  0.00    +0.000 OA
ATOM      4  N   UNL     1       2.132   7.741  20.101  0.00  0.00    +0.000 N 
ATOM      5  H   UNL     1       2.601   8.050  19.250  0.00  0.00    +0.000 HD
BRANCH   4   6
ATOM      6  C   UNL     1       1.286   8.696  20.727  0.00  0.00    +0.000 A 
ATOM      7  C   UNL     1       1.012   8.572  22.099  0.00  0.00    +0.000 A 
ATOM      8  C   UNL     1       0.178   9.481  22.753  0.00  0.00    +0.000 A 
ATOM      9  C   UNL     1      -0.408  10.521  22.041  0.00  0.00    +0.000 A 
ATOM     10  C   UNL     1      -0.135  10.669  20.681  0.00  0.00    +0.000 A 
ATOM     11  C   UNL     1       0.728   9.775  20.014  0.00  0.00    +0.000 A 
BRANCH  11  12
ATOM     12  C   UNL     1       0.986   9.936  18.553  0.00  0.00    +0.000 C 
ATOM     13  O   UNL     1       0.249   9.507  17.677  0.00  0.00    +0.000 OA
BRANCH  12  14
ATOM     14  O   UNL     1       2.143  10.618  18.355  0.00  0.00    +0.000 OA
ATOM     15  C   UNL     1       2.036  12.042  18.315  0.00  0.00    +0.000 C 
ENDBRANCH  12  14
ENDBRANCH  11  12
ENDBRANCH   4   6
ENDBRANCH   1   2
BRANCH   1  16
ATOM     16  N   UNL     1       2.647   4.037  19.455  0.00  0.00    +0.000 NA
BRANCH  16  17
ATOM     17  S   UNL     1       3.290   3.322  18.005  0.00  0.00    +0.000 S 
ATOM     18  O   UNL     1       3.863   2.031  18.308  0.00  0.00    +0.000 OA
ATOM     19  O   UNL     1       2.301   3.491  16.966  0.00  0.00    +0.000 OA
BRANCH  17  20
ATOM     20  C   UNL     1       4.675   4.370  17.643  0.00  0.00    +0.000 A 
ATOM     21  C   UNL     1       4.598   5.216  16.535  0.00  0.00    +0.000 A 
ATOM     22  C   UNL     1       5.651   6.086  16.265  0.00  0.00    +0.000 A 
ATOM     23  C   UNL     1       6.765   6.130  17.108  0.00  0.00    +0.000 A 
ATOM     24  C   UNL     1       6.840   5.270  18.207  0.00  0.00    +0.000 A 
ATOM     25  C   UNL     1       5.794   4.389  18.481  0.00  0.00    +0.000 A 
BRANCH  23  26
ATOM     26  O   UNL     1       7.735   7.023  16.739  0.00  0.00    +0.000 OA
ATOM     27  C   UNL     1       7.839   8.184  17.556  0.00  0.00    +0.000 C 
ENDBRANCH  23  26
ENDBRANCH  17  20
ENDBRANCH  16  17
BRANCH  16  29
ATOM     28  C   UNL     1       1.911   2.835  21.546  0.00  0.00    +0.000 C 
ATOM     29  C   UNL     1       3.078   3.273  20.677  0.00  0.00    +0.000 C 
ENDBRANCH  16  29
ENDBRANCH   1  16
TORSDOF 9
ENDMDL
MODEL 4
REMARK VINA RESULT:      -7.1      1.527      2.649
REMARK  Name = 
REMARK  12 active torsions:
REMARK  status: ('A' for Active; 'I' for Inactive)
REMARK    1  A    between atoms: C_1  and  C_2
REMARK    2  A    between atoms: C_2  and  N_3
REMARK    3  A    between atoms: N_3  and  C_4
REMARK    4  A    between atoms: N_3  and  S_18
REMARK    5  A    between atoms: C_4  and  C_5
REMARK    6  A    between atoms: N_7  and  C_8
REMARK    7  A    between atoms: C_13  and  C_14
REMARK    8  A    between atoms: C_14  and  O_16
REMARK    9  A    between atoms: O_16  and  C_17
REMARK   10  A    between atoms: S_18  and  C_21
REMARK   11  A    between atoms: C_24  and  O_25
REMARK   12  A    between atoms: O_25  and  C_26
REMARK                            x       y       z     vdW  Elec       q    Type
REMARK                         _______ _______ _______ _____ _____    ______ ____
ROOT
ATOM      1  C   UNL     1       3.021   5.642  19.785  0.00  0.00    +0.000 C 
ENDROOT
BRANCH   1   2
ATOM      2  C   UNL     1       1.896   6.510  20.330  0.00  0.00    +0.000 C 
ATOM      3  O   UNL     1       0.830   6.003  20.687  0.00  0.00    +0.000 OA
ATOM      4  N   UNL     1       2.145   7.876  20.301  0.00  0.00    +0.000 N 
ATOM      5  H   UNL     1       2.720   8.209  19.528  0.00  0.00    +0.000 HD
BRANCH   4   6
ATOM      6  C   UNL     1       1.235   8.819  20.852  0.00  0.00    +0.000 A 
ATOM      7  C   UNL     1       0.978   8.797  22.232  0.00  0.00    +0.000 A 
ATOM      8  C   UNL     1       0.084   9.698  22.814  0.00  0.00    +0.000 A 
ATOM      9  C   UNL     1      -0.579  10.626  22.021  0.00  0.00    +0.000 A 
ATOM     10  C   UNL     1      -0.325  10.674  20.650  0.00  0.00    +0.000 A 
ATOM     11  C   UNL     1       0.597   9.789  20.054  0.00  0.00    +0.000 A 
BRANCH  11  12
ATOM     12  C   UNL     1       0.835   9.839  18.581  0.00  0.00    +0.000 C 
ATOM     13  O   UNL     1       1.847  10.292  18.068  0.00  0.00    +0.000 OA
BRANCH  12  14
ATOM     14  O   UNL     1      -0.227   9.314  17.918  0.00  0.00    +0.000 OA
ATOM     15  C   UNL     1      -1.232  10.240  17.504  0.00  0.00    +0.000 C 
ENDBRANCH  12  14
ENDBRANCH  11  12
ENDBRANCH   4   6
ENDBRANCH   1   2
BRANCH   1  16
ATOM     16  N   UNL     1       2.787   4.161  19.808  0.00  0.00    +0.000 NA
BRANCH  16  17
ATOM     17  S   UNL     1       4.017   3.285  18.944  0.00  0.00    +0.000 S 
ATOM     18  O   UNL     1       4.866   2.583  19.878  0.00  0.00    +0.000 OA
ATOM     19  O   UNL     1       3.369   2.606  17.845  0.00  0.00    +0.000 OA
BRANCH  17  20
ATOM     20  C   UNL     1       5.027   4.587  18.288  0.00  0.00    +0.000 A 
ATOM     21  C   UNL     1       6.197   4.929  18.968  0.00  0.00    +0.000 A 
ATOM     22  C   UNL     1       7.032   5.911  18.440  0.00  0.00    +0.000 A 
ATOM     23  C   UNL     1       6.716   6.530  17.228  0.00  0.00    +0.000 A 
ATOM     24  C   UNL     1       5.536   6.190  16.559  0.00  0.00    +0.000 A 
ATOM     25  C   UNL     1       4.688   5.214  17.085  0.00  0.00    +0.000 A 
BRANCH  23  26
ATOM     26  O   UNL     1       7.611   7.477  16.811  0.00  0.00    +0.000 OA
ATOM     27  C   UNL     1       7.815   8.562  17.709  0.00  0.00    +0.000 C 
ENDBRANCH  23  26
ENDBRANCH  17  20
ENDBRANCH  16  17
BRANCH  16  29
ATOM     28  C   UNL     1       1.505   2.616  21.334  0.00  0.00    +0.000 C 
ATOM     29  C   UNL     1       2.625   3.636  21.208  0.00  0.00    +0.000 C 
ENDBRANCH  16  29
ENDBRANCH   1  16
TORSDOF 9
ENDMDL
MODEL 5
REMARK VINA RESULT:      -7.0      0.602      1.085
REMARK  Name = 
REMARK  12 active torsions:
REMARK  status: ('A' for Active; 'I' for Inactive)
REMARK    1  A    between atoms: C_1  and  C_2
REMARK    2  A    between atoms: C_2  and  N_3
REMARK    3  A    between atoms: N_3  and  C_4
REMARK    4  A    between atoms: N_3  and  S_18
REMARK    5  A    between atoms: C_4  and  C_5
REMARK    6  A    between atoms: N_7  and  C_8
REMARK    7  A    between atoms: C_13  and  C_14
REMARK    8  A    between atoms: C_14  and  O_16
REMARK    9  A    between atoms: O_16  and  C_17
REMARK   10  A    between atoms: S_18  and  C_21
REMARK   11  A    between atoms: C_24  and  O_25
REMARK   12  A    between atoms: O_25  and  C_26
REMARK                            x       y       z     vdW  Elec       q    Type
REMARK                         _______ _______ _______ _____ _____    ______ ____
ROOT
ATOM      1  C   UNL     1       2.829   4.766  20.303  0.00  0.00    +0.000 C 
ENDROOT
BRANCH   1   2
ATOM      2  C   UNL     1       2.863   6.203  19.803  0.00  0.00    +0.000 C 
ATOM      3  O   UNL     1       3.900   6.680  19.334  0.00  0.00    +0.000 OA
ATOM      4  N   UNL     1       1.690   6.920  20.002  0.00  0.00    +0.000 N 
ATOM      5  H   UNL     1       1.158   6.681  20.839  0.00  0.00    +0.000 HD
BRANCH   4   6
ATOM      6  C   UNL     1       1.526   8.246  19.517  0.00  0.00    +0.000 A 
ATOM      7  C   UNL     1       2.101   8.599  18.286  0.00  0.00    +0.000 A 
ATOM      8  C   UNL     1       1.973   9.893  17.775  0.00  0.00    +0.000 A 
ATOM      9  C   UNL     1       1.280  10.857  18.496  0.00  0.00    +0.000 A 
ATOM     10  C   UNL     1       0.689  10.520  19.714  0.00  0.00    +0.000 A 
ATOM     11  C   UNL     1       0.786   9.211  20.228  0.00  0.00    +0.000 A 
BRANCH  11  12
ATOM     12  C   UNL     1       0.169   8.877  21.546  0.00  0.00    +0.000 C 
ATOM     13  O   UNL     1      -0.648   7.983  21.710  0.00  0.00    +0.000 OA
BRANCH  12  14
ATOM     14  O   UNL     1       0.647   9.706  22.508  0.00  0.00    +0.000 OA
ATOM     15  C   UNL     1       0.114   9.522  23.820  0.00  0.00    +0.000 C 
ENDBRANCH  12  14
ENDBRANCH  11  12
ENDBRANCH   4   6
ENDBRANCH   1   2
BRANCH   1  16
ATOM     16  N   UNL     1       2.530   3.714  19.277  0.00  0.00    +0.000 NA
BRANCH  16  17
ATOM     17  S   UNL     1       3.947   2.812  18.824  0.00  0.00    +0.000 S 
ATOM     18  O   UNL     1       4.642   2.363  20.007  0.00  0.00    +0.000 OA
ATOM     19  O   UNL     1       3.557   1.896  17.776  0.00  0.00    +0.000 OA
BRANCH  17  20
ATOM     20  C   UNL     1       4.990   4.063  18.121  0.00  0.00    +0.000 A 
ATOM     21  C   UNL     1       6.099   4.493  18.853  0.00  0.00    +0.000 A 
ATOM     22  C   UNL     1       6.961   5.434  18.296  0.00  0.00    +0.000 A 
ATOM     23  C   UNL     1       6.734   5.926  17.007  0.00  0.00    +0.000 A 
ATOM     24  C   UNL     1       5.615   5.500  16.287  0.00  0.00    +0.000 A 
ATOM     25  C   UNL     1       4.740   4.563  16.840  0.00  0.00    +0.000 A 
BRANCH  23  26
ATOM     26  O   UNL     1       7.648   6.845  16.569  0.00  0.00    +0.000 OA
ATOM     27  C   UNL     1       7.824   7.981  17.410  0.00  0.00    +0.000 C 
ENDBRANCH  23  26
ENDBRANCH  17  20
ENDBRANCH  16  17
BRANCH  16  29
ATOM     28  C   UNL     1       1.245   2.751  21.221  0.00  0.00    +0.000 C 
ATOM     29  C   UNL     1       1.418   2.799  19.713  0.00  0.00    +0.000 C 
ENDBRANCH  16  29
ENDBRANCH   1  16
TORSDOF 9
ENDMDL
MODEL 6
REMARK VINA RESULT:      -6.9      1.665      2.667
REMARK  Name = 
REMARK  12 active torsions:
REMARK  status: ('A' for Active; 'I' for Inactive)
REMARK    1  A    between atoms: C_1  and  C_2
REMARK    2  A    between atoms: C_2  and  N_3
REMARK    3  A    between atoms: N_3  and  C_4
REMARK    4  A    between atoms: N_3  and  S_18
REMARK    5  A    between atoms: C_4  and  C_5
REMARK    6  A    between atoms: N_7  and  C_8
REMARK    7  A    between atoms: C_13  and  C_14
REMARK    8  A    between atoms: C_14  and  O_16
REMARK    9  A    between atoms: O_16  and  C_17
REMARK   10  A    between atoms: S_18  and  C_21
REMARK   11  A    between atoms: C_24  and  O_25
REMARK   12  A    between atoms: O_25  and  C_26
REMARK                            x       y       z     vdW  Elec       q    Type
REMARK                         _______ _______ _______ _____ _____    ______ ____
ROOT
ATOM      1  C   UNL     1       2.767   4.895  20.100  0.00  0.00    +0.000 C 
ENDROOT
BRANCH   1   2
ATOM      2  C   UNL     1       1.741   5.956  20.472  0.00  0.00    +0.000 C 
ATOM      3  O   UNL     1       0.569   5.645  20.697  0.00  0.00    +0.000 OA
ATOM      4  N   UNL     1       2.215   7.261  20.445  0.00  0.00    +0.000 N 
ATOM      5  H   UNL     1       2.930   7.463  19.746  0.00  0.00    +0.000 HD
BRANCH   4   6
ATOM      6  C   UNL     1       1.412   8.362  20.849  0.00  0.00    +0.000 A 
ATOM      7  C   UNL     1       1.058   8.491  22.201  0.00  0.00    +0.000 A 
ATOM      8  C   UNL     1       0.263   9.551  22.641  0.00  0.00    +0.000 A 
ATOM      9  C   UNL     1      -0.204  10.492  21.731  0.00  0.00    +0.000 A 
ATOM     10  C   UNL     1       0.151  10.389  20.386  0.00  0.00    +0.000 A 
ATOM     11  C   UNL     1       0.976   9.340  19.933  0.00  0.00    +0.000 A 
BRANCH  11  12
ATOM     12  C   UNL     1       1.322   9.234  18.484  0.00  0.00    +0.000 C 
ATOM     13  O   UNL     1       2.197   8.503  18.043  0.00  0.00    +0.000 OA
BRANCH  12  14
ATOM     14  O   UNL     1       0.531  10.059  17.754  0.00  0.00    +0.000 OA
ATOM     15  C   UNL     1      -0.816   9.627  17.553  0.00  0.00    +0.000 C 
ENDBRANCH  12  14
ENDBRANCH  11  12
ENDBRANCH   4   6
ENDBRANCH   1   2
BRANCH   1  16
ATOM     16  N   UNL     1       2.987   4.670  18.634  0.00  0.00    +0.000 NA
BRANCH  16  17
ATOM     17  S   UNL     1       4.485   3.847  18.309  0.00  0.00    +0.000 S 
ATOM     18  O   UNL     1       4.985   3.243  19.522  0.00  0.00    +0.000 OA
ATOM     19  O   UNL     1       4.301   3.081  17.098  0.00  0.00    +0.000 OA
BRANCH  17  20
ATOM     20  C   UNL     1       5.594   5.188  17.967  0.00  0.00    +0.000 A 
ATOM     21  C   UNL     1       5.132   6.253  17.193  0.00  0.00    +0.000 A 
ATOM     22  C   UNL     1       5.969   7.341  16.958  0.00  0.00    +0.000 A 
ATOM     23  C   UNL     1       7.251   7.379  17.513  0.00  0.00    +0.000 A 
ATOM     24  C   UNL     1       7.711   6.302  18.276  0.00  0.00    +0.000 A 
ATOM     25  C   UNL     1       6.883   5.203  18.510  0.00  0.00    +0.000 A 
BRANCH  23  26
ATOM     26  O   UNL     1       7.979   8.498  17.212  0.00  0.00    +0.000 OA
ATOM     27  C   UNL     1       8.462   9.232  18.332  0.00  0.00    +0.000 C 
ENDBRANCH  23  26
ENDBRANCH  17  20
ENDBRANCH  16  17
BRANCH  16  29
ATOM     28  C   UNL     1       1.362   2.747  18.770  0.00  0.00    +0.000 C 
ATOM     29  C   UNL     1       1.826   3.964  17.989  0.00  0.00    +0.000 C 
ENDBRANCH  16  29
ENDBRANCH   1  16
TORSDOF 9
ENDMDL
MODEL 7
REMARK VINA RESULT:      -6.9      0.926      1.400
REMARK  Name = 
REMARK  12 active torsions:
REMARK  status: ('A' for Active; 'I' for Inactive)
REMARK    1  A    between atoms: C_1  and  C_2
REMARK    2  A    between atoms: C_2  and  N_3
REMARK    3  A    between atoms: N_3  and  C_4
REMARK    4  A    between atoms: N_3  and  S_18
REMARK    5  A    between atoms: C_4  and  C_5
REMARK    6  A    between atoms: N_7  and  C_8
REMARK    7  A    between atoms: C_13  and  C_14
REMARK    8  A    between atoms: C_14  and  O_16
REMARK    9  A    between atoms: O_16  and  C_17
REMARK   10  A    between atoms: S_18  and  C_21
REMARK   11  A    between atoms: C_24  and  O_25
REMARK   12  A    between atoms: O_25  and  C_26
REMARK                            x       y       z     vdW  Elec       q    Type
REMARK                         _______ _______ _______ _____ _____    ______ ____
ROOT
ATOM      1  C   UNL     1       2.828   5.402  19.836  0.00  0.00    +0.000 C 
ENDROOT
BRANCH   1   2
ATOM      2  C   UNL     1       2.426   6.766  19.293  0.00  0.00    +0.000 C 
ATOM      3  O   UNL     1       2.632   7.057  18.112  0.00  0.00    +0.000 OA
ATOM      4  N   UNL     1       1.911   7.643  20.238  0.00  0.00    +0.000 N 
ATOM      5  H   UNL     1       2.293   7.559  21.180  0.00  0.00    +0.000 HD
BRANCH   4   6
ATOM      6  C   UNL     1       1.408   8.924  19.882  0.00  0.00    +0.000 A 
ATOM      7  C   UNL     1       1.385   9.298  18.529  0.00  0.00    +0.000 A 
ATOM      8  C   UNL     1       0.908  10.549  18.135  0.00  0.00    +0.000 A 
ATOM      9  C   UNL     1       0.460  11.453  19.090  0.00  0.00    +0.000 A 
ATOM     10  C   UNL     1       0.460  11.093  20.438  0.00  0.00    +0.000 A 
ATOM     11  C   UNL     1       0.912   9.822  20.847  0.00  0.00    +0.000 A 
BRANCH  11  12
ATOM     12  C   UNL     1       0.929   9.466  22.298  0.00  0.00    +0.000 C 
ATOM     13  O   UNL     1       1.945   9.407  22.974  0.00  0.00    +0.000 OA
BRANCH  12  14
ATOM     14  O   UNL     1      -0.333   9.226  22.734  0.00  0.00    +0.000 OA
ATOM     15  C   UNL     1      -1.052  10.351  23.239  0.00  0.00    +0.000 C 
ENDBRANCH  12  14
ENDBRANCH  11  12
ENDBRANCH   4   6
ENDBRANCH   1   2
BRANCH   1  16
ATOM     16  N   UNL     1       2.120   4.219  19.247  0.00  0.00    +0.000 NA
BRANCH  16  17
ATOM     17  S   UNL     1       3.192   3.187  18.347  0.00  0.00    +0.000 S 
ATOM     18  O   UNL     1       3.828   2.244  19.238  0.00  0.00    +0.000 OA
ATOM     19  O   UNL     1       2.484   2.757  17.163  0.00  0.00    +0.000 OA
BRANCH  17  20
ATOM     20  C   UNL     1       4.481   4.304  17.860  0.00  0.00    +0.000 A 
ATOM     21  C   UNL     1       5.577   4.468  18.709  0.00  0.00    +0.000 A 
ATOM     22  C   UNL     1       6.625   5.298  18.320  0.00  0.00    +0.000 A 
ATOM     23  C   UNL     1       6.593   5.942  17.080  0.00  0.00    +0.000 A 
ATOM     24  C   UNL     1       5.486   5.783  16.241  0.00  0.00    +0.000 A 
ATOM     25  C   UNL     1       4.427   4.960  16.626  0.00  0.00    +0.000 A 
BRANCH  23  26
ATOM     26  O   UNL     1       7.678   6.731  16.810  0.00  0.00    +0.000 OA
ATOM     27  C   UNL     1       7.720   7.972  17.505  0.00  0.00    +0.000 C 
ENDBRANCH  23  26
ENDBRANCH  17  20
ENDBRANCH  16  17
BRANCH  16  29
ATOM     28  C   UNL     1       2.006   3.497  21.661  0.00  0.00    +0.000 C 
ATOM     29  C   UNL     1       1.360   3.441  20.287  0.00  0.00    +0.000 C 
ENDBRANCH  16  29
ENDBRANCH   1  16
TORSDOF 9
ENDMDL
MODEL 8
REMARK VINA RESULT:      -6.8      1.636      2.019
REMARK  Name = 
REMARK  12 active torsions:
REMARK  status: ('A' for Active; 'I' for Inactive)
REMARK    1  A    between atoms: C_1  and  C_2
REMARK    2  A    between atoms: C_2  and  N_3
REMARK    3  A    between atoms: N_3  and  C_4
REMARK    4  A    between atoms: N_3  and  S_18
REMARK    5  A    between atoms: C_4  and  C_5
REMARK    6  A    between atoms: N_7  and  C_8
REMARK    7  A    between atoms: C_13  and  C_14
REMARK    8  A    between atoms: C_14  and  O_16
REMARK    9  A    between atoms: O_16  and  C_17
REMARK   10  A    between atoms: S_18  and  C_21
REMARK   11  A    between atoms: C_24  and  O_25
REMARK   12  A    between atoms: O_25  and  C_26
REMARK                            x       y       z     vdW  Elec       q    Type
REMARK                         _______ _______ _______ _____ _____    ______ ____
ROOT
ATOM      1  C   UNL     1       2.528   5.525  19.776  0.00  0.00    +0.000 C 
ENDROOT
BRANCH   1   2
ATOM      2  C   UNL     1       2.469   6.947  19.237  0.00  0.00    +0.000 C 
ATOM      3  O   UNL     1       3.148   7.277  18.261  0.00  0.00    +0.000 OA
ATOM      4  N   UNL     1       1.681   7.820  19.975  0.00  0.00    +0.000 N 
ATOM      5  H   UNL     1       1.650   7.652  20.981  0.00  0.00    +0.000 HD
BRANCH   4   6
ATOM      6  C   UNL     1       1.450   9.160  19.561  0.00  0.00    +0.000 A 
ATOM      7  C   UNL     1       2.031   9.616  18.367  0.00  0.00    +0.000 A 
ATOM      8  C   UNL     1       1.838  10.927  17.926  0.00  0.00    +0.000 A 
ATOM      9  C   UNL     1       1.073  11.807  18.681  0.00  0.00    +0.000 A 
ATOM     10  C   UNL     1       0.475  11.367  19.862  0.00  0.00    +0.000 A 
ATOM     11  C   UNL     1       0.637  10.038  20.304  0.00  0.00    +0.000 A 
BRANCH  11  12
ATOM     12  C   UNL     1       0.010   9.594  21.584  0.00  0.00    +0.000 C 
ATOM     13  O   UNL     1      -0.503   8.497  21.749  0.00  0.00    +0.000 OA
BRANCH  12  14
ATOM     14  O   UNL     1       0.098  10.579  22.513  0.00  0.00    +0.000 OA
ATOM     15  C   UNL     1      -1.128  10.978  23.128  0.00  0.00    +0.000 C 
ENDBRANCH  12  14
ENDBRANCH  11  12
ENDBRANCH   4   6
ENDBRANCH   1   2
BRANCH   1  16
ATOM     16  N   UNL     1       3.142   4.498  18.872  0.00  0.00    +0.000 NA
BRANCH  16  17
ATOM     17  S   UNL     1       4.840   4.278  19.178  0.00  0.00    +0.000 S 
ATOM     18  O   UNL     1       5.350   5.398  19.935  0.00  0.00    +0.000 OA
ATOM     19  O   UNL     1       5.025   2.914  19.618  0.00  0.00    +0.000 OA
BRANCH  17  20
ATOM     20  C   UNL     1       5.548   4.452  17.561  0.00  0.00    +0.000 A 
ATOM     21  C   UNL     1       4.690   4.650  16.477  0.00  0.00    +0.000 A 
ATOM     22  C   UNL     1       5.228   4.843  15.207  0.00  0.00    +0.000 A 
ATOM     23  C   UNL     1       6.613   4.864  15.022  0.00  0.00    +0.000 A 
ATOM     24  C   UNL     1       7.464   4.653  16.111  0.00  0.00    +0.000 A 
ATOM     25  C   UNL     1       6.935   4.449  17.385  0.00  0.00    +0.000 A 
BRANCH  23  26
ATOM     26  O   UNL     1       7.022   5.062  13.731  0.00  0.00    +0.000 OA
ATOM     27  C   UNL     1       6.678   4.027  12.816  0.00  0.00    +0.000 C 
ENDBRANCH  23  26
ENDBRANCH  17  20
ENDBRANCH  16  17
BRANCH  16  29
ATOM     28  C   UNL     1       1.336   3.148  20.002  0.00  0.00    +0.000 C 
ATOM     29  C   UNL     1       2.405   3.187  18.923  0.00  0.00    +0.000 C 
ENDBRANCH  16  29
ENDBRANCH   1  16
TORSDOF 9
ENDMDL
MODEL 9
REMARK VINA RESULT:      -6.7      3.599      8.159
REMARK  Name = 
REMARK  12 active torsions:
REMARK  status: ('A' for Active; 'I' for Inactive)
REMARK    1  A    between atoms: C_1  and  C_2
REMARK    2  A    between atoms: C_2  and  N_3
REMARK    3  A    between atoms: N_3  and  C_4
REMARK    4  A    between atoms: N_3  and  S_18
REMARK    5  A    between atoms: C_4  and  C_5
REMARK    6  A    between atoms: N_7  and  C_8
REMARK    7  A    between atoms: C_13  and  C_14
REMARK    8  A    between atoms: C_14  and  O_16
REMARK    9  A    between atoms: O_16  and  C_17
REMARK   10  A    between atoms: S_18  and  C_21
REMARK   11  A    between atoms: C_24  and  O_25
REMARK   12  A    between atoms: O_25  and  C_26
REMARK                            x       y       z     vdW  Elec       q    Type
REMARK                         _______ _______ _______ _____ _____    ______ ____
ROOT
ATOM      1  C   UNL     1       1.524   8.973  19.392  0.00  0.00    +0.000 C 
ENDROOT
BRANCH   1   2
ATOM      2  C   UNL     1       2.319   8.262  18.307  0.00  0.00    +0.000 C 
ATOM      3  O   UNL     1       2.390   8.735  17.169  0.00  0.00    +0.000 OA
ATOM      4  N   UNL     1       2.856   7.038  18.682  0.00  0.00    +0.000 N 
ATOM      5  H   UNL     1       2.311   6.498  19.354  0.00  0.00    +0.000 HD
BRANCH   4   6
ATOM      6  C   UNL     1       3.697   6.287  17.816  0.00  0.00    +0.000 A 
ATOM      7  C   UNL     1       4.850   6.891  17.289  0.00  0.00    +0.000 A 
ATOM      8  C   UNL     1       5.699   6.194  16.428  0.00  0.00    +0.000 A 
ATOM      9  C   UNL     1       5.401   4.886  16.067  0.00  0.00    +0.000 A 
ATOM     10  C   UNL     1       4.268   4.265  16.594  0.00  0.00    +0.000 A 
ATOM     11  C   UNL     1       3.417   4.947  17.487  0.00  0.00    +0.000 A 
BRANCH  11  12
ATOM     12  C   UNL     1       2.196   4.271  18.019  0.00  0.00    +0.000 C 
ATOM     13  O   UNL     1       1.085   4.380  17.521  0.00  0.00    +0.000 OA
BRANCH  12  14
ATOM     14  O   UNL     1       2.509   3.537  19.116  0.00  0.00    +0.000 OA
ATOM     15  C   UNL     1       1.978   4.001  20.358  0.00  0.00    +0.000 C 
ENDBRANCH  12  14
ENDBRANCH  11  12
ENDBRANCH   4   6
ENDBRANCH   1   2
BRANCH   1  16
ATOM     16  N   UNL     1       0.997  10.334  19.045  0.00  0.00    +0.000 NA
BRANCH  16  17
ATOM     17  S   UNL     1      -0.540  10.658  19.792  0.00  0.00    +0.000 S 
ATOM     18  O   UNL     1      -0.916   9.551  20.641  0.00  0.00    +0.000 OA
ATOM     19  O   UNL     1      -0.501  12.016  20.285  0.00  0.00    +0.000 OA
BRANCH  17  20
ATOM     20  C   UNL     1      -1.658  10.588  18.417  0.00  0.00    +0.000 A 
ATOM     21  C   UNL     1      -2.778  11.421  18.426  0.00  0.00    +0.000 A 
ATOM     22  C   UNL     1      -3.638  11.421  17.332  0.00  0.00    +0.000 A 
ATOM     23  C   UNL     1      -3.371  10.614  16.222  0.00  0.00    +0.000 A 
ATOM     24  C   UNL     1      -2.254   9.773  16.226  0.00  0.00    +0.000 A 
ATOM     25  C   UNL     1      -1.391   9.759  17.322  0.00  0.00    +0.000 A 
BRANCH  23  26
ATOM     26  O   UNL     1      -4.287  10.700  15.210  0.00  0.00    +0.000 OA
ATOM     27  C   UNL     1      -3.910  10.073  13.989  0.00  0.00    +0.000 C 
ENDBRANCH  23  26
ENDBRANCH  17  20
ENDBRANCH  16  17
BRANCH  16  29
ATOM     28  C   UNL     1       2.340  12.266  18.140  0.00  0.00    +0.000 C 
ATOM     29  C   UNL     1       1.992  11.420  19.352  0.00  0.00    +0.000 C 
ENDBRANCH  16  29
ENDBRANCH   1  16
TORSDOF 9
ENDMDL
