MODEL 1
REMARK VINA RESULT:      -8.3      0.000      0.000
REMARK  Name = 
REMARK  7 active torsions:
REMARK  status: ('A' for Active; 'I' for Inactive)
REMARK    1  A    between atoms: O_1  and  C_2
REMARK    2  A    between atoms: C_5  and  N_6
REMARK    3  A    between atoms: N_6  and  C_7
REMARK    4  A    between atoms: C_9  and  C_10
REMARK    5  A    between atoms: C_12  and  O_13
REMARK    6  A    between atoms: C_14  and  O_15
REMARK    7  A    between atoms: C_16  and  O_17
REMARK                            x       y       z     vdW  Elec       q    Type
REMARK                         _______ _______ _______ _____ _____    ______ ____
ROOT
ATOM      1  C   UNL     1       0.606   9.778  18.882  0.00  0.00    +0.000 A 
ATOM      2  N   UNL     1       1.365   8.876  18.238  0.00  0.00    +0.000 NA
ATOM      3  C   UNL     1       1.970   7.932  18.966  0.00  0.00    +0.000 A 
ATOM      4  N   UNL     1       1.876   7.830  20.300  0.00  0.00    +0.000 NA
ATOM      5  C   UNL     1       1.112   8.722  20.934  0.00  0.00    +0.000 A 
ATOM      6  C   UNL     1       1.038   8.661  22.319  0.00  0.00    +0.000 A 
ATOM      7  C   UNL     1       0.266   9.560  23.058  0.00  0.00    +0.000 A 
ATOM      8  C   UNL     1      -0.463  10.543  22.403  0.00  0.00    +0.000 A 
ATOM      9  C   UNL     1      -0.396  10.634  21.014  0.00  0.00    +0.000 A 
ATOM     10  C   UNL     1       0.401   9.729  20.268  0.00  0.00    +0.000 A 
ENDROOT
BRANCH   3  11
ATOM     11  C   UNL     1       2.806   6.959  18.239  0.00  0.00    +0.000 A 
ATOM     12  C   UNL     1       3.944   7.381  17.508  0.00  0.00    +0.000 A 
ATOM     13  C   UNL     1       4.738   6.461  16.830  0.00  0.00    +0.000 A 
ATOM     14  C   UNL     1       4.421   5.111  16.862  0.00  0.00    +0.000 A 
ATOM     15  C   UNL     1       3.310   4.675  17.568  0.00  0.00    +0.000 A 
ATOM     16  C   UNL     1       2.506   5.582  18.250  0.00  0.00    +0.000 A 
BRANCH  13  17
ATOM     17  O   UNL     1       5.842   6.843  16.120  0.00  0.00    +0.000 OA
ATOM     18  H   UNL     1       5.985   7.794  16.274  0.00  0.00    +0.000 HD
ENDBRANCH  13  17
BRANCH  14  19
ATOM     19  O   UNL     1       5.195   4.196  16.205  0.00  0.00    +0.000 OA
ATOM     20  H   UNL     1       5.392   4.626  15.346  0.00  0.00    +0.000 HD
ENDBRANCH  14  19
BRANCH  15  21
ATOM     21  O   UNL     1       2.997   3.348  17.600  0.00  0.00    +0.000 OA
ATOM     22  H   UNL     1       2.308   3.273  18.289  0.00  0.00    +0.000 HD
ENDBRANCH  15  21
ENDBRANCH   3  11
BRANCH   1  23
ATOM     23  N   UNL     1       0.018  10.808  18.107  0.00  0.00    +0.000 N 
ATOM     24  H   UNL     1       0.436  11.700  18.346  0.00  0.00    +0.000 HD
BRANCH  23  28
ATOM     25  C   UNL     1      -4.110  10.945  17.247  0.00  0.00    +0.000 A 
ATOM     26  C   UNL     1      -3.315   9.965  16.664  0.00  0.00    +0.000 A 
ATOM     27  C   UNL     1      -1.941   9.932  16.939  0.00  0.00    +0.000 A 
ATOM     28  C   UNL     1      -1.354  10.890  17.775  0.00  0.00    +0.000 A 
ATOM     29  C   UNL     1      -2.191  11.851  18.368  0.00  0.00    +0.000 A 
ATOM     30  C   UNL     1      -3.559  11.888  18.099  0.00  0.00    +0.000 A 
BRANCH  25  31
ATOM     31  O   UNL     1      -5.452  11.010  17.015  0.00  0.00    +0.000 OA
ATOM     32  H   UNL     1      -5.707  10.262  16.452  0.00  0.00    +0.000 HD
ENDBRANCH  25  31
ENDBRANCH  23  28
ENDBRANCH   1  23
TORSDOF 7
ENDMDL
MODEL 2
REMARK VINA RESULT:      -8.3      0.031      1.590
REMARK  Name = 
REMARK  7 active torsions:
REMARK  status: ('A' for Active; 'I' for Inactive)
REMARK    1  A    between atoms: O_1  and  C_2
REMARK    2  A    between atoms: C_5  and  N_6
REMARK    3  A    between atoms: N_6  and  C_7
REMARK    4  A    between atoms: C_9  and  C_10
REMARK    5  A    between atoms: C_12  and  O_13
REMARK    6  A    between atoms: C_14  and  O_15
REMARK    7  A    between atoms: C_16  and  O_17
REMARK                            x       y       z     vdW  Elec       q    Type
REMARK                         _______ _______ _______ _____ _____    ______ ____
ROOT
ATOM      1  C   UNL     1       0.624   9.776  18.890  0.00  0.00    +0.000 A 
ATOM      2  N   UNL     1       1.380   8.871  18.249  0.00  0.00    +0.000 NA
ATOM      3  C   UNL     1       1.982   7.926  18.979  0.00  0.00    +0.000 A 
ATOM      4  N   UNL     1       1.890   7.829  20.313  0.00  0.00    +0.000 NA
ATOM      5  C   UNL     1       1.129   8.725  20.945  0.00  0.00    +0.000 A 
ATOM      6  C   UNL     1       1.056   8.668  22.331  0.00  0.00    +0.000 A 
ATOM      7  C   UNL     1       0.287   9.572  23.068  0.00  0.00    +0.000 A 
ATOM      8  C   UNL     1      -0.439  10.555  22.411  0.00  0.00    +0.000 A 
ATOM      9  C   UNL     1      -0.373  10.642  21.021  0.00  0.00    +0.000 A 
ATOM     10  C   UNL     1       0.421   9.733  20.277  0.00  0.00    +0.000 A 
ENDROOT
BRANCH   3  11
ATOM     11  C   UNL     1       2.815   6.949  18.254  0.00  0.00    +0.000 A 
ATOM     12  C   UNL     1       2.505   5.567  18.281  0.00  0.00    +0.000 A 
ATOM     13  C   UNL     1       3.286   4.647  17.589  0.00  0.00    +0.000 A 
ATOM     14  C   UNL     1       4.384   5.076  16.860  0.00  0.00    +0.000 A 
ATOM     15  C   UNL     1       4.710   6.423  16.821  0.00  0.00    +0.000 A 
ATOM     16  C   UNL     1       3.940   7.355  17.509  0.00  0.00    +0.000 A 
BRANCH  13  17
ATOM     17  O   UNL     1       3.006   3.309  17.597  0.00  0.00    +0.000 OA
ATOM     18  H   UNL     1       3.163   2.962  16.701  0.00  0.00    +0.000 HD
ENDBRANCH  13  17
BRANCH  14  19
ATOM     19  O   UNL     1       5.157   4.183  16.170  0.00  0.00    +0.000 OA
ATOM     20  H   UNL     1       4.720   3.320  16.330  0.00  0.00    +0.000 HD
ENDBRANCH  14  19
BRANCH  15  21
ATOM     21  O   UNL     1       5.791   6.846  16.105  0.00  0.00    +0.000 OA
ATOM     22  H   UNL     1       6.515   6.246  16.373  0.00  0.00    +0.000 HD
ENDBRANCH  15  21
ENDBRANCH   3  11
BRANCH   1  23
ATOM     23  N   UNL     1       0.039  10.807  18.114  0.00  0.00    +0.000 N 
ATOM     24  H   UNL     1       0.456  11.699  18.353  0.00  0.00    +0.000 HD
BRANCH  23  28
ATOM     25  C   UNL     1      -4.086  10.942  17.239  0.00  0.00    +0.000 A 
ATOM     26  C   UNL     1      -3.286   9.968  16.650  0.00  0.00    +0.000 A 
ATOM     27  C   UNL     1      -1.913   9.936  16.930  0.00  0.00    +0.000 A 
ATOM     28  C   UNL     1      -1.332  10.888  17.777  0.00  0.00    +0.000 A 
ATOM     29  C   UNL     1      -2.173  11.843  18.375  0.00  0.00    +0.000 A 
ATOM     30  C   UNL     1      -3.540  11.879  18.101  0.00  0.00    +0.000 A 
BRANCH  25  31
ATOM     31  O   UNL     1      -5.427  11.006  17.002  0.00  0.00    +0.000 OA
ATOM     32  H   UNL     1      -5.570  11.094  16.046  0.00  0.00    +0.000 HD
ENDBRANCH  25  31
ENDBRANCH  23  28
ENDBRANCH   1  23
TORSDOF 7
ENDMDL
MODEL 3
REMARK VINA RESULT:      -8.3      3.299      8.147
REMARK  Name = 
REMARK  7 active torsions:
REMARK  status: ('A' for Active; 'I' for Inactive)
REMARK    1  A    between atoms: O_1  and  C_2
REMARK    2  A    between atoms: C_5  and  N_6
REMARK    3  A    between atoms: N_6  and  C_7
REMARK    4  A    between atoms: C_9  and  C_10
REMARK    5  A    between atoms: C_12  and  O_13
REMARK    6  A    between atoms: C_14  and  O_15
REMARK    7  A    between atoms: C_16  and  O_17
REMARK                            x       y       z     vdW  Elec       q    Type
REMARK                         _______ _______ _______ _____ _____    ______ ____
ROOT
ATOM      1  C   UNL     1       3.927   5.394  19.387  0.00  0.00    +0.000 A 
ATOM      2  N   UNL     1       3.430   6.613  19.652  0.00  0.00    +0.000 NA
ATOM      3  C   UNL     1       2.135   6.706  19.974  0.00  0.00    +0.000 A 
ATOM      4  N   UNL     1       1.296   5.663  20.041  0.00  0.00    +0.000 NA
ATOM      5  C   UNL     1       1.797   4.451  19.787  0.00  0.00    +0.000 A 
ATOM      6  C   UNL     1       0.934   3.364  19.806  0.00  0.00    +0.000 A 
ATOM      7  C   UNL     1       1.377   2.065  19.545  0.00  0.00    +0.000 A 
ATOM      8  C   UNL     1       2.717   1.837  19.266  0.00  0.00    +0.000 A 
ATOM      9  C   UNL     1       3.602   2.913  19.228  0.00  0.00    +0.000 A 
ATOM     10  C   UNL     1       3.146   4.232  19.478  0.00  0.00    +0.000 A 
ENDROOT
BRANCH   3  11
ATOM     11  C   UNL     1       1.610   8.056  20.252  0.00  0.00    +0.000 A 
ATOM     12  C   UNL     1       1.426   8.994  19.207  0.00  0.00    +0.000 A 
ATOM     13  C   UNL     1       0.922  10.264  19.469  0.00  0.00    +0.000 A 
ATOM     14  C   UNL     1       0.592  10.628  20.766  0.00  0.00    +0.000 A 
ATOM     15  C   UNL     1       0.767   9.728  21.806  0.00  0.00    +0.000 A 
ATOM     16  C   UNL     1       1.271   8.455  21.561  0.00  0.00    +0.000 A 
BRANCH  13  17
ATOM     17  O   UNL     1       0.733  11.186  18.477  0.00  0.00    +0.000 OA
ATOM     18  H   UNL     1       1.509  11.775  18.461  0.00  0.00    +0.000 HD
ENDBRANCH  13  17
BRANCH  14  19
ATOM     19  O   UNL     1       0.091  11.870  21.037  0.00  0.00    +0.000 OA
ATOM     20  H   UNL     1       0.748  12.261  21.651  0.00  0.00    +0.000 HD
ENDBRANCH  14  19
BRANCH  15  21
ATOM     21  O   UNL     1       0.444  10.085  23.082  0.00  0.00    +0.000 OA
ATOM     22  H   UNL     1      -0.231  10.785  22.979  0.00  0.00    +0.000 HD
ENDBRANCH  15  21
ENDBRANCH   3  11
BRANCH   1  23
ATOM     23  N   UNL     1       5.284   5.314  18.989  0.00  0.00    +0.000 N 
ATOM     24  H   UNL     1       5.849   5.929  19.564  0.00  0.00    +0.000 HD
BRANCH  23  28
ATOM     25  C   UNL     1       6.692   5.156  15.015  0.00  0.00    +0.000 A 
ATOM     26  C   UNL     1       5.444   5.707  15.285  0.00  0.00    +0.000 A 
ATOM     27  C   UNL     1       4.972   5.743  16.604  0.00  0.00    +0.000 A 
ATOM     28  C   UNL     1       5.732   5.208  17.652  0.00  0.00    +0.000 A 
ATOM     29  C   UNL     1       6.999   4.682  17.349  0.00  0.00    +0.000 A 
ATOM     30  C   UNL     1       7.475   4.644  16.037  0.00  0.00    +0.000 A 
BRANCH  25  31
ATOM     31  O   UNL     1       7.195   5.107  13.749  0.00  0.00    +0.000 OA
ATOM     32  H   UNL     1       8.116   5.411  13.769  0.00  0.00    +0.000 HD
ENDBRANCH  25  31
ENDBRANCH  23  28
ENDBRANCH   1  23
TORSDOF 7
ENDMDL
MODEL 4
REMARK VINA RESULT:      -8.3      3.284      8.226
REMARK  Name = 
REMARK  7 active torsions:
REMARK  status: ('A' for Active; 'I' for Inactive)
REMARK    1  A    between atoms: O_1  and  C_2
REMARK    2  A    between atoms: C_5  and  N_6
REMARK    3  A    between atoms: N_6  and  C_7
REMARK    4  A    between atoms: C_9  and  C_10
REMARK    5  A    between atoms: C_12  and  O_13
REMARK    6  A    between atoms: C_14  and  O_15
REMARK    7  A    between atoms: C_16  and  O_17
REMARK                            x       y       z     vdW  Elec       q    Type
REMARK                         _______ _______ _______ _____ _____    ______ ____
ROOT
ATOM      1  C   UNL     1       4.004   5.444  19.312  0.00  0.00    +0.000 A 
ATOM      2  N   UNL     1       3.480   6.649  19.587  0.00  0.00    +0.000 NA
ATOM      3  C   UNL     1       2.185   6.711  19.915  0.00  0.00    +0.000 A 
ATOM      4  N   UNL     1       1.370   5.648  19.977  0.00  0.00    +0.000 NA
ATOM      5  C   UNL     1       1.898   4.450  19.712  0.00  0.00    +0.000 A 
ATOM      6  C   UNL     1       1.060   3.343  19.727  0.00  0.00    +0.000 A 
ATOM      7  C   UNL     1       1.532   2.056  19.456  0.00  0.00    +0.000 A 
ATOM      8  C   UNL     1       2.877   1.861  19.171  0.00  0.00    +0.000 A 
ATOM      9  C   UNL     1       3.736   2.958  19.138  0.00  0.00    +0.000 A 
ATOM     10  C   UNL     1       3.251   4.264  19.398  0.00  0.00    +0.000 A 
ENDROOT
BRANCH   3  11
ATOM     11  C   UNL     1       1.630   8.046  20.203  0.00  0.00    +0.000 A 
ATOM     12  C   UNL     1       1.294   8.424  21.526  0.00  0.00    +0.000 A 
ATOM     13  C   UNL     1       0.779   9.687  21.799  0.00  0.00    +0.000 A 
ATOM     14  C   UNL     1       0.587  10.597  20.770  0.00  0.00    +0.000 A 
ATOM     15  C   UNL     1       0.905  10.248  19.466  0.00  0.00    +0.000 A 
ATOM     16  C   UNL     1       1.419   8.989  19.177  0.00  0.00    +0.000 A 
BRANCH  13  17
ATOM     17  O   UNL     1       0.450  10.076  23.068  0.00  0.00    +0.000 OA
ATOM     18  H   UNL     1       0.810   9.416  23.688  0.00  0.00    +0.000 HD
ENDBRANCH  13  17
BRANCH  14  19
ATOM     19  O   UNL     1       0.088  11.843  21.024  0.00  0.00    +0.000 OA
ATOM     20  H   UNL     1      -0.611  11.686  21.694  0.00  0.00    +0.000 HD
ENDBRANCH  14  19
BRANCH  15  21
ATOM     21  O   UNL     1       0.716  11.142  18.454  0.00  0.00    +0.000 OA
ATOM     22  H   UNL     1       1.617  11.437  18.213  0.00  0.00    +0.000 HD
ENDBRANCH  15  21
ENDBRANCH   3  11
BRANCH   1  23
ATOM     23  N   UNL     1       5.362   5.398  18.910  0.00  0.00    +0.000 N 
ATOM     24  H   UNL     1       5.911   6.035  19.475  0.00  0.00    +0.000 HD
BRANCH  23  28
ATOM     25  C   UNL     1       6.610   4.925  14.908  0.00  0.00    +0.000 A 
ATOM     26  C   UNL     1       7.392   4.419  15.940  0.00  0.00    +0.000 A 
ATOM     27  C   UNL     1       6.984   4.593  17.270  0.00  0.00    +0.000 A 
ATOM     28  C   UNL     1       5.807   5.290  17.572  0.00  0.00    +0.000 A 
ATOM     29  C   UNL     1       5.027   5.766  16.505  0.00  0.00    +0.000 A 
ATOM     30  C   UNL     1       5.428   5.595  15.180  0.00  0.00    +0.000 A 
BRANCH  25  31
ATOM     31  O   UNL     1       6.964   4.773  13.600  0.00  0.00    +0.000 OA
ATOM     32  H   UNL     1       6.487   4.009  13.236  0.00  0.00    +0.000 HD
ENDBRANCH  25  31
ENDBRANCH  23  28
ENDBRANCH   1  23
TORSDOF 7
ENDMDL
MODEL 5
REMARK VINA RESULT:      -8.3      3.001      5.309
REMARK  Name = 
REMARK  7 active torsions:
REMARK  status: ('A' for Active; 'I' for Inactive)
REMARK    1  A    between atoms: O_1  and  C_2
REMARK    2  A    between atoms: C_5  and  N_6
REMARK    3  A    between atoms: N_6  and  C_7
REMARK    4  A    between atoms: C_9  and  C_10
REMARK    5  A    between atoms: C_12  and  O_13
REMARK    6  A    between atoms: C_14  and  O_15
REMARK    7  A    between atoms: C_16  and  O_17
REMARK                            x       y       z     vdW  Elec       q    Type
REMARK                         _______ _______ _______ _____ _____    ______ ____
ROOT
ATOM      1  C   UNL     1       2.844   5.659  19.449  0.00  0.00    +0.000 A 
ATOM      2  N   UNL     1       3.799   5.799  18.515  0.00  0.00    +0.000 NA
ATOM      3  C   UNL     1       4.156   4.716  17.816  0.00  0.00    +0.000 A 
ATOM      4  N   UNL     1       3.630   3.495  17.993  0.00  0.00    +0.000 NA
ATOM      5  C   UNL     1       2.675   3.363  18.915  0.00  0.00    +0.000 A 
ATOM      6  C   UNL     1       2.150   2.098  19.145  0.00  0.00    +0.000 A 
ATOM      7  C   UNL     1       1.151   1.874  20.096  0.00  0.00    +0.000 A 
ATOM      8  C   UNL     1       0.653   2.938  20.835  0.00  0.00    +0.000 A 
ATOM      9  C   UNL     1       1.171   4.216  20.633  0.00  0.00    +0.000 A 
ATOM     10  C   UNL     1       2.196   4.437  19.678  0.00  0.00    +0.000 A 
ENDROOT
BRANCH   3  11
ATOM     11  C   UNL     1       5.212   4.892  16.803  0.00  0.00    +0.000 A 
ATOM     12  C   UNL     1       5.252   4.077  15.644  0.00  0.00    +0.000 A 
ATOM     13  C   UNL     1       6.244   4.250  14.684  0.00  0.00    +0.000 A 
ATOM     14  C   UNL     1       7.212   5.229  14.852  0.00  0.00    +0.000 A 
ATOM     15  C   UNL     1       7.196   6.036  15.980  0.00  0.00    +0.000 A 
ATOM     16  C   UNL     1       6.212   5.874  16.949  0.00  0.00    +0.000 A 
BRANCH  13  17
ATOM     17  O   UNL     1       6.302   3.479  13.557  0.00  0.00    +0.000 OA
ATOM     18  H   UNL     1       7.144   3.669  13.105  0.00  0.00    +0.000 HD
ENDBRANCH  13  17
BRANCH  14  19
ATOM     19  O   UNL     1       8.189   5.414  13.914  0.00  0.00    +0.000 OA
ATOM     20  H   UNL     1       8.775   4.635  14.027  0.00  0.00    +0.000 HD
ENDBRANCH  14  19
BRANCH  15  21
ATOM     21  O   UNL     1       8.148   6.998  16.146  0.00  0.00    +0.000 OA
ATOM     22  H   UNL     1       8.495   7.161  15.247  0.00  0.00    +0.000 HD
ENDBRANCH  15  21
ENDBRANCH   3  11
BRANCH   1  23
ATOM     23  N   UNL     1       2.516   6.799  20.223  0.00  0.00    +0.000 N 
ATOM     24  H   UNL     1       2.195   6.512  21.141  0.00  0.00    +0.000 HD
BRANCH  23  28
ATOM     25  C   UNL     1       0.738  10.347  18.792  0.00  0.00    +0.000 A 
ATOM     26  C   UNL     1       0.552   9.966  20.117  0.00  0.00    +0.000 A 
ATOM     27  C   UNL     1       1.131   8.779  20.585  0.00  0.00    +0.000 A 
ATOM     28  C   UNL     1       1.874   7.957  19.728  0.00  0.00    +0.000 A 
ATOM     29  C   UNL     1       2.063   8.383  18.402  0.00  0.00    +0.000 A 
ATOM     30  C   UNL     1       1.490   9.565  17.931  0.00  0.00    +0.000 A 
BRANCH  25  31
ATOM     31  O   UNL     1       0.201  11.497  18.296  0.00  0.00    +0.000 OA
ATOM     32  H   UNL     1       0.839  11.899  17.684  0.00  0.00    +0.000 HD
ENDBRANCH  25  31
ENDBRANCH  23  28
ENDBRANCH   1  23
TORSDOF 7
ENDMDL
MODEL 6
REMARK VINA RESULT:      -8.2      2.985      5.147
REMARK  Name = 
REMARK  7 active torsions:
REMARK  status: ('A' for Active; 'I' for Inactive)
REMARK    1  A    between atoms: O_1  and  C_2
REMARK    2  A    between atoms: C_5  and  N_6
REMARK    3  A    between atoms: N_6  and  C_7
REMARK    4  A    between atoms: C_9  and  C_10
REMARK    5  A    between atoms: C_12  and  O_13
REMARK    6  A    between atoms: C_14  and  O_15
REMARK    7  A    between atoms: C_16  and  O_17
REMARK                            x       y       z     vdW  Elec       q    Type
REMARK                         _______ _______ _______ _____ _____    ______ ____
ROOT
ATOM      1  C   UNL     1       2.829   5.664  19.453  0.00  0.00    +0.000 A 
ATOM      2  N   UNL     1       3.784   5.807  18.519  0.00  0.00    +0.000 NA
ATOM      3  C   UNL     1       4.149   4.724  17.826  0.00  0.00    +0.000 A 
ATOM      4  N   UNL     1       3.633   3.500  18.007  0.00  0.00    +0.000 NA
ATOM      5  C   UNL     1       2.676   3.365  18.929  0.00  0.00    +0.000 A 
ATOM      6  C   UNL     1       2.160   2.097  19.163  0.00  0.00    +0.000 A 
ATOM      7  C   UNL     1       1.162   1.870  20.114  0.00  0.00    +0.000 A 
ATOM      8  C   UNL     1       0.655   2.934  20.848  0.00  0.00    +0.000 A 
ATOM      9  C   UNL     1       1.165   4.214  20.640  0.00  0.00    +0.000 A 
ATOM     10  C   UNL     1       2.188   4.439  19.686  0.00  0.00    +0.000 A 
ENDROOT
BRANCH   3  11
ATOM     11  C   UNL     1       5.206   4.903  16.813  0.00  0.00    +0.000 A 
ATOM     12  C   UNL     1       6.197   5.903  16.965  0.00  0.00    +0.000 A 
ATOM     13  C   UNL     1       7.199   6.065  16.013  0.00  0.00    +0.000 A 
ATOM     14  C   UNL     1       7.238   5.243  14.897  0.00  0.00    +0.000 A 
ATOM     15  C   UNL     1       6.276   4.260  14.725  0.00  0.00    +0.000 A 
ATOM     16  C   UNL     1       5.268   4.086  15.666  0.00  0.00    +0.000 A 
BRANCH  13  17
ATOM     17  O   UNL     1       8.169   7.021  16.139  0.00  0.00    +0.000 OA
ATOM     18  H   UNL     1       8.077   7.643  15.395  0.00  0.00    +0.000 HD
ENDBRANCH  13  17
BRANCH  14  19
ATOM     19  O   UNL     1       8.220   5.388  13.957  0.00  0.00    +0.000 OA
ATOM     20  H   UNL     1       9.041   5.137  14.432  0.00  0.00    +0.000 HD
ENDBRANCH  14  19
BRANCH  15  21
ATOM     21  O   UNL     1       6.313   3.451  13.627  0.00  0.00    +0.000 OA
ATOM     22  H   UNL     1       5.381   3.385  13.338  0.00  0.00    +0.000 HD
ENDBRANCH  15  21
ENDBRANCH   3  11
BRANCH   1  23
ATOM     23  N   UNL     1       2.491   6.806  20.222  0.00  0.00    +0.000 N 
ATOM     24  H   UNL     1       2.163   6.520  21.137  0.00  0.00    +0.000 HD
BRANCH  23  28
ATOM     25  C   UNL     1       0.714  10.345  18.768  0.00  0.00    +0.000 A 
ATOM     26  C   UNL     1       0.518   9.966  20.091  0.00  0.00    +0.000 A 
ATOM     27  C   UNL     1       1.096   8.781  20.567  0.00  0.00    +0.000 A 
ATOM     28  C   UNL     1       1.850   7.961  19.718  0.00  0.00    +0.000 A 
ATOM     29  C   UNL     1       2.049   8.385  18.393  0.00  0.00    +0.000 A 
ATOM     30  C   UNL     1       1.477   9.564  17.915  0.00  0.00    +0.000 A 
BRANCH  25  31
ATOM     31  O   UNL     1       0.179  11.493  18.264  0.00  0.00    +0.000 OA
ATOM     32  H   UNL     1       0.900  12.111  18.064  0.00  0.00    +0.000 HD
ENDBRANCH  25  31
ENDBRANCH  23  28
ENDBRANCH   1  23
TORSDOF 7
ENDMDL
MODEL 7
REMARK VINA RESULT:      -8.1      3.245      5.794
REMARK  Name = 
REMARK  7 active torsions:
REMARK  status: ('A' for Active; 'I' for Inactive)
REMARK    1  A    between atoms: O_1  and  C_2
REMARK    2  A    between atoms: C_5  and  N_6
REMARK    3  A    between atoms: N_6  and  C_7
REMARK    4  A    between atoms: C_9  and  C_10
REMARK    5  A    between atoms: C_12  and  O_13
REMARK    6  A    between atoms: C_14  and  O_15
REMARK    7  A    between atoms: C_16  and  O_17
REMARK                            x       y       z     vdW  Elec       q    Type
REMARK                         _______ _______ _______ _____ _____    ______ ____
ROOT
ATOM      1  C   UNL     1       3.468   5.515  18.281  0.00  0.00    +0.000 A 
ATOM      2  N   UNL     1       4.248   5.489  17.188  0.00  0.00    +0.000 NA
ATOM      3  C   UNL     1       4.286   4.360  16.471  0.00  0.00    +0.000 A 
ATOM      4  N   UNL     1       3.605   3.247  16.778  0.00  0.00    +0.000 NA
ATOM      5  C   UNL     1       2.823   3.281  17.859  0.00  0.00    +0.000 A 
ATOM      6  C   UNL     1       2.144   2.124  18.219  0.00  0.00    +0.000 A 
ATOM      7  C   UNL     1       1.311   2.075  19.340  0.00  0.00    +0.000 A 
ATOM      8  C   UNL     1       1.139   3.209  20.121  0.00  0.00    +0.000 A 
ATOM      9  C   UNL     1       1.819   4.380  19.789  0.00  0.00    +0.000 A 
ATOM     10  C   UNL     1       2.676   4.422  18.660  0.00  0.00    +0.000 A 
ENDROOT
BRANCH   3  11
ATOM     11  C   UNL     1       5.156   4.352  15.281  0.00  0.00    +0.000 A 
ATOM     12  C   UNL     1       4.788   3.637  14.115  0.00  0.00    +0.000 A 
ATOM     13  C   UNL     1       5.605   3.638  12.990  0.00  0.00    +0.000 A 
ATOM     14  C   UNL     1       6.799   4.343  12.997  0.00  0.00    +0.000 A 
ATOM     15  C   UNL     1       7.183   5.048  14.128  0.00  0.00    +0.000 A 
ATOM     16  C   UNL     1       6.378   5.056  15.262  0.00  0.00    +0.000 A 
BRANCH  13  17
ATOM     17  O   UNL     1       5.271   2.958  11.852  0.00  0.00    +0.000 OA
ATOM     18  H   UNL     1       5.701   2.084  11.885  0.00  0.00    +0.000 HD
ENDBRANCH  13  17
BRANCH  14  19
ATOM     19  O   UNL     1       7.609   4.357  11.896  0.00  0.00    +0.000 OA
ATOM     20  H   UNL     1       7.524   3.452  11.528  0.00  0.00    +0.000 HD
ENDBRANCH  14  19
BRANCH  15  21
ATOM     21  O   UNL     1       8.357   5.741  14.137  0.00  0.00    +0.000 OA
ATOM     22  H   UNL     1       8.270   6.365  14.885  0.00  0.00    +0.000 HD
ENDBRANCH  15  21
ENDBRANCH   3  11
BRANCH   1  23
ATOM     23  N   UNL     1       3.480   6.695  19.064  0.00  0.00    +0.000 N 
ATOM     24  H   UNL     1       3.835   6.490  19.991  0.00  0.00    +0.000 HD
BRANCH  23  28
ATOM     25  C   UNL     1       0.611   9.788  19.043  0.00  0.00    +0.000 A 
ATOM     26  C   UNL     1       0.859   9.083  20.216  0.00  0.00    +0.000 A 
ATOM     27  C   UNL     1       1.801   8.045  20.216  0.00  0.00    +0.000 A 
ATOM     28  C   UNL     1       2.479   7.693  19.042  0.00  0.00    +0.000 A 
ATOM     29  C   UNL     1       2.223   8.442  17.880  0.00  0.00    +0.000 A 
ATOM     30  C   UNL     1       1.287   9.476  17.875  0.00  0.00    +0.000 A 
BRANCH  25  31
ATOM     31  O   UNL     1      -0.290  10.810  18.998  0.00  0.00    +0.000 OA
ATOM     32  H   UNL     1      -0.256  11.216  18.117  0.00  0.00    +0.000 HD
ENDBRANCH  25  31
ENDBRANCH  23  28
ENDBRANCH   1  23
TORSDOF 7
ENDMDL
MODEL 8
REMARK VINA RESULT:      -8.0      3.240      5.639
REMARK  Name = 
REMARK  7 active torsions:
REMARK  status: ('A' for Active; 'I' for Inactive)
REMARK    1  A    between atoms: O_1  and  C_2
REMARK    2  A    between atoms: C_5  and  N_6
REMARK    3  A    between atoms: N_6  and  C_7
REMARK    4  A    between atoms: C_9  and  C_10
REMARK    5  A    between atoms: C_12  and  O_13
REMARK    6  A    between atoms: C_14  and  O_15
REMARK    7  A    between atoms: C_16  and  O_17
REMARK                            x       y       z     vdW  Elec       q    Type
REMARK                         _______ _______ _______ _____ _____    ______ ____
ROOT
ATOM      1  C   UNL     1       3.451   5.513  18.284  0.00  0.00    +0.000 A 
ATOM      2  N   UNL     1       4.227   5.493  17.188  0.00  0.00    +0.000 NA
ATOM      3  C   UNL     1       4.268   4.366  16.468  0.00  0.00    +0.000 A 
ATOM      4  N   UNL     1       3.592   3.249  16.774  0.00  0.00    +0.000 NA
ATOM      5  C   UNL     1       2.814   3.277  17.859  0.00  0.00    +0.000 A 
ATOM      6  C   UNL     1       2.141   2.117  18.218  0.00  0.00    +0.000 A 
ATOM      7  C   UNL     1       1.312   2.061  19.342  0.00  0.00    +0.000 A 
ATOM      8  C   UNL     1       1.139   3.192  20.127  0.00  0.00    +0.000 A 
ATOM      9  C   UNL     1       1.813   4.366  19.795  0.00  0.00    +0.000 A 
ATOM     10  C   UNL     1       2.665   4.415  18.663  0.00  0.00    +0.000 A 
ENDROOT
BRANCH   3  11
ATOM     11  C   UNL     1       5.133   4.365  15.275  0.00  0.00    +0.000 A 
ATOM     12  C   UNL     1       6.358   5.076  15.264  0.00  0.00    +0.000 A 
ATOM     13  C   UNL     1       7.179   5.067  14.140  0.00  0.00    +0.000 A 
ATOM     14  C   UNL     1       6.803   4.356  13.010  0.00  0.00    +0.000 A 
ATOM     15  C   UNL     1       5.607   3.655  12.996  0.00  0.00    +0.000 A 
ATOM     16  C   UNL     1       4.775   3.656  14.111  0.00  0.00    +0.000 A 
BRANCH  13  17
ATOM     17  O   UNL     1       8.367   5.743  14.106  0.00  0.00    +0.000 OA
ATOM     18  H   UNL     1       9.075   5.120  14.350  0.00  0.00    +0.000 HD
ENDBRANCH  13  17
BRANCH  14  19
ATOM     19  O   UNL     1       7.602   4.334  11.902  0.00  0.00    +0.000 OA
ATOM     20  H   UNL     1       7.514   5.236  11.528  0.00  0.00    +0.000 HD
ENDBRANCH  14  19
BRANCH  15  21
ATOM     21  O   UNL     1       5.236   2.957  11.885  0.00  0.00    +0.000 OA
ATOM     22  H   UNL     1       4.869   2.120  12.231  0.00  0.00    +0.000 HD
ENDBRANCH  15  21
ENDBRANCH   3  11
BRANCH   1  23
ATOM     23  N   UNL     1       3.462   6.691  19.071  0.00  0.00    +0.000 N 
ATOM     24  H   UNL     1       3.810   6.482  20.000  0.00  0.00    +0.000 HD
BRANCH  23  28
ATOM     25  C   UNL     1       0.602   9.792  19.038  0.00  0.00    +0.000 A 
ATOM     26  C   UNL     1       0.845   9.089  20.212  0.00  0.00    +0.000 A 
ATOM     27  C   UNL     1       1.784   8.048  20.216  0.00  0.00    +0.000 A 
ATOM     28  C   UNL     1       2.464   7.692  19.044  0.00  0.00    +0.000 A 
ATOM     29  C   UNL     1       2.213   8.439  17.881  0.00  0.00    +0.000 A 
ATOM     30  C   UNL     1       1.281   9.477  17.872  0.00  0.00    +0.000 A 
BRANCH  25  31
ATOM     31  O   UNL     1      -0.296  10.817  18.989  0.00  0.00    +0.000 OA
ATOM     32  H   UNL     1      -0.066  11.464  19.676  0.00  0.00    +0.000 HD
ENDBRANCH  25  31
ENDBRANCH  23  28
ENDBRANCH   1  23
TORSDOF 7
ENDMDL
MODEL 9
REMARK VINA RESULT:      -8.0      3.306      8.320
REMARK  Name = 
REMARK  7 active torsions:
REMARK  status: ('A' for Active; 'I' for Inactive)
REMARK    1  A    between atoms: O_1  and  C_2
REMARK    2  A    between atoms: C_5  and  N_6
REMARK    3  A    between atoms: N_6  and  C_7
REMARK    4  A    between atoms: C_9  and  C_10
REMARK    5  A    between atoms: C_12  and  O_13
REMARK    6  A    between atoms: C_14  and  O_15
REMARK    7  A    between atoms: C_16  and  O_17
REMARK                            x       y       z     vdW  Elec       q    Type
REMARK                         _______ _______ _______ _____ _____    ______ ____
ROOT
ATOM      1  C   UNL     1       2.825   6.145  18.706  0.00  0.00    +0.000 A 
ATOM      2  N   UNL     1       2.389   7.309  19.216  0.00  0.00    +0.000 NA
ATOM      3  C   UNL     1       1.527   7.263  20.237  0.00  0.00    +0.000 A 
ATOM      4  N   UNL     1       1.061   6.129  20.782  0.00  0.00    +0.000 NA
ATOM      5  C   UNL     1       1.505   4.975  20.279  0.00  0.00    +0.000 A 
ATOM      6  C   UNL     1       1.000   3.791  20.799  0.00  0.00    +0.000 A 
ATOM      7  C   UNL     1       1.409   2.542  20.325  0.00  0.00    +0.000 A 
ATOM      8  C   UNL     1       2.353   2.466  19.310  0.00  0.00    +0.000 A 
ATOM      9  C   UNL     1       2.867   3.640  18.762  0.00  0.00    +0.000 A 
ATOM     10  C   UNL     1       2.438   4.906  19.235  0.00  0.00    +0.000 A 
ENDROOT
BRANCH   3  11
ATOM     11  C   UNL     1       1.056   8.552  20.774  0.00  0.00    +0.000 A 
ATOM     12  C   UNL     1       1.114   9.731  19.991  0.00  0.00    +0.000 A 
ATOM     13  C   UNL     1       0.660  10.946  20.495  0.00  0.00    +0.000 A 
ATOM     14  C   UNL     1       0.142  11.016  21.779  0.00  0.00    +0.000 A 
ATOM     15  C   UNL     1       0.077   9.876  22.566  0.00  0.00    +0.000 A 
ATOM     16  C   UNL     1       0.529   8.655  22.077  0.00  0.00    +0.000 A 
BRANCH  13  17
ATOM     17  O   UNL     1       0.703  12.096  19.758  0.00  0.00    +0.000 OA
ATOM     18  H   UNL     1      -0.027  12.070  19.115  0.00  0.00    +0.000 HD
ENDBRANCH  13  17
BRANCH  14  19
ATOM     19  O   UNL     1      -0.314  12.201  22.285  0.00  0.00    +0.000 OA
ATOM     20  H   UNL     1      -1.171  12.339  21.829  0.00  0.00    +0.000 HD
ENDBRANCH  14  19
BRANCH  15  21
ATOM     21  O   UNL     1      -0.432   9.944  23.830  0.00  0.00    +0.000 OA
ATOM     22  H   UNL     1       0.337   9.789  24.414  0.00  0.00    +0.000 HD
ENDBRANCH  15  21
ENDBRANCH   3  11
BRANCH   1  23
ATOM     23  N   UNL     1       3.691   6.206  17.586  0.00  0.00    +0.000 N 
ATOM     24  H   UNL     1       3.168   6.027  16.736  0.00  0.00    +0.000 HD
BRANCH  23  28
ATOM     25  C   UNL     1       7.588   4.591  17.582  0.00  0.00    +0.000 A 
ATOM     26  C   UNL     1       7.151   5.340  18.669  0.00  0.00    +0.000 A 
ATOM     27  C   UNL     1       5.862   5.889  18.661  0.00  0.00    +0.000 A 
ATOM     28  C   UNL     1       5.015   5.713  17.559  0.00  0.00    +0.000 A 
ATOM     29  C   UNL     1       5.478   4.930  16.487  0.00  0.00    +0.000 A 
ATOM     30  C   UNL     1       6.761   4.380  16.491  0.00  0.00    +0.000 A 
BRANCH  25  31
ATOM     31  O   UNL     1       8.831   4.032  17.551  0.00  0.00    +0.000 OA
ATOM     32  H   UNL     1       9.380   4.457  18.229  0.00  0.00    +0.000 HD
ENDBRANCH  25  31
ENDBRANCH  23  28
ENDBRANCH   1  23
TORSDOF 7
ENDMDL
