MODEL 1
REMARK VINA RESULT:      -9.1      0.000      0.000
REMARK  Name = 
REMARK  4 active torsions:
REMARK  status: ('A' for Active; 'I' for Inactive)
REMARK    1  A    between atoms: C_3  and  C_4
REMARK    2  A    between atoms: N_21  and  O_22
REMARK    3  A    between atoms: O_22  and  C_23
REMARK    4  A    between atoms: C_23  and  C_24
REMARK                            x       y       z     vdW  Elec       q    Type
REMARK                         _______ _______ _______ _____ _____    ______ ____
ROOT
ATOM      1  O   UNL     1       5.159   6.531  17.341  0.00  0.00    +0.000 OA
ATOM      2  C   UNL     1       4.312   5.710  17.618  0.00  0.00    +0.000 A 
ATOM      3  C   UNL     1       4.506   4.286  17.142  0.00  0.00    +0.000 A 
ATOM      4  N   UNL     1       3.933   3.312  17.795  0.00  0.00    +0.000 N 
ATOM      5  O   UNL     1       4.183   2.100  17.491  0.00  0.00    +0.000 OA
ATOM      6  C   UNL     1       2.987   3.590  18.861  0.00  0.00    +0.000 A 
ATOM      7  C   UNL     1       2.473   2.524  19.614  0.00  0.00    +0.000 A 
ATOM      8  C   UNL     1       1.525   2.770  20.603  0.00  0.00    +0.000 A 
ATOM      9  C   UNL     1       1.091   4.078  20.839  0.00  0.00    +0.000 A 
ATOM     10  C   UNL     1       1.615   5.139  20.095  0.00  0.00    +0.000 A 
ATOM     11  C   UNL     1       2.578   4.898  19.104  0.00  0.00    +0.000 A 
ATOM     12  N   UNL     1       3.188   5.938  18.387  0.00  0.00    +0.000 N 
ENDROOT
BRANCH   3  13
ATOM     13  C   UNL     1       5.440   4.146  16.065  0.00  0.00    +0.000 A 
ATOM     14  C   UNL     1       6.728   4.614  15.963  0.00  0.00    +0.000 A 
ATOM     15  C   UNL     1       6.971   4.716  14.571  0.00  0.00    +0.000 A 
ATOM     16  C   UNL     1       7.877   5.414  13.759  0.00  0.00    +0.000 A 
ATOM     17  C   UNL     1       7.841   5.189  12.380  0.00  0.00    +0.000 A 
ATOM     18  C   UNL     1       6.988   4.224  11.832  0.00  0.00    +0.000 A 
ATOM     19  C   UNL     1       6.040   3.559  12.622  0.00  0.00    +0.000 A 
ATOM     20  C   UNL     1       6.016   3.906  13.969  0.00  0.00    +0.000 A 
ATOM     21  O   UNL     1       5.052   3.579  14.881  0.00  0.00    +0.000 OA
ENDBRANCH   3  13
BRANCH  12  22
ATOM     22  O   UNL     1       3.039   7.241  18.929  0.00  0.00    +0.000 OA
BRANCH  22  23
ATOM     23  C   UNL     1       2.300   8.086  18.028  0.00  0.00    +0.000 C 
BRANCH  23  24
ATOM     24  C   UNL     1       1.338   8.973  18.780  0.00  0.00    +0.000 A 
ATOM     25  C   UNL     1       0.494   9.844  18.092  0.00  0.00    +0.000 A 
ATOM     26  C   UNL     1      -0.427  10.600  18.810  0.00  0.00    +0.000 A 
ATOM     27  C   UNL     1      -0.493  10.461  20.190  0.00  0.00    +0.000 A 
ATOM     28  C   UNL     1       0.370   9.566  20.799  0.00  0.00    +0.000 A 
ATOM     29  N   UNL     1       1.280   8.824  20.130  0.00  0.00    +0.000 NA
ENDBRANCH  23  24
ENDBRANCH  22  23
ENDBRANCH  12  22
TORSDOF 4
ENDMDL
MODEL 2
REMARK VINA RESULT:      -8.6      2.398      7.430
REMARK  Name = 
REMARK  4 active torsions:
REMARK  status: ('A' for Active; 'I' for Inactive)
REMARK    1  A    between atoms: C_3  and  C_4
REMARK    2  A    between atoms: N_21  and  O_22
REMARK    3  A    between atoms: O_22  and  C_23
REMARK    4  A    between atoms: C_23  and  C_24
REMARK                            x       y       z     vdW  Elec       q    Type
REMARK                         _______ _______ _______ _____ _____    ______ ____
ROOT
ATOM      1  O   UNL     1       3.027   7.746  17.626  0.00  0.00    +0.000 OA
ATOM      2  C   UNL     1       3.080   6.673  18.188  0.00  0.00    +0.000 A 
ATOM      3  C   UNL     1       2.284   6.487  19.462  0.00  0.00    +0.000 A 
ATOM      4  N   UNL     1       1.914   5.285  19.812  0.00  0.00    +0.000 N 
ATOM      5  O   UNL     1       1.138   5.117  20.809  0.00  0.00    +0.000 OA
ATOM      6  C   UNL     1       2.397   4.121  19.090  0.00  0.00    +0.000 A 
ATOM      7  C   UNL     1       1.895   2.854  19.423  0.00  0.00    +0.000 A 
ATOM      8  C   UNL     1       2.386   1.725  18.776  0.00  0.00    +0.000 A 
ATOM      9  C   UNL     1       3.377   1.859  17.799  0.00  0.00    +0.000 A 
ATOM     10  C   UNL     1       3.865   3.125  17.461  0.00  0.00    +0.000 A 
ATOM     11  C   UNL     1       3.366   4.268  18.103  0.00  0.00    +0.000 A 
ATOM     12  N   UNL     1       3.770   5.562  17.742  0.00  0.00    +0.000 N 
ENDROOT
BRANCH   3  13
ATOM     13  C   UNL     1       1.895   7.709  20.099  0.00  0.00    +0.000 A 
ATOM     14  C   UNL     1       1.932   8.049  21.430  0.00  0.00    +0.000 A 
ATOM     15  C   UNL     1       0.951   9.058  21.577  0.00  0.00    +0.000 A 
ATOM     16  C   UNL     1       0.218   9.597  22.646  0.00  0.00    +0.000 A 
ATOM     17  C   UNL     1      -0.638  10.671  22.388  0.00  0.00    +0.000 A 
ATOM     18  C   UNL     1      -0.693  11.257  21.118  0.00  0.00    +0.000 A 
ATOM     19  C   UNL     1      -0.009  10.697  20.029  0.00  0.00    +0.000 A 
ATOM     20  C   UNL     1       0.728   9.548  20.296  0.00  0.00    +0.000 A 
ATOM     21  O   UNL     1       1.282   8.700  19.379  0.00  0.00    +0.000 OA
ENDBRANCH   3  13
BRANCH  12  22
ATOM     22  O   UNL     1       4.439   5.684  16.497  0.00  0.00    +0.000 OA
BRANCH  22  23
ATOM     23  C   UNL     1       5.781   5.171  16.589  0.00  0.00    +0.000 C 
BRANCH  23  24
ATOM     24  C   UNL     1       6.673   6.117  17.357  0.00  0.00    +0.000 A 
ATOM     25  C   UNL     1       7.380   5.671  18.472  0.00  0.00    +0.000 A 
ATOM     26  C   UNL     1       8.244   6.550  19.120  0.00  0.00    +0.000 A 
ATOM     27  C   UNL     1       8.390   7.843  18.634  0.00  0.00    +0.000 A 
ATOM     28  C   UNL     1       7.661   8.206  17.514  0.00  0.00    +0.000 A 
ATOM     29  N   UNL     1       6.810   7.378  16.869  0.00  0.00    +0.000 NA
ENDBRANCH  23  24
ENDBRANCH  22  23
ENDBRANCH  12  22
TORSDOF 4
ENDMDL
MODEL 3
REMARK VINA RESULT:      -8.6      1.790      7.957
REMARK  Name = 
REMARK  4 active torsions:
REMARK  status: ('A' for Active; 'I' for Inactive)
REMARK    1  A    between atoms: C_3  and  C_4
REMARK    2  A    between atoms: N_21  and  O_22
REMARK    3  A    between atoms: O_22  and  C_23
REMARK    4  A    between atoms: C_23  and  C_24
REMARK                            x       y       z     vdW  Elec       q    Type
REMARK                         _______ _______ _______ _____ _____    ______ ____
ROOT
ATOM      1  O   UNL     1       2.986   7.891  17.707  0.00  0.00    +0.000 OA
ATOM      2  C   UNL     1       3.071   6.805  18.240  0.00  0.00    +0.000 A 
ATOM      3  C   UNL     1       2.291   6.565  19.514  0.00  0.00    +0.000 A 
ATOM      4  N   UNL     1       1.955   5.345  19.835  0.00  0.00    +0.000 N 
ATOM      5  O   UNL     1       1.191   5.130  20.832  0.00  0.00    +0.000 OA
ATOM      6  C   UNL     1       2.461   4.214  19.079  0.00  0.00    +0.000 A 
ATOM      7  C   UNL     1       1.995   2.926  19.382  0.00  0.00    +0.000 A 
ATOM      8  C   UNL     1       2.509   1.827  18.701  0.00  0.00    +0.000 A 
ATOM      9  C   UNL     1       3.488   2.012  17.720  0.00  0.00    +0.000 A 
ATOM     10  C   UNL     1       3.941   3.299  17.413  0.00  0.00    +0.000 A 
ATOM     11  C   UNL     1       3.418   4.412  18.088  0.00  0.00    +0.000 A 
ATOM     12  N   UNL     1       3.785   5.725  17.760  0.00  0.00    +0.000 N 
ENDROOT
BRANCH   3  13
ATOM     13  C   UNL     1       1.875   7.760  20.186  0.00  0.00    +0.000 A 
ATOM     14  C   UNL     1       1.922   8.067  21.524  0.00  0.00    +0.000 A 
ATOM     15  C   UNL     1       0.913   9.044  21.710  0.00  0.00    +0.000 A 
ATOM     16  C   UNL     1       0.180   9.535  22.801  0.00  0.00    +0.000 A 
ATOM     17  C   UNL     1      -0.710  10.590  22.582  0.00  0.00    +0.000 A 
ATOM     18  C   UNL     1      -0.799  11.204  21.327  0.00  0.00    +0.000 A 
ATOM     19  C   UNL     1      -0.115  10.691  20.216  0.00  0.00    +0.000 A 
ATOM     20  C   UNL     1       0.659   9.558  20.445  0.00  0.00    +0.000 A 
ATOM     21  O   UNL     1       1.224   8.750  19.499  0.00  0.00    +0.000 OA
ENDBRANCH   3  13
BRANCH  12  22
ATOM     22  O   UNL     1       4.441   5.896  16.513  0.00  0.00    +0.000 OA
BRANCH  22  23
ATOM     23  C   UNL     1       5.795   5.412  16.580  0.00  0.00    +0.000 C 
BRANCH  23  24
ATOM     24  C   UNL     1       6.283   4.972  15.221  0.00  0.00    +0.000 A 
ATOM     25  C   UNL     1       5.537   4.074  14.460  0.00  0.00    +0.000 A 
ATOM     26  C   UNL     1       5.981   3.738  13.184  0.00  0.00    +0.000 A 
ATOM     27  C   UNL     1       7.146   4.313  12.695  0.00  0.00    +0.000 A 
ATOM     28  C   UNL     1       7.824   5.207  13.508  0.00  0.00    +0.000 A 
ATOM     29  N   UNL     1       7.422   5.546  14.753  0.00  0.00    +0.000 NA
ENDBRANCH  23  24
ENDBRANCH  22  23
ENDBRANCH  12  22
TORSDOF 4
ENDMDL
MODEL 4
REMARK VINA RESULT:      -8.0      2.982      5.525
REMARK  Name = 
REMARK  4 active torsions:
REMARK  status: ('A' for Active; 'I' for Inactive)
REMARK    1  A    between atoms: C_3  and  C_4
REMARK    2  A    between atoms: N_21  and  O_22
REMARK    3  A    between atoms: O_22  and  C_23
REMARK    4  A    between atoms: C_23  and  C_24
REMARK                            x       y       z     vdW  Elec       q    Type
REMARK                         _______ _______ _______ _____ _____    ______ ____
ROOT
ATOM      1  O   UNL     1       1.678   9.757  17.444  0.00  0.00    +0.000 OA
ATOM      2  C   UNL     1       1.204   9.389  18.497  0.00  0.00    +0.000 A 
ATOM      3  C   UNL     1       1.774   8.148  19.150  0.00  0.00    +0.000 A 
ATOM      4  N   UNL     1       1.666   8.001  20.442  0.00  0.00    +0.000 N 
ATOM      5  O   UNL     1       2.247   7.031  21.030  0.00  0.00    +0.000 OA
ATOM      6  C   UNL     1       0.867   8.924  21.229  0.00  0.00    +0.000 A 
ATOM      7  C   UNL     1       0.861   8.803  22.627  0.00  0.00    +0.000 A 
ATOM      8  C   UNL     1       0.059   9.646  23.390  0.00  0.00    +0.000 A 
ATOM      9  C   UNL     1      -0.735  10.608  22.760  0.00  0.00    +0.000 A 
ATOM     10  C   UNL     1      -0.716  10.734  21.367  0.00  0.00    +0.000 A 
ATOM     11  C   UNL     1       0.098   9.894  20.593  0.00  0.00    +0.000 A 
ATOM     12  N   UNL     1       0.207  10.035  19.202  0.00  0.00    +0.000 N 
ENDROOT
BRANCH   3  13
ATOM     13  C   UNL     1       2.514   7.302  18.263  0.00  0.00    +0.000 A 
ATOM     14  C   UNL     1       2.257   6.008  17.876  0.00  0.00    +0.000 A 
ATOM     15  C   UNL     1       3.517   5.481  17.502  0.00  0.00    +0.000 A 
ATOM     16  C   UNL     1       4.063   4.197  17.353  0.00  0.00    +0.000 A 
ATOM     17  C   UNL     1       5.374   4.086  16.882  0.00  0.00    +0.000 A 
ATOM     18  C   UNL     1       6.092   5.218  16.480  0.00  0.00    +0.000 A 
ATOM     19  C   UNL     1       5.581   6.510  16.674  0.00  0.00    +0.000 A 
ATOM     20  C   UNL     1       4.326   6.586  17.269  0.00  0.00    +0.000 A 
ATOM     21  O   UNL     1       3.724   7.708  17.766  0.00  0.00    +0.000 OA
ENDBRANCH   3  13
BRANCH  12  22
ATOM     22  O   UNL     1      -0.270  11.257  18.659  0.00  0.00    +0.000 OA
BRANCH  22  23
ATOM     23  C   UNL     1      -1.690  11.381  18.857  0.00  0.00    +0.000 C 
BRANCH  23  24
ATOM     24  C   UNL     1      -2.445  11.063  17.589  0.00  0.00    +0.000 A 
ATOM     25  C   UNL     1      -1.954  10.114  16.694  0.00  0.00    +0.000 A 
ATOM     26  C   UNL     1      -2.706   9.796  15.567  0.00  0.00    +0.000 A 
ATOM     27  C   UNL     1      -3.931  10.420  15.367  0.00  0.00    +0.000 A 
ATOM     28  C   UNL     1      -4.355  11.343  16.309  0.00  0.00    +0.000 A 
ATOM     29  N   UNL     1      -3.644  11.678  17.408  0.00  0.00    +0.000 NA
ENDBRANCH  23  24
ENDBRANCH  22  23
ENDBRANCH  12  22
TORSDOF 4
ENDMDL
MODEL 5
REMARK VINA RESULT:      -8.0      3.000      5.482
REMARK  Name = 
REMARK  4 active torsions:
REMARK  status: ('A' for Active; 'I' for Inactive)
REMARK    1  A    between atoms: C_3  and  C_4
REMARK    2  A    between atoms: N_21  and  O_22
REMARK    3  A    between atoms: O_22  and  C_23
REMARK    4  A    between atoms: C_23  and  C_24
REMARK                            x       y       z     vdW  Elec       q    Type
REMARK                         _______ _______ _______ _____ _____    ______ ____
ROOT
ATOM      1  O   UNL     1       1.652   9.783  17.411  0.00  0.00    +0.000 OA
ATOM      2  C   UNL     1       1.169   9.419  18.461  0.00  0.00    +0.000 A 
ATOM      3  C   UNL     1       1.742   8.188  19.129  0.00  0.00    +0.000 A 
ATOM      4  N   UNL     1       1.621   8.049  20.421  0.00  0.00    +0.000 N 
ATOM      5  O   UNL     1       2.203   7.088  21.022  0.00  0.00    +0.000 OA
ATOM      6  C   UNL     1       0.805   8.971  21.192  0.00  0.00    +0.000 A 
ATOM      7  C   UNL     1       0.784   8.859  22.590  0.00  0.00    +0.000 A 
ATOM      8  C   UNL     1      -0.033   9.700  23.339  0.00  0.00    +0.000 A 
ATOM      9  C   UNL     1      -0.828  10.651  22.692  0.00  0.00    +0.000 A 
ATOM     10  C   UNL     1      -0.795  10.768  21.299  0.00  0.00    +0.000 A 
ATOM     11  C   UNL     1       0.035   9.929  20.541  0.00  0.00    +0.000 A 
ATOM     12  N   UNL     1       0.159  10.061  19.150  0.00  0.00    +0.000 N 
ENDROOT
BRANCH   3  13
ATOM     13  C   UNL     1       2.500   7.341  18.257  0.00  0.00    +0.000 A 
ATOM     14  C   UNL     1       2.286   6.027  17.916  0.00  0.00    +0.000 A 
ATOM     15  C   UNL     1       3.559   5.536  17.537  0.00  0.00    +0.000 A 
ATOM     16  C   UNL     1       4.151   4.270  17.419  0.00  0.00    +0.000 A 
ATOM     17  C   UNL     1       5.458   4.192  16.929  0.00  0.00    +0.000 A 
ATOM     18  C   UNL     1       6.125   5.337  16.479  0.00  0.00    +0.000 A 
ATOM     19  C   UNL     1       5.569   6.614  16.641  0.00  0.00    +0.000 A 
ATOM     20  C   UNL     1       4.321   6.663  17.255  0.00  0.00    +0.000 A 
ATOM     21  O   UNL     1       3.685   7.776  17.727  0.00  0.00    +0.000 OA
ENDBRANCH   3  13
BRANCH  12  22
ATOM     22  O   UNL     1      -0.322  11.274  18.593  0.00  0.00    +0.000 OA
BRANCH  22  23
ATOM     23  C   UNL     1      -1.368  11.016  17.638  0.00  0.00    +0.000 C 
BRANCH  23  24
ATOM     24  C   UNL     1      -2.710  11.453  18.170  0.00  0.00    +0.000 A 
ATOM     25  C   UNL     1      -3.887  11.016  17.565  0.00  0.00    +0.000 A 
ATOM     26  C   UNL     1      -5.110  11.384  18.119  0.00  0.00    +0.000 A 
ATOM     27  C   UNL     1      -5.129  12.166  19.266  0.00  0.00    +0.000 A 
ATOM     28  C   UNL     1      -3.917  12.550  19.816  0.00  0.00    +0.000 A 
ATOM     29  N   UNL     1      -2.715  12.215  19.296  0.00  0.00    +0.000 NA
ENDBRANCH  23  24
ENDBRANCH  22  23
ENDBRANCH  12  22
TORSDOF 4
ENDMDL
MODEL 6
REMARK VINA RESULT:      -7.9      5.555     12.269
REMARK  Name = 
REMARK  4 active torsions:
REMARK  status: ('A' for Active; 'I' for Inactive)
REMARK    1  A    between atoms: C_3  and  C_4
REMARK    2  A    between atoms: N_21  and  O_22
REMARK    3  A    between atoms: O_22  and  C_23
REMARK    4  A    between atoms: C_23  and  C_24
REMARK                            x       y       z     vdW  Elec       q    Type
REMARK                         _______ _______ _______ _____ _____    ______ ____
ROOT
ATOM      1  O   UNL     1      -1.502  13.068  20.730  0.00  0.00    +0.000 OA
ATOM      2  C   UNL     1      -2.168  12.350  20.016  0.00  0.00    +0.000 A 
ATOM      3  C   UNL     1      -3.667  12.559  19.981  0.00  0.00    +0.000 A 
ATOM      4  N   UNL     1      -4.337  12.190  18.924  0.00  0.00    +0.000 N 
ATOM      5  O   UNL     1      -5.576  12.470  18.819  0.00  0.00    +0.000 OA
ATOM      6  C   UNL     1      -3.692  11.439  17.862  0.00  0.00    +0.000 A 
ATOM      7  C   UNL     1      -4.412  11.154  16.692  0.00  0.00    +0.000 A 
ATOM      8  C   UNL     1      -3.825  10.390  15.688  0.00  0.00    +0.000 A 
ATOM      9  C   UNL     1      -2.522   9.911  15.852  0.00  0.00    +0.000 A 
ATOM     10  C   UNL     1      -1.804  10.208  17.014  0.00  0.00    +0.000 A 
ATOM     11  C   UNL     1      -2.387  10.986  18.025  0.00  0.00    +0.000 A 
ATOM     12  N   UNL     1      -1.678  11.373  19.171  0.00  0.00    +0.000 N 
ENDROOT
BRANCH   3  13
ATOM     13  C   UNL     1      -4.187  13.285  21.101  0.00  0.00    +0.000 A 
ATOM     14  C   UNL     1      -4.647  12.815  22.307  0.00  0.00    +0.000 A 
ATOM     15  C   UNL     1      -5.536  13.813  22.774  0.00  0.00    +0.000 A 
ATOM     16  C   UNL     1      -6.588  13.866  23.701  0.00  0.00    +0.000 A 
ATOM     17  C   UNL     1      -7.200  15.100  23.940  0.00  0.00    +0.000 A 
ATOM     18  C   UNL     1      -6.715  16.269  23.343  0.00  0.00    +0.000 A 
ATOM     19  C   UNL     1      -5.702  16.225  22.374  0.00  0.00    +0.000 A 
ATOM     20  C   UNL     1      -5.209  14.962  22.064  0.00  0.00    +0.000 A 
ATOM     21  O   UNL     1      -4.401  14.635  21.011  0.00  0.00    +0.000 OA
ENDBRANCH   3  13
BRANCH  12  22
ATOM     22  O   UNL     1      -0.267  11.231  19.111  0.00  0.00    +0.000 OA
BRANCH  22  23
ATOM     23  C   UNL     1       0.192  10.290  20.099  0.00  0.00    +0.000 C 
BRANCH  23  24
ATOM     24  C   UNL     1       1.065   9.229  19.475  0.00  0.00    +0.000 A 
ATOM     25  C   UNL     1       1.495   9.355  18.155  0.00  0.00    +0.000 A 
ATOM     26  C   UNL     1       2.352   8.392  17.629  0.00  0.00    +0.000 A 
ATOM     27  C   UNL     1       2.767   7.338  18.433  0.00  0.00    +0.000 A 
ATOM     28  C   UNL     1       2.305   7.290  19.737  0.00  0.00    +0.000 A 
ATOM     29  N   UNL     1       1.467   8.205  20.273  0.00  0.00    +0.000 NA
ENDBRANCH  23  24
ENDBRANCH  22  23
ENDBRANCH  12  22
TORSDOF 4
ENDMDL
MODEL 7
REMARK VINA RESULT:      -7.9      2.400      7.996
REMARK  Name = 
REMARK  4 active torsions:
REMARK  status: ('A' for Active; 'I' for Inactive)
REMARK    1  A    between atoms: C_3  and  C_4
REMARK    2  A    between atoms: N_21  and  O_22
REMARK    3  A    between atoms: O_22  and  C_23
REMARK    4  A    between atoms: C_23  and  C_24
REMARK                            x       y       z     vdW  Elec       q    Type
REMARK                         _______ _______ _______ _____ _____    ______ ____
ROOT
ATOM      1  O   UNL     1       2.012   9.159  17.297  0.00  0.00    +0.000 OA
ATOM      2  C   UNL     1       2.244   8.427  18.234  0.00  0.00    +0.000 A 
ATOM      3  C   UNL     1       1.513   8.669  19.537  0.00  0.00    +0.000 A 
ATOM      4  N   UNL     1       1.344   7.677  20.368  0.00  0.00    +0.000 N 
ATOM      5  O   UNL     1       0.624   7.826  21.409  0.00  0.00    +0.000 OA
ATOM      6  C   UNL     1       1.990   6.397  20.134  0.00  0.00    +0.000 A 
ATOM      7  C   UNL     1       1.701   5.321  20.986  0.00  0.00    +0.000 A 
ATOM      8  C   UNL     1       2.350   4.104  20.807  0.00  0.00    +0.000 A 
ATOM      9  C   UNL     1       3.287   3.961  19.780  0.00  0.00    +0.000 A 
ATOM     10  C   UNL     1       3.564   5.033  18.925  0.00  0.00    +0.000 A 
ATOM     11  C   UNL     1       2.903   6.259  19.095  0.00  0.00    +0.000 A 
ATOM     12  N   UNL     1       3.091   7.336  18.215  0.00  0.00    +0.000 N 
ENDROOT
BRANCH   3  13
ATOM     13  C   UNL     1       0.949   9.980  19.662  0.00  0.00    +0.000 A 
ATOM     14  C   UNL     1      -0.256  10.457  19.204  0.00  0.00    +0.000 A 
ATOM     15  C   UNL     1      -0.070  11.854  19.073  0.00  0.00    +0.000 A 
ATOM     16  C   UNL     1      -0.702  12.889  18.365  0.00  0.00    +0.000 A 
ATOM     17  C   UNL     1      -0.248  14.197  18.558  0.00  0.00    +0.000 A 
ATOM     18  C   UNL     1       0.746  14.480  19.502  0.00  0.00    +0.000 A 
ATOM     19  C   UNL     1       1.423  13.454  20.176  0.00  0.00    +0.000 A 
ATOM     20  C   UNL     1       1.035  12.156  19.859  0.00  0.00    +0.000 A 
ATOM     21  O   UNL     1       1.685  11.003  20.198  0.00  0.00    +0.000 OA
ENDBRANCH   3  13
BRANCH  12  22
ATOM     22  O   UNL     1       3.708   7.028  16.975  0.00  0.00    +0.000 OA
BRANCH  22  23
ATOM     23  C   UNL     1       5.042   7.565  16.923  0.00  0.00    +0.000 C 
BRANCH  23  24
ATOM     24  C   UNL     1       6.072   6.484  17.144  0.00  0.00    +0.000 A 
ATOM     25  C   UNL     1       6.865   6.486  18.290  0.00  0.00    +0.000 A 
ATOM     26  C   UNL     1       7.760   5.440  18.495  0.00  0.00    +0.000 A 
ATOM     27  C   UNL     1       7.832   4.414  17.562  0.00  0.00    +0.000 A 
ATOM     28  C   UNL     1       7.002   4.477  16.455  0.00  0.00    +0.000 A 
ATOM     29  N   UNL     1       6.130   5.484  16.225  0.00  0.00    +0.000 NA
ENDBRANCH  23  24
ENDBRANCH  22  23
ENDBRANCH  12  22
TORSDOF 4
ENDMDL
MODEL 8
REMARK VINA RESULT:      -7.9      3.024      5.778
REMARK  Name = 
REMARK  4 active torsions:
REMARK  status: ('A' for Active; 'I' for Inactive)
REMARK    1  A    between atoms: C_3  and  C_4
REMARK    2  A    between atoms: N_21  and  O_22
REMARK    3  A    between atoms: O_22  and  C_23
REMARK    4  A    between atoms: C_23  and  C_24
REMARK                            x       y       z     vdW  Elec       q    Type
REMARK                         _______ _______ _______ _____ _____    ______ ____
ROOT
ATOM      1  O   UNL     1       2.183   9.985  17.525  0.00  0.00    +0.000 OA
ATOM      2  C   UNL     1       1.502   9.666  18.476  0.00  0.00    +0.000 A 
ATOM      3  C   UNL     1       1.740   8.315  19.113  0.00  0.00    +0.000 A 
ATOM      4  N   UNL     1       1.420   8.134  20.366  0.00  0.00    +0.000 N 
ATOM      5  O   UNL     1       1.727   7.049  20.958  0.00  0.00    +0.000 OA
ATOM      6  C   UNL     1       0.691   9.155  21.098  0.00  0.00    +0.000 A 
ATOM      7  C   UNL     1       0.458   8.976  22.470  0.00  0.00    +0.000 A 
ATOM      8  C   UNL     1      -0.284   9.920  23.173  0.00  0.00    +0.000 A 
ATOM      9  C   UNL     1      -0.793  11.039  22.509  0.00  0.00    +0.000 A 
ATOM     10  C   UNL     1      -0.549  11.219  21.144  0.00  0.00    +0.000 A 
ATOM     11  C   UNL     1       0.208  10.277  20.432  0.00  0.00    +0.000 A 
ATOM     12  N   UNL     1       0.543  10.455  19.082  0.00  0.00    +0.000 N 
ENDROOT
BRANCH   3  13
ATOM     13  C   UNL     1       2.440   7.384  18.278  0.00  0.00    +0.000 A 
ATOM     14  C   UNL     1       2.113   6.091  17.951  0.00  0.00    +0.000 A 
ATOM     15  C   UNL     1       3.344   5.474  17.621  0.00  0.00    +0.000 A 
ATOM     16  C   UNL     1       3.817   4.155  17.541  0.00  0.00    +0.000 A 
ATOM     17  C   UNL     1       5.125   3.946  17.096  0.00  0.00    +0.000 A 
ATOM     18  C   UNL     1       5.911   5.014  16.650  0.00  0.00    +0.000 A 
ATOM     19  C   UNL     1       5.474   6.340  16.774  0.00  0.00    +0.000 A 
ATOM     20  C   UNL     1       4.219   6.518  17.346  0.00  0.00    +0.000 A 
ATOM     21  O   UNL     1       3.677   7.696  17.780  0.00  0.00    +0.000 OA
ENDBRANCH   3  13
BRANCH  12  22
ATOM     22  O   UNL     1       0.376  11.766  18.565  0.00  0.00    +0.000 OA
BRANCH  22  23
ATOM     23  C   UNL     1       1.524  12.582  18.863  0.00  0.00    +0.000 C 
BRANCH  23  24
ATOM     24  C   UNL     1       1.202  14.049  18.716  0.00  0.00    +0.000 A 
ATOM     25  C   UNL     1      -0.112  14.499  18.838  0.00  0.00    +0.000 A 
ATOM     26  C   UNL     1      -0.368  15.865  18.762  0.00  0.00    +0.000 A 
ATOM     27  C   UNL     1       0.690  16.746  18.581  0.00  0.00    +0.000 A 
ATOM     28  C   UNL     1       1.968  16.222  18.481  0.00  0.00    +0.000 A 
ATOM     29  N   UNL     1       2.246  14.901  18.543  0.00  0.00    +0.000 NA
ENDBRANCH  23  24
ENDBRANCH  22  23
ENDBRANCH  12  22
TORSDOF 4
ENDMDL
MODEL 9
REMARK VINA RESULT:      -7.8      2.204      8.108
REMARK  Name = 
REMARK  4 active torsions:
REMARK  status: ('A' for Active; 'I' for Inactive)
REMARK    1  A    between atoms: C_3  and  C_4
REMARK    2  A    between atoms: N_21  and  O_22
REMARK    3  A    between atoms: O_22  and  C_23
REMARK    4  A    between atoms: C_23  and  C_24
REMARK                            x       y       z     vdW  Elec       q    Type
REMARK                         _______ _______ _______ _____ _____    ______ ____
ROOT
ATOM      1  O   UNL     1       2.028   9.208  17.318  0.00  0.00    +0.000 OA
ATOM      2  C   UNL     1       2.248   8.477  18.260  0.00  0.00    +0.000 A 
ATOM      3  C   UNL     1       1.495   8.716  19.550  0.00  0.00    +0.000 A 
ATOM      4  N   UNL     1       1.317   7.723  20.378  0.00  0.00    +0.000 N 
ATOM      5  O   UNL     1       0.580   7.868  21.407  0.00  0.00    +0.000 OA
ATOM      6  C   UNL     1       1.972   6.446  20.155  0.00  0.00    +0.000 A 
ATOM      7  C   UNL     1       1.675   5.368  21.002  0.00  0.00    +0.000 A 
ATOM      8  C   UNL     1       2.333   4.154  20.833  0.00  0.00    +0.000 A 
ATOM      9  C   UNL     1       3.287   4.017  19.821  0.00  0.00    +0.000 A 
ATOM     10  C   UNL     1       3.572   5.090  18.971  0.00  0.00    +0.000 A 
ATOM     11  C   UNL     1       2.904   6.312  19.130  0.00  0.00    +0.000 A 
ATOM     12  N   UNL     1       3.100   7.390  18.254  0.00  0.00    +0.000 N 
ENDROOT
BRANCH   3  13
ATOM     13  C   UNL     1       0.923  10.024  19.666  0.00  0.00    +0.000 A 
ATOM     14  C   UNL     1      -0.256  10.508  19.151  0.00  0.00    +0.000 A 
ATOM     15  C   UNL     1      -0.066  11.907  19.053  0.00  0.00    +0.000 A 
ATOM     16  C   UNL     1      -0.660  12.953  18.330  0.00  0.00    +0.000 A 
ATOM     17  C   UNL     1      -0.219  14.258  18.568  0.00  0.00    +0.000 A 
ATOM     18  C   UNL     1       0.721  14.526  19.569  0.00  0.00    +0.000 A 
ATOM     19  C   UNL     1       1.363  13.490  20.262  0.00  0.00    +0.000 A 
ATOM     20  C   UNL     1       0.994  12.197  19.903  0.00  0.00    +0.000 A 
ATOM     21  O   UNL     1       1.627  11.038  20.258  0.00  0.00    +0.000 OA
ENDBRANCH   3  13
BRANCH  12  22
ATOM     22  O   UNL     1       3.739   7.086  17.023  0.00  0.00    +0.000 OA
BRANCH  22  23
ATOM     23  C   UNL     1       5.160   6.952  17.207  0.00  0.00    +0.000 C 
BRANCH  23  24
ATOM     24  C   UNL     1       5.740   5.943  16.246  0.00  0.00    +0.000 A 
ATOM     25  C   UNL     1       4.912   5.028  15.598  0.00  0.00    +0.000 A 
ATOM     26  C   UNL     1       5.467   4.154  14.669  0.00  0.00    +0.000 A 
ATOM     27  C   UNL     1       6.828   4.221  14.400  0.00  0.00    +0.000 A 
ATOM     28  C   UNL     1       7.582   5.165  15.077  0.00  0.00    +0.000 A 
ATOM     29  N   UNL     1       7.072   6.021  15.990  0.00  0.00    +0.000 NA
ENDBRANCH  23  24
ENDBRANCH  22  23
ENDBRANCH  12  22
TORSDOF 4
ENDMDL
