MODEL 1
REMARK VINA RESULT:      -8.7      0.000      0.000
REMARK  Name = 
REMARK  9 active torsions:
REMARK  status: ('A' for Active; 'I' for Inactive)
REMARK    1  A    between atoms: C_1  and  O_2
REMARK    2  A    between atoms: O_2  and  C_3
REMARK    3  A    between atoms: C_3  and  C_5
REMARK    4  A    between atoms: C_8  and  N_9
REMARK    5  A    between atoms: C_10  and  C_12
REMARK    6  A    between atoms: C_12  and  N_13
REMARK    7  A    between atoms: N_20  and  C_21
REMARK    8  A    between atoms: C_25  and  O_26
REMARK    9  A    between atoms: O_26  and  C_27
REMARK                            x       y       z     vdW  Elec       q    Type
REMARK                         _______ _______ _______ _____ _____    ______ ____
ROOT
ATOM      1  N   UNL     1       4.387   4.181  18.734  0.00  0.00    +0.000 N 
ATOM      2  C   UNL     1       4.051   3.536  17.546  0.00  0.00    +0.000 A 
ATOM      3  N   UNL     1       4.698   3.634  16.422  0.00  0.00    +0.000 NA
ATOM      4  C   UNL     1       5.796   4.434  16.498  0.00  0.00    +0.000 A 
ATOM      5  C   UNL     1       6.258   5.090  17.616  0.00  0.00    +0.000 A 
ATOM      6  N   UNL     1       7.400   5.764  17.345  0.00  0.00    +0.000 NA
ATOM      7  N   UNL     1       7.689   5.552  16.065  0.00  0.00    +0.000 NA
ATOM      8  N   UNL     1       6.710   4.774  15.506  0.00  0.00    +0.000 N 
ATOM      9  C   UNL     1       5.529   4.981  18.855  0.00  0.00    +0.000 A 
ATOM     10  O   UNL     1       5.863   5.522  19.907  0.00  0.00    +0.000 OA
ENDROOT
BRANCH   8  11
ATOM     11  C   UNL     1       6.723   4.476  14.114  0.00  0.00    +0.000 A 
ATOM     12  C   UNL     1       7.646   5.127  13.280  0.00  0.00    +0.000 A 
ATOM     13  C   UNL     1       7.644   4.889  11.906  0.00  0.00    +0.000 A 
ATOM     14  C   UNL     1       6.712   4.010  11.355  0.00  0.00    +0.000 A 
ATOM     15  C   UNL     1       5.787   3.356  12.169  0.00  0.00    +0.000 A 
ATOM     16  C   UNL     1       5.805   3.577  13.550  0.00  0.00    +0.000 A 
BRANCH  15  17
ATOM     17  O   UNL     1       4.914   2.541  11.499  0.00  0.00    +0.000 OA
ATOM     18  C   UNL     1       3.738   3.149  10.976  0.00  0.00    +0.000 C 
ENDBRANCH  15  17
ENDBRANCH   8  11
BRANCH   1  19
ATOM     19  C   UNL     1       3.555   4.000  19.911  0.00  0.00    +0.000 C 
BRANCH  19  21
ATOM     20  N   UNL     1       2.897   6.361  19.813  0.00  0.00    +0.000 N 
ATOM     21  C   UNL     1       2.451   5.051  19.879  0.00  0.00    +0.000 C 
ATOM     22  O   UNL     1       1.281   4.685  19.969  0.00  0.00    +0.000 OA
ATOM     23  H   UNL     1       3.893   6.518  19.682  0.00  0.00    +0.000 HD
BRANCH  20  27
ATOM     24  C   UNL     1       0.440   9.816  19.768  0.00  0.00    +0.000 A 
ATOM     25  C   UNL     1       0.550   9.056  20.935  0.00  0.00    +0.000 A 
ATOM     26  C   UNL     1       1.360   7.917  20.967  0.00  0.00    +0.000 A 
ATOM     27  C   UNL     1       2.079   7.514  19.838  0.00  0.00    +0.000 A 
ATOM     28  C   UNL     1       1.992   8.291  18.676  0.00  0.00    +0.000 A 
ATOM     29  C   UNL     1       1.166   9.427  18.636  0.00  0.00    +0.000 A 
BRANCH  24  30
ATOM     30  C   UNL     1      -0.440  11.015  19.796  0.00  0.00    +0.000 C 
ATOM     31  O   UNL     1      -0.921  11.521  18.793  0.00  0.00    +0.000 OA
BRANCH  30  33
ATOM     32  C   UNL     1      -1.815  12.214  21.250  0.00  0.00    +0.000 C 
ATOM     33  O   UNL     1      -0.624  11.448  21.067  0.00  0.00    +0.000 OA
ENDBRANCH  30  33
ENDBRANCH  24  30
ENDBRANCH  20  27
ENDBRANCH  19  21
ENDBRANCH   1  19
TORSDOF 7
ENDMDL
MODEL 2
REMARK VINA RESULT:      -8.6      0.716      1.220
REMARK  Name = 
REMARK  9 active torsions:
REMARK  status: ('A' for Active; 'I' for Inactive)
REMARK    1  A    between atoms: C_1  and  O_2
REMARK    2  A    between atoms: O_2  and  C_3
REMARK    3  A    between atoms: C_3  and  C_5
REMARK    4  A    between atoms: C_8  and  N_9
REMARK    5  A    between atoms: C_10  and  C_12
REMARK    6  A    between atoms: C_12  and  N_13
REMARK    7  A    between atoms: N_20  and  C_21
REMARK    8  A    between atoms: C_25  and  O_26
REMARK    9  A    between atoms: O_26  and  C_27
REMARK                            x       y       z     vdW  Elec       q    Type
REMARK                         _______ _______ _______ _____ _____    ______ ____
ROOT
ATOM      1  N   UNL     1       4.320   4.216  18.783  0.00  0.00    +0.000 N 
ATOM      2  C   UNL     1       3.822   3.632  17.620  0.00  0.00    +0.000 A 
ATOM      3  N   UNL     1       4.407   3.639  16.458  0.00  0.00    +0.000 NA
ATOM      4  C   UNL     1       5.612   4.271  16.464  0.00  0.00    +0.000 A 
ATOM      5  C   UNL     1       6.232   4.847  17.548  0.00  0.00    +0.000 A 
ATOM      6  N   UNL     1       7.441   5.349  17.204  0.00  0.00    +0.000 NA
ATOM      7  N   UNL     1       7.617   5.103  15.910  0.00  0.00    +0.000 NA
ATOM      8  N   UNL     1       6.502   4.478  15.416  0.00  0.00    +0.000 N 
ATOM      9  C   UNL     1       5.572   4.840  18.829  0.00  0.00    +0.000 A 
ATOM     10  O   UNL     1       6.045   5.321  19.857  0.00  0.00    +0.000 OA
ENDROOT
BRANCH   8  11
ATOM     11  C   UNL     1       6.387   4.188  14.027  0.00  0.00    +0.000 A 
ATOM     12  C   UNL     1       7.445   4.518  13.165  0.00  0.00    +0.000 A 
ATOM     13  C   UNL     1       7.334   4.289  11.793  0.00  0.00    +0.000 A 
ATOM     14  C   UNL     1       6.161   3.743  11.273  0.00  0.00    +0.000 A 
ATOM     15  C   UNL     1       5.100   3.410  12.116  0.00  0.00    +0.000 A 
ATOM     16  C   UNL     1       5.220   3.618  13.494  0.00  0.00    +0.000 A 
BRANCH  15  17
ATOM     17  O   UNL     1       4.000   2.906  11.475  0.00  0.00    +0.000 OA
ATOM     18  C   UNL     1       3.456   3.688  10.417  0.00  0.00    +0.000 C 
ENDBRANCH  15  17
ENDBRANCH   8  11
BRANCH   1  19
ATOM     19  C   UNL     1       3.545   4.152  20.009  0.00  0.00    +0.000 C 
BRANCH  19  21
ATOM     20  N   UNL     1       2.912   6.493  19.644  0.00  0.00    +0.000 N 
ATOM     21  C   UNL     1       2.458   5.218  19.939  0.00  0.00    +0.000 C 
ATOM     22  O   UNL     1       1.299   4.902  20.198  0.00  0.00    +0.000 OA
ATOM     23  H   UNL     1       3.891   6.603  19.392  0.00  0.00    +0.000 HD
BRANCH  20  27
ATOM     24  C   UNL     1       0.536  10.004  19.593  0.00  0.00    +0.000 A 
ATOM     25  C   UNL     1       1.137   9.554  18.414  0.00  0.00    +0.000 A 
ATOM     26  C   UNL     1       1.920   8.395  18.414  0.00  0.00    +0.000 A 
ATOM     27  C   UNL     1       2.116   7.661  19.587  0.00  0.00    +0.000 A 
ATOM     28  C   UNL     1       1.490   8.095  20.762  0.00  0.00    +0.000 A 
ATOM     29  C   UNL     1       0.717   9.267  20.769  0.00  0.00    +0.000 A 
BRANCH  24  30
ATOM     30  C   UNL     1      -0.282  11.245  19.529  0.00  0.00    +0.000 C 
ATOM     31  O   UNL     1      -1.367  11.366  20.078  0.00  0.00    +0.000 OA
BRANCH  30  33
ATOM     32  C   UNL     1      -0.428  13.385  18.610  0.00  0.00    +0.000 C 
ATOM     33  O   UNL     1       0.343  12.196  18.792  0.00  0.00    +0.000 OA
ENDBRANCH  30  33
ENDBRANCH  24  30
ENDBRANCH  20  27
ENDBRANCH  19  21
ENDBRANCH   1  19
TORSDOF 7
ENDMDL
MODEL 3
REMARK VINA RESULT:      -8.6      0.630      1.086
REMARK  Name = 
REMARK  9 active torsions:
REMARK  status: ('A' for Active; 'I' for Inactive)
REMARK    1  A    between atoms: C_1  and  O_2
REMARK    2  A    between atoms: O_2  and  C_3
REMARK    3  A    between atoms: C_3  and  C_5
REMARK    4  A    between atoms: C_8  and  N_9
REMARK    5  A    between atoms: C_10  and  C_12
REMARK    6  A    between atoms: C_12  and  N_13
REMARK    7  A    between atoms: N_20  and  C_21
REMARK    8  A    between atoms: C_25  and  O_26
REMARK    9  A    between atoms: O_26  and  C_27
REMARK                            x       y       z     vdW  Elec       q    Type
REMARK                         _______ _______ _______ _____ _____    ______ ____
ROOT
ATOM      1  N   UNL     1       4.263   4.164  18.797  0.00  0.00    +0.000 N 
ATOM      2  C   UNL     1       3.817   3.804  17.527  0.00  0.00    +0.000 A 
ATOM      3  N   UNL     1       4.529   3.830  16.438  0.00  0.00    +0.000 NA
ATOM      4  C   UNL     1       5.813   4.232  16.642  0.00  0.00    +0.000 A 
ATOM      5  C   UNL     1       6.386   4.570  17.846  0.00  0.00    +0.000 A 
ATOM      6  N   UNL     1       7.694   4.882  17.690  0.00  0.00    +0.000 NA
ATOM      7  N   UNL     1       7.981   4.746  16.399  0.00  0.00    +0.000 NA
ATOM      8  N   UNL     1       6.845   4.386  15.722  0.00  0.00    +0.000 N 
ATOM      9  C   UNL     1       5.587   4.546  19.045  0.00  0.00    +0.000 A 
ATOM     10  O   UNL     1       6.006   4.824  20.166  0.00  0.00    +0.000 OA
ENDROOT
BRANCH   8  11
ATOM     11  C   UNL     1       6.849   4.270  14.303  0.00  0.00    +0.000 A 
ATOM     12  C   UNL     1       7.596   5.182  13.540  0.00  0.00    +0.000 A 
ATOM     13  C   UNL     1       7.576   5.119  12.147  0.00  0.00    +0.000 A 
ATOM     14  C   UNL     1       6.799   4.153  11.508  0.00  0.00    +0.000 A 
ATOM     15  C   UNL     1       6.050   3.240  12.250  0.00  0.00    +0.000 A 
ATOM     16  C   UNL     1       6.089   3.289  13.648  0.00  0.00    +0.000 A 
BRANCH  15  17
ATOM     17  O   UNL     1       5.314   2.363  11.500  0.00  0.00    +0.000 OA
ATOM     18  C   UNL     1       5.944   1.140  11.135  0.00  0.00    +0.000 C 
ENDBRANCH  15  17
ENDBRANCH   8  11
BRANCH   1  19
ATOM     19  C   UNL     1       3.347   4.111  19.922  0.00  0.00    +0.000 C 
BRANCH  19  21
ATOM     20  N   UNL     1       2.804   6.499  19.796  0.00  0.00    +0.000 N 
ATOM     21  C   UNL     1       2.305   5.208  19.739  0.00  0.00    +0.000 C 
ATOM     22  O   UNL     1       1.124   4.890  19.614  0.00  0.00    +0.000 OA
ATOM     23  H   UNL     1       3.812   6.618  19.842  0.00  0.00    +0.000 HD
BRANCH  20  27
ATOM     24  C   UNL     1       0.512  10.065  19.690  0.00  0.00    +0.000 A 
ATOM     25  C   UNL     1       1.108   9.586  18.520  0.00  0.00    +0.000 A 
ATOM     26  C   UNL     1       1.863   8.409  18.538  0.00  0.00    +0.000 A 
ATOM     27  C   UNL     1       2.036   7.685  19.721  0.00  0.00    +0.000 A 
ATOM     28  C   UNL     1       1.415   8.148  20.887  0.00  0.00    +0.000 A 
ATOM     29  C   UNL     1       0.670   9.339  20.876  0.00  0.00    +0.000 A 
BRANCH  24  30
ATOM     30  C   UNL     1      -0.275  11.324  19.607  0.00  0.00    +0.000 C 
ATOM     31  O   UNL     1      -0.552  11.878  18.553  0.00  0.00    +0.000 OA
BRANCH  30  33
ATOM     32  C   UNL     1      -1.966  12.256  20.918  0.00  0.00    +0.000 C 
ATOM     33  O   UNL     1      -0.631  11.752  20.843  0.00  0.00    +0.000 OA
ENDBRANCH  30  33
ENDBRANCH  24  30
ENDBRANCH  20  27
ENDBRANCH  19  21
ENDBRANCH   1  19
TORSDOF 7
ENDMDL
MODEL 4
REMARK VINA RESULT:      -8.3      0.857      1.026
REMARK  Name = 
REMARK  9 active torsions:
REMARK  status: ('A' for Active; 'I' for Inactive)
REMARK    1  A    between atoms: C_1  and  O_2
REMARK    2  A    between atoms: O_2  and  C_3
REMARK    3  A    between atoms: C_3  and  C_5
REMARK    4  A    between atoms: C_8  and  N_9
REMARK    5  A    between atoms: C_10  and  C_12
REMARK    6  A    between atoms: C_12  and  N_13
REMARK    7  A    between atoms: N_20  and  C_21
REMARK    8  A    between atoms: C_25  and  O_26
REMARK    9  A    between atoms: O_26  and  C_27
REMARK                            x       y       z     vdW  Elec       q    Type
REMARK                         _______ _______ _______ _____ _____    ______ ____
ROOT
ATOM      1  N   UNL     1       4.386   3.968  18.785  0.00  0.00    +0.000 N 
ATOM      2  C   UNL     1       3.970   3.481  17.548  0.00  0.00    +0.000 A 
ATOM      3  N   UNL     1       4.628   3.590  16.431  0.00  0.00    +0.000 NA
ATOM      4  C   UNL     1       5.823   4.225  16.567  0.00  0.00    +0.000 A 
ATOM      5  C   UNL     1       6.366   4.712  17.733  0.00  0.00    +0.000 A 
ATOM      6  N   UNL     1       7.589   5.248  17.512  0.00  0.00    +0.000 NA
ATOM      7  N   UNL     1       7.851   5.112  16.216  0.00  0.00    +0.000 NA
ATOM      8  N   UNL     1       6.777   4.525  15.600  0.00  0.00    +0.000 N 
ATOM      9  C   UNL     1       5.626   4.593  18.965  0.00  0.00    +0.000 A 
ATOM     10  O   UNL     1       6.027   4.990  20.057  0.00  0.00    +0.000 OA
ENDROOT
BRANCH   8  11
ATOM     11  C   UNL     1       6.754   4.352  14.187  0.00  0.00    +0.000 A 
ATOM     12  C   UNL     1       7.590   5.144  13.383  0.00  0.00    +0.000 A 
ATOM     13  C   UNL     1       7.547   5.027  11.994  0.00  0.00    +0.000 A 
ATOM     14  C   UNL     1       6.662   4.130  11.399  0.00  0.00    +0.000 A 
ATOM     15  C   UNL     1       5.823   3.336  12.183  0.00  0.00    +0.000 A 
ATOM     16  C   UNL     1       5.883   3.436  13.577  0.00  0.00    +0.000 A 
BRANCH  15  17
ATOM     17  O   UNL     1       4.987   2.517  11.474  0.00  0.00    +0.000 OA
ATOM     18  C   UNL     1       3.853   3.125  10.865  0.00  0.00    +0.000 C 
ENDBRANCH  15  17
ENDBRANCH   8  11
BRANCH   1  19
ATOM     19  C   UNL     1       3.535   3.798  19.949  0.00  0.00    +0.000 C 
BRANCH  19  21
ATOM     20  N   UNL     1       2.993   6.086  19.253  0.00  0.00    +0.000 N 
ATOM     21  C   UNL     1       2.630   5.019  20.058  0.00  0.00    +0.000 C 
ATOM     22  O   UNL     1       1.703   5.001  20.866  0.00  0.00    +0.000 OA
ATOM     23  H   UNL     1       3.747   5.944  18.586  0.00  0.00    +0.000 HD
BRANCH  20  27
ATOM     24  C   UNL     1       1.088   9.867  19.034  0.00  0.00    +0.000 A 
ATOM     25  C   UNL     1       1.073   9.150  20.233  0.00  0.00    +0.000 A 
ATOM     26  C   UNL     1       1.701   7.903  20.322  0.00  0.00    +0.000 A 
ATOM     27  C   UNL     1       2.358   7.350  19.220  0.00  0.00    +0.000 A 
ATOM     28  C   UNL     1       2.399   8.082  18.027  0.00  0.00    +0.000 A 
ATOM     29  C   UNL     1       1.755   9.326  17.929  0.00  0.00    +0.000 A 
BRANCH  24  30
ATOM     30  C   UNL     1       0.399  11.185  19.002  0.00  0.00    +0.000 C 
ATOM     31  O   UNL     1      -0.815  11.314  19.069  0.00  0.00    +0.000 OA
BRANCH  30  33
ATOM     32  C   UNL     1       0.728  13.427  18.442  0.00  0.00    +0.000 C 
ATOM     33  O   UNL     1       1.297  12.196  18.891  0.00  0.00    +0.000 OA
ENDBRANCH  30  33
ENDBRANCH  24  30
ENDBRANCH  20  27
ENDBRANCH  19  21
ENDBRANCH   1  19
TORSDOF 7
ENDMDL
MODEL 5
REMARK VINA RESULT:      -8.0      1.336      2.024
REMARK  Name = 
REMARK  9 active torsions:
REMARK  status: ('A' for Active; 'I' for Inactive)
REMARK    1  A    between atoms: C_1  and  O_2
REMARK    2  A    between atoms: O_2  and  C_3
REMARK    3  A    between atoms: C_3  and  C_5
REMARK    4  A    between atoms: C_8  and  N_9
REMARK    5  A    between atoms: C_10  and  C_12
REMARK    6  A    between atoms: C_12  and  N_13
REMARK    7  A    between atoms: N_20  and  C_21
REMARK    8  A    between atoms: C_25  and  O_26
REMARK    9  A    between atoms: O_26  and  C_27
REMARK                            x       y       z     vdW  Elec       q    Type
REMARK                         _______ _______ _______ _____ _____    ______ ____
ROOT
ATOM      1  N   UNL     1       4.844   4.677  18.243  0.00  0.00    +0.000 N 
ATOM      2  C   UNL     1       4.167   3.813  17.386  0.00  0.00    +0.000 A 
ATOM      3  N   UNL     1       4.465   3.595  16.139  0.00  0.00    +0.000 NA
ATOM      4  C   UNL     1       5.556   4.290  15.715  0.00  0.00    +0.000 A 
ATOM      5  C   UNL     1       6.334   5.136  16.469  0.00  0.00    +0.000 A 
ATOM      6  N   UNL     1       7.365   5.626  15.741  0.00  0.00    +0.000 NA
ATOM      7  N   UNL     1       7.269   5.104  14.522  0.00  0.00    +0.000 NA
ATOM      8  N   UNL     1       6.153   4.311  14.459  0.00  0.00    +0.000 N 
ATOM      9  C   UNL     1       5.990   5.377  17.849  0.00  0.00    +0.000 A 
ATOM     10  O   UNL     1       6.624   6.109  18.605  0.00  0.00    +0.000 OA
ENDROOT
BRANCH   8  11
ATOM     11  C   UNL     1       5.758   3.706  13.232  0.00  0.00    +0.000 A 
ATOM     12  C   UNL     1       4.603   4.166  12.579  0.00  0.00    +0.000 A 
ATOM     13  C   UNL     1       4.169   3.555  11.402  0.00  0.00    +0.000 A 
ATOM     14  C   UNL     1       4.878   2.475  10.879  0.00  0.00    +0.000 A 
ATOM     15  C   UNL     1       6.028   2.005  11.516  0.00  0.00    +0.000 A 
ATOM     16  C   UNL     1       6.476   2.633  12.683  0.00  0.00    +0.000 A 
BRANCH  15  17
ATOM     17  O   UNL     1       6.613   0.925  10.911  0.00  0.00    +0.000 OA
ATOM     18  C   UNL     1       6.148  -0.362  11.302  0.00  0.00    +0.000 C 
ENDBRANCH  15  17
ENDBRANCH   8  11
BRANCH   1  19
ATOM     19  C   UNL     1       4.382   4.843  19.610  0.00  0.00    +0.000 C 
BRANCH  19  21
ATOM     20  N   UNL     1       3.251   6.977  19.185  0.00  0.00    +0.000 N 
ATOM     21  C   UNL     1       3.095   5.659  19.581  0.00  0.00    +0.000 C 
ATOM     22  O   UNL     1       2.049   5.130  19.953  0.00  0.00    +0.000 OA
ATOM     23  H   UNL     1       4.164   7.267  18.845  0.00  0.00    +0.000 HD
BRANCH  20  27
ATOM     24  C   UNL     1       0.196   9.917  19.164  0.00  0.00    +0.000 A 
ATOM     25  C   UNL     1       0.810   9.544  17.965  0.00  0.00    +0.000 A 
ATOM     26  C   UNL     1       1.816   8.572  17.956  0.00  0.00    +0.000 A 
ATOM     27  C   UNL     1       2.227   7.952  19.138  0.00  0.00    +0.000 A 
ATOM     28  C   UNL     1       1.592   8.305  20.336  0.00  0.00    +0.000 A 
ATOM     29  C   UNL     1       0.593   9.292  20.352  0.00  0.00    +0.000 A 
BRANCH  24  30
ATOM     30  C   UNL     1      -0.864  10.959  19.110  0.00  0.00    +0.000 C 
ATOM     31  O   UNL     1      -1.079  11.750  20.016  0.00  0.00    +0.000 OA
BRANCH  30  33
ATOM     32  C   UNL     1      -2.854  11.450  17.994  0.00  0.00    +0.000 C 
ATOM     33  O   UNL     1      -1.537  10.901  17.934  0.00  0.00    +0.000 OA
ENDBRANCH  30  33
ENDBRANCH  24  30
ENDBRANCH  20  27
ENDBRANCH  19  21
ENDBRANCH   1  19
TORSDOF 7
ENDMDL
MODEL 6
REMARK VINA RESULT:      -8.0      1.189      1.370
REMARK  Name = 
REMARK  9 active torsions:
REMARK  status: ('A' for Active; 'I' for Inactive)
REMARK    1  A    between atoms: C_1  and  O_2
REMARK    2  A    between atoms: O_2  and  C_3
REMARK    3  A    between atoms: C_3  and  C_5
REMARK    4  A    between atoms: C_8  and  N_9
REMARK    5  A    between atoms: C_10  and  C_12
REMARK    6  A    between atoms: C_12  and  N_13
REMARK    7  A    between atoms: N_20  and  C_21
REMARK    8  A    between atoms: C_25  and  O_26
REMARK    9  A    between atoms: O_26  and  C_27
REMARK                            x       y       z     vdW  Elec       q    Type
REMARK                         _______ _______ _______ _____ _____    ______ ____
ROOT
ATOM      1  N   UNL     1       4.144   4.971  18.742  0.00  0.00    +0.000 N 
ATOM      2  C   UNL     1       3.649   4.719  17.465  0.00  0.00    +0.000 A 
ATOM      3  N   UNL     1       4.368   4.530  16.397  0.00  0.00    +0.000 NA
ATOM      4  C   UNL     1       5.708   4.577  16.633  0.00  0.00    +0.000 A 
ATOM      5  C   UNL     1       6.321   4.774  17.848  0.00  0.00    +0.000 A 
ATOM      6  N   UNL     1       7.668   4.720  17.726  0.00  0.00    +0.000 NA
ATOM      7  N   UNL     1       7.939   4.486  16.446  0.00  0.00    +0.000 NA
ATOM      8  N   UNL     1       6.765   4.430  15.741  0.00  0.00    +0.000 N 
ATOM      9  C   UNL     1       5.515   4.989  19.024  0.00  0.00    +0.000 A 
ATOM     10  O   UNL     1       5.966   5.167  20.153  0.00  0.00    +0.000 OA
ENDROOT
BRANCH   8  11
ATOM     11  C   UNL     1       6.773   4.288  14.325  0.00  0.00    +0.000 A 
ATOM     12  C   UNL     1       7.649   5.075  13.560  0.00  0.00    +0.000 A 
ATOM     13  C   UNL     1       7.639   4.989  12.167  0.00  0.00    +0.000 A 
ATOM     14  C   UNL     1       6.746   4.128  11.531  0.00  0.00    +0.000 A 
ATOM     15  C   UNL     1       5.868   3.340  12.277  0.00  0.00    +0.000 A 
ATOM     16  C   UNL     1       5.895   3.409  13.674  0.00  0.00    +0.000 A 
BRANCH  15  17
ATOM     17  O   UNL     1       5.029   2.559  11.529  0.00  0.00    +0.000 OA
ATOM     18  C   UNL     1       3.851   3.178  11.023  0.00  0.00    +0.000 C 
ENDBRANCH  15  17
ENDBRANCH   8  11
BRANCH   1  19
ATOM     19  C   UNL     1       3.220   5.188  19.841  0.00  0.00    +0.000 C 
BRANCH  19  21
ATOM     20  N   UNL     1       1.964   7.044  20.839  0.00  0.00    +0.000 N 
ATOM     21  C   UNL     1       2.685   6.612  19.737  0.00  0.00    +0.000 C 
ATOM     22  O   UNL     1       2.870   7.241  18.697  0.00  0.00    +0.000 OA
ATOM     23  H   UNL     1       1.939   6.442  21.657  0.00  0.00    +0.000 HD
BRANCH  20  27
ATOM     24  C   UNL     1      -0.030  10.777  21.089  0.00  0.00    +0.000 A 
ATOM     25  C   UNL     1       0.334  10.104  22.258  0.00  0.00    +0.000 A 
ATOM     26  C   UNL     1       0.996   8.873  22.192  0.00  0.00    +0.000 A 
ATOM     27  C   UNL     1       1.311   8.293  20.960  0.00  0.00    +0.000 A 
ATOM     28  C   UNL     1       0.972   8.982  19.789  0.00  0.00    +0.000 A 
ATOM     29  C   UNL     1       0.293  10.209  19.852  0.00  0.00    +0.000 A 
BRANCH  24  30
ATOM     30  C   UNL     1      -0.736  12.079  21.226  0.00  0.00    +0.000 C 
ATOM     31  O   UNL     1      -1.667  12.420  20.512  0.00  0.00    +0.000 OA
BRANCH  30  33
ATOM     32  C   UNL     1       0.496  13.976  21.801  0.00  0.00    +0.000 C 
ATOM     33  O   UNL     1      -0.205  12.811  22.237  0.00  0.00    +0.000 OA
ENDBRANCH  30  33
ENDBRANCH  24  30
ENDBRANCH  20  27
ENDBRANCH  19  21
ENDBRANCH   1  19
TORSDOF 7
ENDMDL
MODEL 7
REMARK VINA RESULT:      -7.9      1.245      1.523
REMARK  Name = 
REMARK  9 active torsions:
REMARK  status: ('A' for Active; 'I' for Inactive)
REMARK    1  A    between atoms: C_1  and  O_2
REMARK    2  A    between atoms: O_2  and  C_3
REMARK    3  A    between atoms: C_3  and  C_5
REMARK    4  A    between atoms: C_8  and  N_9
REMARK    5  A    between atoms: C_10  and  C_12
REMARK    6  A    between atoms: C_12  and  N_13
REMARK    7  A    between atoms: N_20  and  C_21
REMARK    8  A    between atoms: C_25  and  O_26
REMARK    9  A    between atoms: O_26  and  C_27
REMARK                            x       y       z     vdW  Elec       q    Type
REMARK                         _______ _______ _______ _____ _____    ______ ____
ROOT
ATOM      1  N   UNL     1       3.905   4.894  18.661  0.00  0.00    +0.000 N 
ATOM      2  C   UNL     1       3.494   4.601  17.363  0.00  0.00    +0.000 A 
ATOM      3  N   UNL     1       4.278   4.439  16.338  0.00  0.00    +0.000 NA
ATOM      4  C   UNL     1       5.598   4.559  16.644  0.00  0.00    +0.000 A 
ATOM      5  C   UNL     1       6.134   4.800  17.888  0.00  0.00    +0.000 A 
ATOM      6  N   UNL     1       7.487   4.816  17.839  0.00  0.00    +0.000 NA
ATOM      7  N   UNL     1       7.838   4.583  16.578  0.00  0.00    +0.000 NA
ATOM      8  N   UNL     1       6.709   4.458  15.812  0.00  0.00    +0.000 N 
ATOM      9  C   UNL     1       5.256   4.987  19.015  0.00  0.00    +0.000 A 
ATOM     10  O   UNL     1       5.636   5.201  20.165  0.00  0.00    +0.000 OA
ENDROOT
BRANCH   8  11
ATOM     11  C   UNL     1       6.800   4.300  14.400  0.00  0.00    +0.000 A 
ATOM     12  C   UNL     1       7.612   5.177  13.662  0.00  0.00    +0.000 A 
ATOM     13  C   UNL     1       7.678   5.073  12.273  0.00  0.00    +0.000 A 
ATOM     14  C   UNL     1       6.925   4.104  11.612  0.00  0.00    +0.000 A 
ATOM     15  C   UNL     1       6.112   3.226  12.330  0.00  0.00    +0.000 A 
ATOM     16  C   UNL     1       6.064   3.314  13.725  0.00  0.00    +0.000 A 
BRANCH  15  17
ATOM     17  O   UNL     1       5.408   2.341  11.559  0.00  0.00    +0.000 OA
ATOM     18  C   UNL     1       6.095   1.171  11.129  0.00  0.00    +0.000 C 
ENDBRANCH  15  17
ENDBRANCH   8  11
BRANCH   1  19
ATOM     19  C   UNL     1       2.913   5.074  19.706  0.00  0.00    +0.000 C 
BRANCH  19  21
ATOM     20  N   UNL     1       1.823   6.952  20.847  0.00  0.00    +0.000 N 
ATOM     21  C   UNL     1       2.476   6.535  19.699  0.00  0.00    +0.000 C 
ATOM     22  O   UNL     1       2.673   7.208  18.689  0.00  0.00    +0.000 OA
ATOM     23  H   UNL     1       1.781   6.307  21.632  0.00  0.00    +0.000 HD
BRANCH  20  27
ATOM     24  C   UNL     1       0.132  10.805  21.366  0.00  0.00    +0.000 A 
ATOM     25  C   UNL     1       0.216   9.931  22.453  0.00  0.00    +0.000 A 
ATOM     26  C   UNL     1       0.775   8.658  22.298  0.00  0.00    +0.000 A 
ATOM     27  C   UNL     1       1.264   8.234  21.060  0.00  0.00    +0.000 A 
ATOM     28  C   UNL     1       1.206   9.121  19.978  0.00  0.00    +0.000 A 
ATOM     29  C   UNL     1       0.630  10.393  20.125  0.00  0.00    +0.000 A 
BRANCH  24  30
ATOM     30  C   UNL     1      -0.477  12.143  21.593  0.00  0.00    +0.000 C 
ATOM     31  O   UNL     1       0.143  13.100  22.033  0.00  0.00    +0.000 OA
BRANCH  30  33
ATOM     32  C   UNL     1      -2.677  12.342  22.345  0.00  0.00    +0.000 C 
ATOM     33  O   UNL     1      -1.788  12.141  21.246  0.00  0.00    +0.000 OA
ENDBRANCH  30  33
ENDBRANCH  24  30
ENDBRANCH  20  27
ENDBRANCH  19  21
ENDBRANCH   1  19
TORSDOF 7
ENDMDL
MODEL 8
REMARK VINA RESULT:      -7.6      3.580      6.888
REMARK  Name = 
REMARK  9 active torsions:
REMARK  status: ('A' for Active; 'I' for Inactive)
REMARK    1  A    between atoms: C_1  and  O_2
REMARK    2  A    between atoms: O_2  and  C_3
REMARK    3  A    between atoms: C_3  and  C_5
REMARK    4  A    between atoms: C_8  and  N_9
REMARK    5  A    between atoms: C_10  and  C_12
REMARK    6  A    between atoms: C_12  and  N_13
REMARK    7  A    between atoms: N_20  and  C_21
REMARK    8  A    between atoms: C_25  and  O_26
REMARK    9  A    between atoms: O_26  and  C_27
REMARK                            x       y       z     vdW  Elec       q    Type
REMARK                         _______ _______ _______ _____ _____    ______ ____
ROOT
ATOM      1  N   UNL     1       1.101  10.599  19.205  0.00  0.00    +0.000 N 
ATOM      2  C   UNL     1       1.560  10.052  18.009  0.00  0.00    +0.000 A 
ATOM      3  N   UNL     1       1.983   8.832  17.847  0.00  0.00    +0.000 NA
ATOM      4  C   UNL     1       1.920   8.084  18.982  0.00  0.00    +0.000 A 
ATOM      5  C   UNL     1       1.448   8.489  20.208  0.00  0.00    +0.000 A 
ATOM      6  N   UNL     1       1.490   7.475  21.104  0.00  0.00    +0.000 NA
ATOM      7  N   UNL     1       1.980   6.412  20.474  0.00  0.00    +0.000 NA
ATOM      8  N   UNL     1       2.289   6.758  19.184  0.00  0.00    +0.000 N 
ATOM      9  C   UNL     1       0.989   9.845  20.379  0.00  0.00    +0.000 A 
ATOM     10  O   UNL     1       0.545  10.301  21.431  0.00  0.00    +0.000 OA
ENDROOT
BRANCH   8  11
ATOM     11  C   UNL     1       2.925   5.827  18.314  0.00  0.00    +0.000 A 
ATOM     12  C   UNL     1       2.309   4.590  18.062  0.00  0.00    +0.000 A 
ATOM     13  C   UNL     1       2.937   3.643  17.253  0.00  0.00    +0.000 A 
ATOM     14  C   UNL     1       4.188   3.920  16.703  0.00  0.00    +0.000 A 
ATOM     15  C   UNL     1       4.814   5.144  16.944  0.00  0.00    +0.000 A 
ATOM     16  C   UNL     1       4.173   6.102  17.736  0.00  0.00    +0.000 A 
BRANCH  15  17
ATOM     17  O   UNL     1       6.048   5.276  16.366  0.00  0.00    +0.000 OA
ATOM     18  C   UNL     1       7.050   5.939  17.129  0.00  0.00    +0.000 C 
ENDBRANCH  15  17
ENDBRANCH   8  11
BRANCH   1  19
ATOM     19  C   UNL     1       0.682  11.989  19.246  0.00  0.00    +0.000 C 
BRANCH  19  21
ATOM     20  N   UNL     1      -1.006  12.732  20.862  0.00  0.00    +0.000 N 
ATOM     21  C   UNL     1      -0.776  12.033  19.688  0.00  0.00    +0.000 C 
ATOM     22  O   UNL     1      -1.614  11.420  19.031  0.00  0.00    +0.000 OA
ATOM     23  H   UNL     1      -0.229  13.243  21.272  0.00  0.00    +0.000 HD
BRANCH  20  27
ATOM     24  C   UNL     1      -4.696  13.093  22.919  0.00  0.00    +0.000 A 
ATOM     25  C   UNL     1      -4.537  13.692  21.667  0.00  0.00    +0.000 A 
ATOM     26  C   UNL     1      -3.327  13.578  20.974  0.00  0.00    +0.000 A 
ATOM     27  C   UNL     1      -2.255  12.863  21.514  0.00  0.00    +0.000 A 
ATOM     28  C   UNL     1      -2.424  12.238  22.756  0.00  0.00    +0.000 A 
ATOM     29  C   UNL     1      -3.631  12.365  23.462  0.00  0.00    +0.000 A 
BRANCH  24  30
ATOM     30  C   UNL     1      -6.004  13.254  23.608  0.00  0.00    +0.000 C 
ATOM     31  O   UNL     1      -6.471  14.339  23.924  0.00  0.00    +0.000 OA
BRANCH  30  33
ATOM     32  C   UNL     1      -7.809  11.862  23.107  0.00  0.00    +0.000 C 
ATOM     33  O   UNL     1      -6.587  12.049  23.823  0.00  0.00    +0.000 OA
ENDBRANCH  30  33
ENDBRANCH  24  30
ENDBRANCH  20  27
ENDBRANCH  19  21
ENDBRANCH   1  19
TORSDOF 7
ENDMDL
MODEL 9
REMARK VINA RESULT:      -7.6      3.844      6.306
REMARK  Name = 
REMARK  9 active torsions:
REMARK  status: ('A' for Active; 'I' for Inactive)
REMARK    1  A    between atoms: C_1  and  O_2
REMARK    2  A    between atoms: O_2  and  C_3
REMARK    3  A    between atoms: C_3  and  C_5
REMARK    4  A    between atoms: C_8  and  N_9
REMARK    5  A    between atoms: C_10  and  C_12
REMARK    6  A    between atoms: C_12  and  N_13
REMARK    7  A    between atoms: N_20  and  C_21
REMARK    8  A    between atoms: C_25  and  O_26
REMARK    9  A    between atoms: O_26  and  C_27
REMARK                            x       y       z     vdW  Elec       q    Type
REMARK                         _______ _______ _______ _____ _____    ______ ____
ROOT
ATOM      1  N   UNL     1       0.751   8.939  19.980  0.00  0.00    +0.000 N 
ATOM      2  C   UNL     1       1.437   9.059  18.774  0.00  0.00    +0.000 A 
ATOM      3  N   UNL     1       2.292   8.201  18.299  0.00  0.00    +0.000 NA
ATOM      4  C   UNL     1       2.461   7.111  19.095  0.00  0.00    +0.000 A 
ATOM      5  C   UNL     1       1.815   6.852  20.282  0.00  0.00    +0.000 A 
ATOM      6  N   UNL     1       2.192   5.655  20.789  0.00  0.00    +0.000 NA
ATOM      7  N   UNL     1       3.073   5.129  19.943  0.00  0.00    +0.000 NA
ATOM      8  N   UNL     1       3.289   6.008  18.915  0.00  0.00    +0.000 N 
ATOM      9  C   UNL     1       0.875   7.814  20.803  0.00  0.00    +0.000 A 
ATOM     10  O   UNL     1       0.244   7.673  21.848  0.00  0.00    +0.000 OA
ENDROOT
BRANCH   8  11
ATOM     11  C   UNL     1       4.266   5.734  17.916  0.00  0.00    +0.000 A 
ATOM     12  C   UNL     1       4.093   4.626  17.071  0.00  0.00    +0.000 A 
ATOM     13  C   UNL     1       5.062   4.308  16.119  0.00  0.00    +0.000 A 
ATOM     14  C   UNL     1       6.214   5.086  16.015  0.00  0.00    +0.000 A 
ATOM     15  C   UNL     1       6.403   6.189  16.848  0.00  0.00    +0.000 A 
ATOM     16  C   UNL     1       5.420   6.522  17.787  0.00  0.00    +0.000 A 
BRANCH  15  17
ATOM     17  O   UNL     1       7.586   6.850  16.659  0.00  0.00    +0.000 OA
ATOM     18  C   UNL     1       7.878   7.919  17.553  0.00  0.00    +0.000 C 
ENDBRANCH  15  17
ENDBRANCH   8  11
BRANCH   1  19
ATOM     19  C   UNL     1      -0.158   9.992  20.399  0.00  0.00    +0.000 C 
BRANCH  19  21
ATOM     20  N   UNL     1       0.429  12.089  19.272  0.00  0.00    +0.000 N 
ATOM     21  C   UNL     1       0.609  11.309  20.402  0.00  0.00    +0.000 C 
ATOM     22  O   UNL     1       1.357  11.558  21.346  0.00  0.00    +0.000 OA
ATOM     23  H   UNL     1      -0.266  11.791  18.594  0.00  0.00    +0.000 HD
BRANCH  20  27
ATOM     24  C   UNL     1       2.430  15.720  18.379  0.00  0.00    +0.000 A 
ATOM     25  C   UNL     1       1.287  15.735  19.183  0.00  0.00    +0.000 A 
ATOM     26  C   UNL     1       0.619  14.545  19.490  0.00  0.00    +0.000 A 
ATOM     27  C   UNL     1       1.078  13.318  19.005  0.00  0.00    +0.000 A 
ATOM     28  C   UNL     1       2.240  13.299  18.224  0.00  0.00    +0.000 A 
ATOM     29  C   UNL     1       2.904  14.493  17.900  0.00  0.00    +0.000 A 
BRANCH  24  30
ATOM     30  C   UNL     1       3.093  17.018  18.085  0.00  0.00    +0.000 C 
ATOM     31  O   UNL     1       3.043  17.570  16.996  0.00  0.00    +0.000 OA
BRANCH  30  33
ATOM     32  C   UNL     1       5.095  17.038  19.284  0.00  0.00    +0.000 C 
ATOM     33  O   UNL     1       3.743  17.486  19.180  0.00  0.00    +0.000 OA
ENDBRANCH  30  33
ENDBRANCH  24  30
ENDBRANCH  20  27
ENDBRANCH  19  21
ENDBRANCH   1  19
TORSDOF 7
ENDMDL
