MODEL 1
REMARK VINA RESULT:      -8.4      0.000      0.000
REMARK  Name = 
REMARK  8 active torsions:
REMARK  status: ('A' for Active; 'I' for Inactive)
REMARK    1  A    between atoms: C_1  and  C_2
REMARK    2  A    between atoms: N_4  and  C_5
REMARK    3  A    between atoms: C_8  and  C_9
REMARK    4  A    between atoms: C_9  and  C_10
REMARK    5  A    between atoms: N_17  and  C_18
REMARK    6  A    between atoms: C_18  and  C_19
REMARK    7  A    between atoms: N_28  and  C_29
REMARK    8  A    between atoms: C_29  and  C_30
REMARK                            x       y       z     vdW  Elec       q    Type
REMARK                         _______ _______ _______ _____ _____    ______ ____
ROOT
ATOM      1  C   UNL     1       1.056  10.142  18.452  0.00  0.00    +0.000 A 
ATOM      2  N   UNL     1      -0.163   9.779  18.081  0.00  0.00    +0.000 NA
ATOM      3  C   UNL     1      -0.998  10.616  18.752  0.00  0.00    +0.000 A 
ATOM      4  C   UNL     1      -0.319  11.444  19.588  0.00  0.00    +0.000 A 
ATOM      5  N   UNL     1       1.000  11.144  19.399  0.00  0.00    +0.000 N 
ATOM      6  C   UNL     1      -0.943  12.436  20.383  0.00  0.00    +0.000 A 
ATOM      7  O   UNL     1      -0.308  13.168  21.139  0.00  0.00    +0.000 OA
ATOM      8  N   UNL     1      -2.323  12.518  20.172  0.00  0.00    +0.000 N 
ATOM      9  C   UNL     1      -2.975  11.880  19.100  0.00  0.00    +0.000 A 
ATOM     10  O   UNL     1      -4.024  12.324  18.625  0.00  0.00    +0.000 OA
ATOM     11  N   UNL     1      -2.351  10.750  18.552  0.00  0.00    +0.000 N 
ATOM     12  H   UNL     1       1.788  11.630  19.810  0.00  0.00    +0.000 HD
ENDROOT
BRANCH   1  13
ATOM     13  C   UNL     1       2.335   9.600  17.911  0.00  0.00    +0.000 C 
BRANCH  13  17
ATOM     14  C   UNL     1       2.977   5.465  19.083  0.00  0.00    +0.000 A 
ATOM     15  C   UNL     1       2.314   6.357  19.924  0.00  0.00    +0.000 A 
ATOM     16  C   UNL     1       2.120   7.692  19.550  0.00  0.00    +0.000 A 
ATOM     17  C   UNL     1       2.595   8.166  18.323  0.00  0.00    +0.000 A 
ATOM     18  C   UNL     1       3.275   7.271  17.483  0.00  0.00    +0.000 A 
ATOM     19  C   UNL     1       3.478   5.939  17.866  0.00  0.00    +0.000 A 
BRANCH  14  23
ATOM     20  C   UNL     1       4.284   1.988  19.757  0.00  0.00    +0.000 C 
ATOM     21  C   UNL     1       4.412   3.464  19.484  0.00  0.00    +0.000 C 
ATOM     22  O   UNL     1       5.519   3.975  19.345  0.00  0.00    +0.000 OA
ATOM     23  N   UNL     1       3.187   4.106  19.412  0.00  0.00    +0.000 N 
ATOM     24  H   UNL     1       2.371   3.582  19.705  0.00  0.00    +0.000 HD
ENDBRANCH  14  23
ENDBRANCH  13  17
ENDBRANCH   1  13
BRANCH   8  25
ATOM     25  C   UNL     1      -3.055  13.573  20.870  0.00  0.00    +0.000 C 
BRANCH  25  26
ATOM     26  C   UNL     1      -3.852  13.104  22.068  0.00  0.00    +0.000 A 
ATOM     27  C   UNL     1      -3.221  12.727  23.263  0.00  0.00    +0.000 A 
ATOM     28  C   UNL     1      -3.974  12.411  24.402  0.00  0.00    +0.000 A 
ATOM     29  C   UNL     1      -5.367  12.462  24.361  0.00  0.00    +0.000 A 
ATOM     30  C   UNL     1      -6.009  12.807  23.176  0.00  0.00    +0.000 A 
ATOM     31  C   UNL     1      -5.253  13.119  22.044  0.00  0.00    +0.000 A 
ATOM     32  F   UNL     1      -5.897  13.474  20.925  0.00  0.00    +0.000 F 
ENDBRANCH  25  26
ENDBRANCH   8  25
BRANCH  11  33
ATOM     33  C   UNL     1      -3.045   9.982  17.524  0.00  0.00    +0.000 C 
BRANCH  33  34
ATOM     34  C   UNL     1      -2.665  10.385  16.123  0.00  0.00    +0.000 C 
ATOM     35  C   UNL     1      -3.144   9.634  14.905  0.00  0.00    +0.000 C 
ATOM     36  C   UNL     1      -3.707  10.993  15.212  0.00  0.00    +0.000 C 
ENDBRANCH  33  34
ENDBRANCH  11  33
TORSDOF 7
ENDMDL
MODEL 2
REMARK VINA RESULT:      -8.1      0.906      1.475
REMARK  Name = 
REMARK  8 active torsions:
REMARK  status: ('A' for Active; 'I' for Inactive)
REMARK    1  A    between atoms: C_1  and  C_2
REMARK    2  A    between atoms: N_4  and  C_5
REMARK    3  A    between atoms: C_8  and  C_9
REMARK    4  A    between atoms: C_9  and  C_10
REMARK    5  A    between atoms: N_17  and  C_18
REMARK    6  A    between atoms: C_18  and  C_19
REMARK    7  A    between atoms: N_28  and  C_29
REMARK    8  A    between atoms: C_29  and  C_30
REMARK                            x       y       z     vdW  Elec       q    Type
REMARK                         _______ _______ _______ _____ _____    ______ ____
ROOT
ATOM      1  C   UNL     1       1.034  10.264  18.544  0.00  0.00    +0.000 A 
ATOM      2  N   UNL     1      -0.221   9.964  18.246  0.00  0.00    +0.000 NA
ATOM      3  C   UNL     1      -0.971  10.838  18.968  0.00  0.00    +0.000 A 
ATOM      4  C   UNL     1      -0.204  11.627  19.764  0.00  0.00    +0.000 A 
ATOM      5  N   UNL     1       1.085  11.262  19.495  0.00  0.00    +0.000 N 
ATOM      6  C   UNL     1      -0.728  12.645  20.597  0.00  0.00    +0.000 A 
ATOM      7  O   UNL     1      -0.014  13.340  21.315  0.00  0.00    +0.000 OA
ATOM      8  N   UNL     1      -2.113  12.797  20.469  0.00  0.00    +0.000 N 
ATOM      9  C   UNL     1      -2.859  12.198  19.435  0.00  0.00    +0.000 A 
ATOM     10  O   UNL     1      -3.910  12.696  19.025  0.00  0.00    +0.000 OA
ATOM     11  N   UNL     1      -2.325  11.041  18.849  0.00  0.00    +0.000 N 
ATOM     12  H   UNL     1       1.920  11.706  19.860  0.00  0.00    +0.000 HD
ENDROOT
BRANCH   1  13
ATOM     13  C   UNL     1       2.250   9.661  17.928  0.00  0.00    +0.000 C 
BRANCH  13  17
ATOM     14  C   UNL     1       2.981   5.537  19.086  0.00  0.00    +0.000 A 
ATOM     15  C   UNL     1       3.383   6.017  17.841  0.00  0.00    +0.000 A 
ATOM     16  C   UNL     1       3.134   7.342  17.465  0.00  0.00    +0.000 A 
ATOM     17  C   UNL     1       2.468   8.217  18.329  0.00  0.00    +0.000 A 
ATOM     18  C   UNL     1       2.051   7.729  19.577  0.00  0.00    +0.000 A 
ATOM     19  C   UNL     1       2.290   6.398  19.945  0.00  0.00    +0.000 A 
BRANCH  14  23
ATOM     20  C   UNL     1       4.352   2.134  19.975  0.00  0.00    +0.000 C 
ATOM     21  C   UNL     1       4.453   3.582  19.574  0.00  0.00    +0.000 C 
ATOM     22  O   UNL     1       5.546   4.084  19.334  0.00  0.00    +0.000 OA
ATOM     23  N   UNL     1       3.220   4.211  19.515  0.00  0.00    +0.000 N 
ATOM     24  H   UNL     1       2.425   3.710  19.893  0.00  0.00    +0.000 HD
ENDBRANCH  14  23
ENDBRANCH  13  17
ENDBRANCH   1  13
BRANCH   8  25
ATOM     25  C   UNL     1      -2.748  13.884  21.210  0.00  0.00    +0.000 C 
BRANCH  25  26
ATOM     26  C   UNL     1      -3.674  13.435  22.320  0.00  0.00    +0.000 A 
ATOM     27  C   UNL     1      -5.068  13.515  22.186  0.00  0.00    +0.000 A 
ATOM     28  C   UNL     1      -5.914  12.985  23.169  0.00  0.00    +0.000 A 
ATOM     29  C   UNL     1      -5.379  12.374  24.303  0.00  0.00    +0.000 A 
ATOM     30  C   UNL     1      -3.999  12.312  24.466  0.00  0.00    +0.000 A 
ATOM     31  C   UNL     1      -3.162  12.843  23.482  0.00  0.00    +0.000 A 
ATOM     32  F   UNL     1      -1.837  12.744  23.652  0.00  0.00    +0.000 F 
ENDBRANCH  25  26
ENDBRANCH   8  25
BRANCH  11  33
ATOM     33  C   UNL     1      -3.117  10.314  17.862  0.00  0.00    +0.000 C 
BRANCH  33  34
ATOM     34  C   UNL     1      -2.831  10.735  16.444  0.00  0.00    +0.000 C 
ATOM     35  C   UNL     1      -2.848   9.761  15.291  0.00  0.00    +0.000 C 
ATOM     36  C   UNL     1      -3.954  10.768  15.433  0.00  0.00    +0.000 C 
ENDBRANCH  33  34
ENDBRANCH  11  33
TORSDOF 7
ENDMDL
MODEL 3
REMARK VINA RESULT:      -8.1      1.095      1.371
REMARK  Name = 
REMARK  8 active torsions:
REMARK  status: ('A' for Active; 'I' for Inactive)
REMARK    1  A    between atoms: C_1  and  C_2
REMARK    2  A    between atoms: N_4  and  C_5
REMARK    3  A    between atoms: C_8  and  C_9
REMARK    4  A    between atoms: C_9  and  C_10
REMARK    5  A    between atoms: N_17  and  C_18
REMARK    6  A    between atoms: C_18  and  C_19
REMARK    7  A    between atoms: N_28  and  C_29
REMARK    8  A    between atoms: C_29  and  C_30
REMARK                            x       y       z     vdW  Elec       q    Type
REMARK                         _______ _______ _______ _____ _____    ______ ____
ROOT
ATOM      1  C   UNL     1       0.591  10.308  18.498  0.00  0.00    +0.000 A 
ATOM      2  N   UNL     1      -0.617   9.967  18.075  0.00  0.00    +0.000 NA
ATOM      3  C   UNL     1      -1.466  10.801  18.730  0.00  0.00    +0.000 A 
ATOM      4  C   UNL     1      -0.811  11.606  19.605  0.00  0.00    +0.000 A 
ATOM      5  N   UNL     1       0.511  11.293  19.460  0.00  0.00    +0.000 N 
ATOM      6  C   UNL     1      -1.453  12.592  20.394  0.00  0.00    +0.000 A 
ATOM      7  O   UNL     1      -0.838  13.303  21.187  0.00  0.00    +0.000 OA
ATOM      8  N   UNL     1      -2.823  12.694  20.133  0.00  0.00    +0.000 N 
ATOM      9  C   UNL     1      -3.441  12.083  19.025  0.00  0.00    +0.000 A 
ATOM     10  O   UNL     1      -4.466  12.548  18.519  0.00  0.00    +0.000 OA
ATOM     11  N   UNL     1      -2.809  10.955  18.481  0.00  0.00    +0.000 N 
ATOM     12  H   UNL     1       1.289  11.763  19.909  0.00  0.00    +0.000 HD
ENDROOT
BRANCH   1  13
ATOM     13  C   UNL     1       1.883   9.760  17.996  0.00  0.00    +0.000 C 
BRANCH  13  17
ATOM     14  C   UNL     1       2.886   5.831  19.559  0.00  0.00    +0.000 A 
ATOM     15  C   UNL     1       3.280   6.219  18.280  0.00  0.00    +0.000 A 
ATOM     16  C   UNL     1       2.945   7.480  17.774  0.00  0.00    +0.000 A 
ATOM     17  C   UNL     1       2.197   8.381  18.539  0.00  0.00    +0.000 A 
ATOM     18  C   UNL     1       1.787   7.984  19.822  0.00  0.00    +0.000 A 
ATOM     19  C   UNL     1       2.114   6.717  20.320  0.00  0.00    +0.000 A 
BRANCH  14  23
ATOM     20  C   UNL     1       2.982   2.444  21.224  0.00  0.00    +0.000 C 
ATOM     21  C   UNL     1       2.308   3.637  20.596  0.00  0.00    +0.000 C 
ATOM     22  O   UNL     1       1.084   3.706  20.554  0.00  0.00    +0.000 OA
ATOM     23  N   UNL     1       3.210   4.573  20.118  0.00  0.00    +0.000 N 
ATOM     24  H   UNL     1       4.185   4.303  20.084  0.00  0.00    +0.000 HD
ENDBRANCH  14  23
ENDBRANCH  13  17
ENDBRANCH   1  13
BRANCH   8  25
ATOM     25  C   UNL     1      -3.568  13.745  20.821  0.00  0.00    +0.000 C 
BRANCH  25  26
ATOM     26  C   UNL     1      -4.403  13.267  21.990  0.00  0.00    +0.000 A 
ATOM     27  C   UNL     1      -3.810  12.865  23.195  0.00  0.00    +0.000 A 
ATOM     28  C   UNL     1      -4.597  12.541  24.308  0.00  0.00    +0.000 A 
ATOM     29  C   UNL     1      -5.988  12.608  24.230  0.00  0.00    +0.000 A 
ATOM     30  C   UNL     1      -6.593  12.977  23.033  0.00  0.00    +0.000 A 
ATOM     31  C   UNL     1      -5.802  13.297  21.928  0.00  0.00    +0.000 A 
ATOM     32  F   UNL     1      -6.412  13.677  20.797  0.00  0.00    +0.000 F 
ENDBRANCH  25  26
ENDBRANCH   8  25
BRANCH  11  33
ATOM     33  C   UNL     1      -3.472  10.214  17.414  0.00  0.00    +0.000 C 
BRANCH  33  34
ATOM     34  C   UNL     1      -3.085  10.682  16.035  0.00  0.00    +0.000 C 
ATOM     35  C   UNL     1      -2.664   9.728  14.944  0.00  0.00    +0.000 C 
ATOM     36  C   UNL     1      -4.003  10.406  14.867  0.00  0.00    +0.000 C 
ENDBRANCH  33  34
ENDBRANCH  11  33
TORSDOF 7
ENDMDL
MODEL 4
REMARK VINA RESULT:      -8.0      2.721      4.459
REMARK  Name = 
REMARK  8 active torsions:
REMARK  status: ('A' for Active; 'I' for Inactive)
REMARK    1  A    between atoms: C_1  and  C_2
REMARK    2  A    between atoms: N_4  and  C_5
REMARK    3  A    between atoms: C_8  and  C_9
REMARK    4  A    between atoms: C_9  and  C_10
REMARK    5  A    between atoms: N_17  and  C_18
REMARK    6  A    between atoms: C_18  and  C_19
REMARK    7  A    between atoms: N_28  and  C_29
REMARK    8  A    between atoms: C_29  and  C_30
REMARK                            x       y       z     vdW  Elec       q    Type
REMARK                         _______ _______ _______ _____ _____    ______ ____
ROOT
ATOM      1  C   UNL     1       0.118  11.032  18.585  0.00  0.00    +0.000 A 
ATOM      2  N   UNL     1      -0.066  11.910  19.560  0.00  0.00    +0.000 NA
ATOM      3  C   UNL     1      -1.407  12.131  19.584  0.00  0.00    +0.000 A 
ATOM      4  C   UNL     1      -2.049  11.460  18.593  0.00  0.00    +0.000 A 
ATOM      5  N   UNL     1      -1.073  10.752  17.949  0.00  0.00    +0.000 N 
ATOM      6  C   UNL     1      -3.453  11.489  18.409  0.00  0.00    +0.000 A 
ATOM      7  O   UNL     1      -4.010  10.879  17.499  0.00  0.00    +0.000 OA
ATOM      8  N   UNL     1      -4.117  12.230  19.392  0.00  0.00    +0.000 N 
ATOM      9  C   UNL     1      -3.495  12.667  20.576  0.00  0.00    +0.000 A 
ATOM     10  O   UNL     1      -4.137  12.855  21.613  0.00  0.00    +0.000 OA
ATOM     11  N   UNL     1      -2.101  12.824  20.547  0.00  0.00    +0.000 N 
ATOM     12  H   UNL     1      -1.217  10.080  17.204  0.00  0.00    +0.000 HD
ENDROOT
BRANCH   1  13
ATOM     13  C   UNL     1       1.409  10.380  18.224  0.00  0.00    +0.000 C 
BRANCH  13  17
ATOM     14  C   UNL     1       2.115   6.581  20.213  0.00  0.00    +0.000 A 
ATOM     15  C   UNL     1       2.538   6.798  18.902  0.00  0.00    +0.000 A 
ATOM     16  C   UNL     1       2.297   8.018  18.259  0.00  0.00    +0.000 A 
ATOM     17  C   UNL     1       1.619   9.049  18.916  0.00  0.00    +0.000 A 
ATOM     18  C   UNL     1       1.181   8.826  20.231  0.00  0.00    +0.000 A 
ATOM     19  C   UNL     1       1.413   7.599  20.866  0.00  0.00    +0.000 A 
BRANCH  14  23
ATOM     20  C   UNL     1       2.039   3.135  21.750  0.00  0.00    +0.000 C 
ATOM     21  C   UNL     1       1.595   4.212  20.796  0.00  0.00    +0.000 C 
ATOM     22  O   UNL     1       0.655   4.015  20.032  0.00  0.00    +0.000 OA
ATOM     23  N   UNL     1       2.345   5.372  20.907  0.00  0.00    +0.000 N 
ATOM     24  H   UNL     1       3.186   5.327  21.470  0.00  0.00    +0.000 HD
ENDBRANCH  14  23
ENDBRANCH  13  17
ENDBRANCH   1  13
BRANCH   8  25
ATOM     25  C   UNL     1      -5.578  12.249  19.356  0.00  0.00    +0.000 C 
BRANCH  25  26
ATOM     26  C   UNL     1      -6.179  13.485  18.723  0.00  0.00    +0.000 A 
ATOM     27  C   UNL     1      -6.211  14.712  19.401  0.00  0.00    +0.000 A 
ATOM     28  C   UNL     1      -6.659  15.875  18.759  0.00  0.00    +0.000 A 
ATOM     29  C   UNL     1      -7.088  15.825  17.433  0.00  0.00    +0.000 A 
ATOM     30  C   UNL     1      -7.090  14.611  16.755  0.00  0.00    +0.000 A 
ATOM     31  C   UNL     1      -6.643  13.457  17.401  0.00  0.00    +0.000 A 
ATOM     32  F   UNL     1      -6.630  12.307  16.714  0.00  0.00    +0.000 F 
ENDBRANCH  25  26
ENDBRANCH   8  25
BRANCH  11  33
ATOM     33  C   UNL     1      -1.424  13.392  21.708  0.00  0.00    +0.000 C 
BRANCH  33  34
ATOM     34  C   UNL     1      -1.003  14.825  21.509  0.00  0.00    +0.000 C 
ATOM     35  C   UNL     1      -1.918  15.861  20.903  0.00  0.00    +0.000 C 
ATOM     36  C   UNL     1      -1.608  15.908  22.372  0.00  0.00    +0.000 C 
ENDBRANCH  33  34
ENDBRANCH  11  33
TORSDOF 7
ENDMDL
MODEL 5
REMARK VINA RESULT:      -7.9      1.417      1.838
REMARK  Name = 
REMARK  8 active torsions:
REMARK  status: ('A' for Active; 'I' for Inactive)
REMARK    1  A    between atoms: C_1  and  C_2
REMARK    2  A    between atoms: N_4  and  C_5
REMARK    3  A    between atoms: C_8  and  C_9
REMARK    4  A    between atoms: C_9  and  C_10
REMARK    5  A    between atoms: N_17  and  C_18
REMARK    6  A    between atoms: C_18  and  C_19
REMARK    7  A    between atoms: N_28  and  C_29
REMARK    8  A    between atoms: C_29  and  C_30
REMARK                            x       y       z     vdW  Elec       q    Type
REMARK                         _______ _______ _______ _____ _____    ______ ____
ROOT
ATOM      1  C   UNL     1       0.472  10.527  18.679  0.00  0.00    +0.000 A 
ATOM      2  N   UNL     1      -0.752  10.204  18.287  0.00  0.00    +0.000 NA
ATOM      3  C   UNL     1      -1.572  11.048  18.966  0.00  0.00    +0.000 A 
ATOM      4  C   UNL     1      -0.883  11.841  19.827  0.00  0.00    +0.000 A 
ATOM      5  N   UNL     1       0.431  11.510  19.646  0.00  0.00    +0.000 N 
ATOM      6  C   UNL     1      -1.490  12.833  20.635  0.00  0.00    +0.000 A 
ATOM      7  O   UNL     1      -0.845  13.532  21.413  0.00  0.00    +0.000 OA
ATOM      8  N   UNL     1      -2.865  12.955  20.410  0.00  0.00    +0.000 N 
ATOM      9  C   UNL     1      -3.520  12.357  19.317  0.00  0.00    +0.000 A 
ATOM     10  O   UNL     1      -4.551  12.838  18.839  0.00  0.00    +0.000 OA
ATOM     11  N   UNL     1      -2.919  11.222  18.753  0.00  0.00    +0.000 N 
ATOM     12  H   UNL     1       1.226  11.967  20.076  0.00  0.00    +0.000 HD
ENDROOT
BRANCH   1  13
ATOM     13  C   UNL     1       1.742   9.962  18.142  0.00  0.00    +0.000 C 
BRANCH  13  17
ATOM     14  C   UNL     1       2.709   5.996  19.634  0.00  0.00    +0.000 A 
ATOM     15  C   UNL     1       3.041   6.378  18.335  0.00  0.00    +0.000 A 
ATOM     16  C   UNL     1       2.716   7.651  17.852  0.00  0.00    +0.000 A 
ATOM     17  C   UNL     1       2.043   8.572  18.662  0.00  0.00    +0.000 A 
ATOM     18  C   UNL     1       1.696   8.182  19.965  0.00  0.00    +0.000 A 
ATOM     19  C   UNL     1       2.011   6.902  20.440  0.00  0.00    +0.000 A 
BRANCH  14  23
ATOM     20  C   UNL     1       2.773   2.548  21.168  0.00  0.00    +0.000 C 
ATOM     21  C   UNL     1       2.117   3.746  20.532  0.00  0.00    +0.000 C 
ATOM     22  O   UNL     1       0.899   3.781  20.388  0.00  0.00    +0.000 OA
ATOM     23  N   UNL     1       3.025   4.727  20.169  0.00  0.00    +0.000 N 
ATOM     24  H   UNL     1       4.008   4.486  20.207  0.00  0.00    +0.000 HD
ENDBRANCH  14  23
ENDBRANCH  13  17
ENDBRANCH   1  13
BRANCH   8  25
ATOM     25  C   UNL     1      -3.577  14.015  21.120  0.00  0.00    +0.000 C 
BRANCH  25  26
ATOM     26  C   UNL     1      -4.484  13.532  22.232  0.00  0.00    +0.000 A 
ATOM     27  C   UNL     1      -5.864  13.379  22.035  0.00  0.00    +0.000 A 
ATOM     28  C   UNL     1      -6.672  12.817  23.033  0.00  0.00    +0.000 A 
ATOM     29  C   UNL     1      -6.113  12.406  24.243  0.00  0.00    +0.000 A 
ATOM     30  C   UNL     1      -4.751  12.578  24.465  0.00  0.00    +0.000 A 
ATOM     31  C   UNL     1      -3.952  13.139  23.467  0.00  0.00    +0.000 A 
ATOM     32  F   UNL     1      -2.639  13.266  23.699  0.00  0.00    +0.000 F 
ENDBRANCH  25  26
ENDBRANCH   8  25
BRANCH  11  33
ATOM     33  C   UNL     1      -3.620  10.494  17.701  0.00  0.00    +0.000 C 
BRANCH  33  34
ATOM     34  C   UNL     1      -3.126  10.826  16.317  0.00  0.00    +0.000 C 
ATOM     35  C   UNL     1      -2.709   9.765  15.328  0.00  0.00    +0.000 C 
ATOM     36  C   UNL     1      -3.993  10.516  15.119  0.00  0.00    +0.000 C 
ENDBRANCH  33  34
ENDBRANCH  11  33
TORSDOF 7
ENDMDL
MODEL 6
REMARK VINA RESULT:      -7.8      2.371      3.877
REMARK  Name = 
REMARK  8 active torsions:
REMARK  status: ('A' for Active; 'I' for Inactive)
REMARK    1  A    between atoms: C_1  and  C_2
REMARK    2  A    between atoms: N_4  and  C_5
REMARK    3  A    between atoms: C_8  and  C_9
REMARK    4  A    between atoms: C_9  and  C_10
REMARK    5  A    between atoms: N_17  and  C_18
REMARK    6  A    between atoms: C_18  and  C_19
REMARK    7  A    between atoms: N_28  and  C_29
REMARK    8  A    between atoms: C_29  and  C_30
REMARK                            x       y       z     vdW  Elec       q    Type
REMARK                         _______ _______ _______ _____ _____    ______ ____
ROOT
ATOM      1  C   UNL     1       0.521  10.510  18.537  0.00  0.00    +0.000 A 
ATOM      2  N   UNL     1       0.452  10.985  19.771  0.00  0.00    +0.000 NA
ATOM      3  C   UNL     1      -0.783  11.545  19.864  0.00  0.00    +0.000 A 
ATOM      4  C   UNL     1      -1.454  11.487  18.684  0.00  0.00    +0.000 A 
ATOM      5  N   UNL     1      -0.621  10.824  17.829  0.00  0.00    +0.000 N 
ATOM      6  C   UNL     1      -2.775  11.969  18.511  0.00  0.00    +0.000 A 
ATOM      7  O   UNL     1      -3.358  11.914  17.430  0.00  0.00    +0.000 OA
ATOM      8  N   UNL     1      -3.340  12.454  19.695  0.00  0.00    +0.000 N 
ATOM      9  C   UNL     1      -2.769  12.237  20.963  0.00  0.00    +0.000 A 
ATOM     10  O   UNL     1      -3.458  12.203  21.986  0.00  0.00    +0.000 OA
ATOM     11  N   UNL     1      -1.387  12.001  21.011  0.00  0.00    +0.000 N 
ATOM     12  H   UNL     1      -0.841  10.538  16.882  0.00  0.00    +0.000 HD
ENDROOT
BRANCH   1  13
ATOM     13  C   UNL     1       1.639   9.705  17.968  0.00  0.00    +0.000 C 
BRANCH  13  17
ATOM     14  C   UNL     1       2.363   5.951  20.033  0.00  0.00    +0.000 A 
ATOM     15  C   UNL     1       2.687   6.106  18.687  0.00  0.00    +0.000 A 
ATOM     16  C   UNL     1       2.441   7.312  18.020  0.00  0.00    +0.000 A 
ATOM     17  C   UNL     1       1.855   8.391  18.690  0.00  0.00    +0.000 A 
ATOM     18  C   UNL     1       1.516   8.230  20.042  0.00  0.00    +0.000 A 
ATOM     19  C   UNL     1       1.753   7.017  20.702  0.00  0.00    +0.000 A 
BRANCH  14  23
ATOM     20  C   UNL     1       2.251   2.606  21.779  0.00  0.00    +0.000 C 
ATOM     21  C   UNL     1       1.740   3.678  20.852  0.00  0.00    +0.000 C 
ATOM     22  O   UNL     1       0.661   3.545  20.284  0.00  0.00    +0.000 OA
ATOM     23  N   UNL     1       2.604   4.757  20.752  0.00  0.00    +0.000 N 
ATOM     24  H   UNL     1       3.526   4.652  21.155  0.00  0.00    +0.000 HD
ENDBRANCH  14  23
ENDBRANCH  13  17
ENDBRANCH   1  13
BRANCH   8  25
ATOM     25  C   UNL     1      -4.734  12.887  19.653  0.00  0.00    +0.000 C 
BRANCH  25  26
ATOM     26  C   UNL     1      -5.748  11.772  19.792  0.00  0.00    +0.000 A 
ATOM     27  C   UNL     1      -5.809  10.720  18.866  0.00  0.00    +0.000 A 
ATOM     28  C   UNL     1      -6.668   9.633  19.071  0.00  0.00    +0.000 A 
ATOM     29  C   UNL     1      -7.484   9.585  20.202  0.00  0.00    +0.000 A 
ATOM     30  C   UNL     1      -7.457  10.633  21.115  0.00  0.00    +0.000 A 
ATOM     31  C   UNL     1      -6.599  11.714  20.903  0.00  0.00    +0.000 A 
ATOM     32  F   UNL     1      -6.574  12.696  21.814  0.00  0.00    +0.000 F 
ENDBRANCH  25  26
ENDBRANCH   8  25
BRANCH  11  33
ATOM     33  C   UNL     1      -0.727  11.895  22.308  0.00  0.00    +0.000 C 
BRANCH  33  34
ATOM     34  C   UNL     1      -1.031  10.605  23.025  0.00  0.00    +0.000 C 
ATOM     35  C   UNL     1      -0.827   9.254  22.384  0.00  0.00    +0.000 C 
ATOM     36  C   UNL     1       0.104   9.712  23.470  0.00  0.00    +0.000 C 
ENDBRANCH  33  34
ENDBRANCH  11  33
TORSDOF 7
ENDMDL
MODEL 7
REMARK VINA RESULT:      -7.8      2.790      4.515
REMARK  Name = 
REMARK  8 active torsions:
REMARK  status: ('A' for Active; 'I' for Inactive)
REMARK    1  A    between atoms: C_1  and  C_2
REMARK    2  A    between atoms: N_4  and  C_5
REMARK    3  A    between atoms: C_8  and  C_9
REMARK    4  A    between atoms: C_9  and  C_10
REMARK    5  A    between atoms: N_17  and  C_18
REMARK    6  A    between atoms: C_18  and  C_19
REMARK    7  A    between atoms: N_28  and  C_29
REMARK    8  A    between atoms: C_29  and  C_30
REMARK                            x       y       z     vdW  Elec       q    Type
REMARK                         _______ _______ _______ _____ _____    ______ ____
ROOT
ATOM      1  C   UNL     1      -0.092  11.052  18.620  0.00  0.00    +0.000 A 
ATOM      2  N   UNL     1      -0.318  11.724  19.739  0.00  0.00    +0.000 NA
ATOM      3  C   UNL     1      -1.655  11.969  19.736  0.00  0.00    +0.000 A 
ATOM      4  C   UNL     1      -2.249  11.521  18.600  0.00  0.00    +0.000 A 
ATOM      5  N   UNL     1      -1.249  10.931  17.880  0.00  0.00    +0.000 N 
ATOM      6  C   UNL     1      -3.641  11.620  18.353  0.00  0.00    +0.000 A 
ATOM      7  O   UNL     1      -4.154  11.215  17.312  0.00  0.00    +0.000 OA
ATOM      8  N   UNL     1      -4.349  12.169  19.427  0.00  0.00    +0.000 N 
ATOM      9  C   UNL     1      -3.787  12.348  20.706  0.00  0.00    +0.000 A 
ATOM     10  O   UNL     1      -4.484  12.343  21.724  0.00  0.00    +0.000 OA
ATOM     11  N   UNL     1      -2.392  12.474  20.780  0.00  0.00    +0.000 N 
ATOM     12  H   UNL     1      -1.360  10.423  17.010  0.00  0.00    +0.000 HD
ENDROOT
BRANCH   1  13
ATOM     13  C   UNL     1       1.209  10.453  18.205  0.00  0.00    +0.000 C 
BRANCH  13  17
ATOM     14  C   UNL     1       2.035   6.734  20.295  0.00  0.00    +0.000 A 
ATOM     15  C   UNL     1       1.325   7.764  20.911  0.00  0.00    +0.000 A 
ATOM     16  C   UNL     1       1.072   8.966  20.240  0.00  0.00    +0.000 A 
ATOM     17  C   UNL     1       1.533   9.166  18.935  0.00  0.00    +0.000 A 
ATOM     18  C   UNL     1       2.260   8.135  18.320  0.00  0.00    +0.000 A 
ATOM     19  C   UNL     1       2.522   6.938  19.000  0.00  0.00    +0.000 A 
BRANCH  14  23
ATOM     20  C   UNL     1       2.057   3.225  21.687  0.00  0.00    +0.000 C 
ATOM     21  C   UNL     1       1.562   4.337  20.798  0.00  0.00    +0.000 C 
ATOM     22  O   UNL     1       0.593   4.161  20.067  0.00  0.00    +0.000 OA
ATOM     23  N   UNL     1       2.305   5.499  20.927  0.00  0.00    +0.000 N 
ATOM     24  H   UNL     1       3.170   5.441  21.451  0.00  0.00    +0.000 HD
ENDBRANCH  14  23
ENDBRANCH  13  17
ENDBRANCH   1  13
BRANCH   8  25
ATOM     25  C   UNL     1      -5.805  12.229  19.320  0.00  0.00    +0.000 C 
BRANCH  25  26
ATOM     26  C   UNL     1      -6.341  13.499  18.696  0.00  0.00    +0.000 A 
ATOM     27  C   UNL     1      -6.231  14.737  19.346  0.00  0.00    +0.000 A 
ATOM     28  C   UNL     1      -6.621  15.920  18.706  0.00  0.00    +0.000 A 
ATOM     29  C   UNL     1      -7.133  15.883  17.409  0.00  0.00    +0.000 A 
ATOM     30  C   UNL     1      -7.276  14.661  16.760  0.00  0.00    +0.000 A 
ATOM     31  C   UNL     1      -6.886  13.486  17.405  0.00  0.00    +0.000 A 
ATOM     32  F   UNL     1      -7.009  12.327  16.745  0.00  0.00    +0.000 F 
ENDBRANCH  25  26
ENDBRANCH   8  25
BRANCH  11  33
ATOM     33  C   UNL     1      -1.774  12.786  22.064  0.00  0.00    +0.000 C 
BRANCH  33  34
ATOM     34  C   UNL     1      -1.602  14.264  22.299  0.00  0.00    +0.000 C 
ATOM     35  C   UNL     1      -0.734  14.814  23.404  0.00  0.00    +0.000 C 
ATOM     36  C   UNL     1      -0.282  14.924  21.975  0.00  0.00    +0.000 C 
ENDBRANCH  33  34
ENDBRANCH  11  33
TORSDOF 7
ENDMDL
MODEL 8
REMARK VINA RESULT:      -7.7      1.051      1.331
REMARK  Name = 
REMARK  8 active torsions:
REMARK  status: ('A' for Active; 'I' for Inactive)
REMARK    1  A    between atoms: C_1  and  C_2
REMARK    2  A    between atoms: N_4  and  C_5
REMARK    3  A    between atoms: C_8  and  C_9
REMARK    4  A    between atoms: C_9  and  C_10
REMARK    5  A    between atoms: N_17  and  C_18
REMARK    6  A    between atoms: C_18  and  C_19
REMARK    7  A    between atoms: N_28  and  C_29
REMARK    8  A    between atoms: C_29  and  C_30
REMARK                            x       y       z     vdW  Elec       q    Type
REMARK                         _______ _______ _______ _____ _____    ______ ____
ROOT
ATOM      1  C   UNL     1       1.355   9.840  18.173  0.00  0.00    +0.000 A 
ATOM      2  N   UNL     1       0.050   9.681  18.011  0.00  0.00    +0.000 NA
ATOM      3  C   UNL     1      -0.520  10.570  18.867  0.00  0.00    +0.000 A 
ATOM      4  C   UNL     1       0.409  11.227  19.607  0.00  0.00    +0.000 A 
ATOM      5  N   UNL     1       1.615  10.762  19.165  0.00  0.00    +0.000 N 
ATOM      6  C   UNL     1       0.089  12.231  20.553  0.00  0.00    +0.000 A 
ATOM      7  O   UNL     1       0.947  12.806  21.218  0.00  0.00    +0.000 OA
ATOM      8  N   UNL     1      -1.279  12.520  20.602  0.00  0.00    +0.000 N 
ATOM      9  C   UNL     1      -2.195  12.066  19.634  0.00  0.00    +0.000 A 
ATOM     10  O   UNL     1      -3.231  12.686  19.382  0.00  0.00    +0.000 OA
ATOM     11  N   UNL     1      -1.852  10.906  18.923  0.00  0.00    +0.000 N 
ATOM     12  H   UNL     1       2.527  11.101  19.451  0.00  0.00    +0.000 HD
ENDROOT
BRANCH   1  13
ATOM     13  C   UNL     1       2.425   9.170  17.381  0.00  0.00    +0.000 C 
BRANCH  13  17
ATOM     14  C   UNL     1       3.802   5.437  19.128  0.00  0.00    +0.000 A 
ATOM     15  C   UNL     1       4.389   5.951  17.973  0.00  0.00    +0.000 A 
ATOM     16  C   UNL     1       3.935   7.146  17.405  0.00  0.00    +0.000 A 
ATOM     17  C   UNL     1       2.873   7.853  17.980  0.00  0.00    +0.000 A 
ATOM     18  C   UNL     1       2.273   7.327  19.135  0.00  0.00    +0.000 A 
ATOM     19  C   UNL     1       2.723   6.124  19.694  0.00  0.00    +0.000 A 
BRANCH  14  23
ATOM     20  C   UNL     1       4.420   1.903  20.304  0.00  0.00    +0.000 C 
ATOM     21  C   UNL     1       3.869   2.955  19.377  0.00  0.00    +0.000 C 
ATOM     22  O   UNL     1       3.173   2.635  18.419  0.00  0.00    +0.000 OA
ATOM     23  N   UNL     1       4.234   4.240  19.746  0.00  0.00    +0.000 N 
ATOM     24  H   UNL     1       4.939   4.333  20.465  0.00  0.00    +0.000 HD
ENDBRANCH  14  23
ENDBRANCH  13  17
ENDBRANCH   1  13
BRANCH   8  25
ATOM     25  C   UNL     1      -1.712  13.609  21.475  0.00  0.00    +0.000 C 
BRANCH  25  26
ATOM     26  C   UNL     1      -2.876  13.268  22.380  0.00  0.00    +0.000 A 
ATOM     27  C   UNL     1      -2.788  12.240  23.329  0.00  0.00    +0.000 A 
ATOM     28  C   UNL     1      -3.827  12.015  24.242  0.00  0.00    +0.000 A 
ATOM     29  C   UNL     1      -4.972  12.810  24.214  0.00  0.00    +0.000 A 
ATOM     30  C   UNL     1      -5.089  13.816  23.260  0.00  0.00    +0.000 A 
ATOM     31  C   UNL     1      -4.050  14.034  22.353  0.00  0.00    +0.000 A 
ATOM     32  F   UNL     1      -4.178  15.028  21.465  0.00  0.00    +0.000 F 
ENDBRANCH  25  26
ENDBRANCH   8  25
BRANCH  11  33
ATOM     33  C   UNL     1      -2.820  10.325  18.000  0.00  0.00    +0.000 C 
BRANCH  33  34
ATOM     34  C   UNL     1      -2.745  10.910  16.613  0.00  0.00    +0.000 C 
ATOM     35  C   UNL     1      -2.925  10.073  15.370  0.00  0.00    +0.000 C 
ATOM     36  C   UNL     1      -4.003  11.034  15.785  0.00  0.00    +0.000 C 
ENDBRANCH  33  34
ENDBRANCH  11  33
TORSDOF 7
ENDMDL
MODEL 9
REMARK VINA RESULT:      -7.7      2.038      2.480
REMARK  Name = 
REMARK  8 active torsions:
REMARK  status: ('A' for Active; 'I' for Inactive)
REMARK    1  A    between atoms: C_1  and  C_2
REMARK    2  A    between atoms: N_4  and  C_5
REMARK    3  A    between atoms: C_8  and  C_9
REMARK    4  A    between atoms: C_9  and  C_10
REMARK    5  A    between atoms: N_17  and  C_18
REMARK    6  A    between atoms: C_18  and  C_19
REMARK    7  A    between atoms: N_28  and  C_29
REMARK    8  A    between atoms: C_29  and  C_30
REMARK                            x       y       z     vdW  Elec       q    Type
REMARK                         _______ _______ _______ _____ _____    ______ ____
ROOT
ATOM      1  C   UNL     1       1.151   9.947  18.801  0.00  0.00    +0.000 A 
ATOM      2  N   UNL     1      -0.016  10.358  18.326  0.00  0.00    +0.000 NA
ATOM      3  C   UNL     1      -0.711  10.776  19.416  0.00  0.00    +0.000 A 
ATOM      4  C   UNL     1      -0.022  10.565  20.567  0.00  0.00    +0.000 A 
ATOM      5  N   UNL     1       1.175  10.033  20.177  0.00  0.00    +0.000 N 
ATOM      6  C   UNL     1      -0.502  10.937  21.847  0.00  0.00    +0.000 A 
ATOM      7  O   UNL     1       0.137  10.727  22.876  0.00  0.00    +0.000 OA
ATOM      8  N   UNL     1      -1.731  11.602  21.797  0.00  0.00    +0.000 N 
ATOM      9  C   UNL     1      -2.294  12.087  20.602  0.00  0.00    +0.000 A 
ATOM     10  O   UNL     1      -3.059  13.055  20.593  0.00  0.00    +0.000 OA
ATOM     11  N   UNL     1      -1.903  11.461  19.409  0.00  0.00    +0.000 N 
ATOM     12  H   UNL     1       1.962   9.827  20.781  0.00  0.00    +0.000 HD
ENDROOT
BRANCH   1  13
ATOM     13  C   UNL     1       2.316   9.492  17.991  0.00  0.00    +0.000 C 
BRANCH  13  17
ATOM     14  C   UNL     1       3.234   5.292  18.622  0.00  0.00    +0.000 A 
ATOM     15  C   UNL     1       2.339   5.965  19.451  0.00  0.00    +0.000 A 
ATOM     16  C   UNL     1       2.055   7.322  19.254  0.00  0.00    +0.000 A 
ATOM     17  C   UNL     1       2.670   8.037  18.221  0.00  0.00    +0.000 A 
ATOM     18  C   UNL     1       3.583   7.362  17.396  0.00  0.00    +0.000 A 
ATOM     19  C   UNL     1       3.874   6.008  17.605  0.00  0.00    +0.000 A 
BRANCH  14  23
ATOM     20  C   UNL     1       3.468   1.525  18.521  0.00  0.00    +0.000 C 
ATOM     21  C   UNL     1       3.007   2.877  18.040  0.00  0.00    +0.000 C 
ATOM     22  O   UNL     1       2.230   2.966  17.094  0.00  0.00    +0.000 OA
ATOM     23  N   UNL     1       3.545   3.921  18.775  0.00  0.00    +0.000 N 
ATOM     24  H   UNL     1       4.291   3.697  19.421  0.00  0.00    +0.000 HD
ENDBRANCH  14  23
ENDBRANCH  13  17
ENDBRANCH   1  13
BRANCH   8  25
ATOM     25  C   UNL     1      -2.276  12.117  23.052  0.00  0.00    +0.000 C 
BRANCH  25  26
ATOM     26  C   UNL     1      -1.821  13.515  23.411  0.00  0.00    +0.000 A 
ATOM     27  C   UNL     1      -0.686  14.090  22.819  0.00  0.00    +0.000 A 
ATOM     28  C   UNL     1      -0.347  15.426  23.069  0.00  0.00    +0.000 A 
ATOM     29  C   UNL     1      -1.132  16.205  23.919  0.00  0.00    +0.000 A 
ATOM     30  C   UNL     1      -2.244  15.642  24.537  0.00  0.00    +0.000 A 
ATOM     31  C   UNL     1      -2.576  14.309  24.284  0.00  0.00    +0.000 A 
ATOM     32  F   UNL     1      -3.668  13.803  24.871  0.00  0.00    +0.000 F 
ENDBRANCH  25  26
ENDBRANCH   8  25
BRANCH  11  33
ATOM     33  C   UNL     1      -2.550  11.843  18.159  0.00  0.00    +0.000 C 
BRANCH  33  34
ATOM     34  C   UNL     1      -3.491  10.792  17.631  0.00  0.00    +0.000 C 
ATOM     35  C   UNL     1      -4.244  10.956  16.333  0.00  0.00    +0.000 C 
ATOM     36  C   UNL     1      -3.102   9.984  16.415  0.00  0.00    +0.000 C 
ENDBRANCH  33  34
ENDBRANCH  11  33
TORSDOF 7
ENDMDL
