MODEL 1
REMARK VINA RESULT:      -6.9      0.000      0.000
REMARK  Name = 
REMARK  13 active torsions:
REMARK  status: ('A' for Active; 'I' for Inactive)
REMARK    1  A    between atoms: C_1  and  C_2
REMARK    2  A    between atoms: C_2  and  O_3
REMARK    3  A    between atoms: O_3  and  C_4
REMARK    4  A    between atoms: C_4  and  C_6
REMARK    5  A    between atoms: C_7  and  O_8
REMARK    6  A    between atoms: O_8  and  C_9
REMARK    7  A    between atoms: C_9  and  O_10
REMARK    8  A    between atoms: C_9  and  C_13
REMARK    9  A    between atoms: O_10  and  C_11
REMARK   10  A    between atoms: C_11  and  C_12
REMARK   11  A    between atoms: C_13  and  C_14
REMARK   12  A    between atoms: C_13  and  SE_15
REMARK   13  A    between atoms: SE_15  and  C_16
REMARK                            x       y       z     vdW  Elec       q    Type
REMARK                         _______ _______ _______ _____ _____    ______ ____
ROOT
ATOM      1  C   UNL     1       3.805   3.620  18.450  0.00  0.00    +0.000 C 
ENDROOT
BRANCH   1   2
ATOM      2  C   UNL     1       3.050   4.982  18.362  0.00  0.00    +0.000 C 
ATOM      3  C   UNL     1       1.672   4.802  17.711  0.00  0.00    +0.000 C 
BRANCH   2   4
ATOM      4 SE   UNL     1       2.827   5.862  20.095  0.00  0.00    +0.000 Se
BRANCH   4   5
ATOM      5  C   UNL     1       2.201   7.546  19.386  0.00  0.00    +0.000 A 
ATOM      6  C   UNL     1       2.456   7.956  18.065  0.00  0.00    +0.000 A 
ATOM      7  C   UNL     1       1.954   9.183  17.606  0.00  0.00    +0.000 A 
ATOM      8  C   UNL     1       1.198   9.995  18.459  0.00  0.00    +0.000 A 
ATOM      9  C   UNL     1       0.944   9.585  19.769  0.00  0.00    +0.000 A 
ATOM     10  C   UNL     1       1.445   8.365  20.230  0.00  0.00    +0.000 A 
ENDBRANCH   4   5
ENDBRANCH   2   4
ENDBRANCH   1   2
BRANCH   1  11
ATOM     11  O   UNL     1       5.027   3.763  17.791  0.00  0.00    +0.000 OA
BRANCH  11  13
ATOM     12  C   UNL     1       6.366   5.527  16.893  0.00  0.00    +0.000 C 
ATOM     13  C   UNL     1       5.937   4.775  17.924  0.00  0.00    +0.000 C 
ATOM     14  C   UNL     1       6.506   5.280  19.218  0.00  0.00    +0.000 C 
ATOM     15  C   UNL     1       7.640   6.195  18.748  0.00  0.00    +0.000 C 
ATOM     16  C   UNL     1       7.255   6.639  17.350  0.00  0.00    +0.000 C 
BRANCH  12  17
ATOM     17  C   UNL     1       5.934   5.441  15.482  0.00  0.00    +0.000 C 
ATOM     18  O   UNL     1       5.322   6.383  14.993  0.00  0.00    +0.000 OA
BRANCH  17  19
ATOM     19  O   UNL     1       6.123   4.308  14.759  0.00  0.00    +0.000 OA
BRANCH  19  21
ATOM     20  C   UNL     1       5.776   3.469  12.553  0.00  0.00    +0.000 C 
ATOM     21  C   UNL     1       6.650   4.318  13.480  0.00  0.00    +0.000 C 
ENDBRANCH  19  21
ENDBRANCH  17  19
ENDBRANCH  12  17
ENDBRANCH  11  13
ENDBRANCH   1  11
BRANCH   1  22
ATOM     22  O   UNL     1       4.015   3.216  19.803  0.00  0.00    +0.000 OA
BRANCH  22  23
ATOM     23  C   UNL     1       3.052   2.238  20.201  0.00  0.00    +0.000 C 
ATOM     24  C   UNL     1       2.332   2.655  21.473  0.00  0.00    +0.000 C 
ENDBRANCH  22  23
ENDBRANCH   1  22
TORSDOF 10
ENDMDL
MODEL 2
REMARK VINA RESULT:      -6.8      1.734      3.372
REMARK  Name = 
REMARK  13 active torsions:
REMARK  status: ('A' for Active; 'I' for Inactive)
REMARK    1  A    between atoms: C_1  and  C_2
REMARK    2  A    between atoms: C_2  and  O_3
REMARK    3  A    between atoms: O_3  and  C_4
REMARK    4  A    between atoms: C_4  and  C_6
REMARK    5  A    between atoms: C_7  and  O_8
REMARK    6  A    between atoms: O_8  and  C_9
REMARK    7  A    between atoms: C_9  and  O_10
REMARK    8  A    between atoms: C_9  and  C_13
REMARK    9  A    between atoms: O_10  and  C_11
REMARK   10  A    between atoms: C_11  and  C_12
REMARK   11  A    between atoms: C_13  and  C_14
REMARK   12  A    between atoms: C_13  and  SE_15
REMARK   13  A    between atoms: SE_15  and  C_16
REMARK                            x       y       z     vdW  Elec       q    Type
REMARK                         _______ _______ _______ _____ _____    ______ ____
ROOT
ATOM      1  C   UNL     1       3.219   4.644  17.391  0.00  0.00    +0.000 C 
ENDROOT
BRANCH   1   2
ATOM      2  C   UNL     1       3.097   5.725  18.509  0.00  0.00    +0.000 C 
ATOM      3  C   UNL     1       4.135   5.487  19.614  0.00  0.00    +0.000 C 
BRANCH   2   4
ATOM      4 SE   UNL     1       3.277   7.556  17.846  0.00  0.00    +0.000 Se
BRANCH   4   5
ATOM      5  C   UNL     1       1.961   8.329  19.028  0.00  0.00    +0.000 A 
ATOM      6  C   UNL     1       1.694   7.814  20.310  0.00  0.00    +0.000 A 
ATOM      7  C   UNL     1       0.739   8.436  21.127  0.00  0.00    +0.000 A 
ATOM      8  C   UNL     1       0.057   9.569  20.672  0.00  0.00    +0.000 A 
ATOM      9  C   UNL     1       0.325  10.081  19.401  0.00  0.00    +0.000 A 
ATOM     10  C   UNL     1       1.273   9.462  18.583  0.00  0.00    +0.000 A 
ENDBRANCH   4   5
ENDBRANCH   2   4
ENDBRANCH   1   2
BRANCH   1  11
ATOM     11  O   UNL     1       4.566   4.290  17.283  0.00  0.00    +0.000 OA
BRANCH  11  13
ATOM     12  C   UNL     1       6.691   4.749  16.292  0.00  0.00    +0.000 C 
ATOM     13  C   UNL     1       5.385   4.432  16.198  0.00  0.00    +0.000 C 
ATOM     14  C   UNL     1       5.011   4.155  14.772  0.00  0.00    +0.000 C 
ATOM     15  C   UNL     1       6.196   4.737  13.997  0.00  0.00    +0.000 C 
ATOM     16  C   UNL     1       7.368   4.708  14.959  0.00  0.00    +0.000 C 
BRANCH  12  17
ATOM     17  C   UNL     1       7.475   4.959  17.528  0.00  0.00    +0.000 C 
ATOM     18  O   UNL     1       8.335   4.140  17.828  0.00  0.00    +0.000 OA
BRANCH  17  19
ATOM     19  O   UNL     1       7.192   5.984  18.370  0.00  0.00    +0.000 OA
BRANCH  19  21
ATOM     20  C   UNL     1       7.850   8.160  17.643  0.00  0.00    +0.000 C 
ATOM     21  C   UNL     1       8.086   7.010  18.624  0.00  0.00    +0.000 C 
ENDBRANCH  19  21
ENDBRANCH  17  19
ENDBRANCH  12  17
ENDBRANCH  11  13
ENDBRANCH   1  11
BRANCH   1  22
ATOM     22  O   UNL     1       2.425   3.492  17.675  0.00  0.00    +0.000 OA
BRANCH  22  23
ATOM     23  C   UNL     1       1.328   3.825  18.528  0.00  0.00    +0.000 C 
ATOM     24  C   UNL     1       1.044   2.713  19.525  0.00  0.00    +0.000 C 
ENDBRANCH  22  23
ENDBRANCH   1  22
TORSDOF 10
ENDMDL
MODEL 3
REMARK VINA RESULT:      -6.7      1.176      2.754
REMARK  Name = 
REMARK  13 active torsions:
REMARK  status: ('A' for Active; 'I' for Inactive)
REMARK    1  A    between atoms: C_1  and  C_2
REMARK    2  A    between atoms: C_2  and  O_3
REMARK    3  A    between atoms: O_3  and  C_4
REMARK    4  A    between atoms: C_4  and  C_6
REMARK    5  A    between atoms: C_7  and  O_8
REMARK    6  A    between atoms: O_8  and  C_9
REMARK    7  A    between atoms: C_9  and  O_10
REMARK    8  A    between atoms: C_9  and  C_13
REMARK    9  A    between atoms: O_10  and  C_11
REMARK   10  A    between atoms: C_11  and  C_12
REMARK   11  A    between atoms: C_13  and  C_14
REMARK   12  A    between atoms: C_13  and  SE_15
REMARK   13  A    between atoms: SE_15  and  C_16
REMARK                            x       y       z     vdW  Elec       q    Type
REMARK                         _______ _______ _______ _____ _____    ______ ____
ROOT
ATOM      1  C   UNL     1       3.772   3.637  17.853  0.00  0.00    +0.000 C 
ENDROOT
BRANCH   1   2
ATOM      2  C   UNL     1       2.958   4.957  18.023  0.00  0.00    +0.000 C 
ATOM      3  C   UNL     1       1.483   4.739  17.662  0.00  0.00    +0.000 C 
BRANCH   2   4
ATOM      4 SE   UNL     1       3.071   5.714  19.823  0.00  0.00    +0.000 Se
BRANCH   4   5
ATOM      5  C   UNL     1       2.279   7.418  19.374  0.00  0.00    +0.000 A 
ATOM      6  C   UNL     1       2.389   7.993  18.095  0.00  0.00    +0.000 A 
ATOM      7  C   UNL     1       1.772   9.224  17.828  0.00  0.00    +0.000 A 
ATOM      8  C   UNL     1       1.045   9.876  18.831  0.00  0.00    +0.000 A 
ATOM      9  C   UNL     1       0.935   9.302  20.098  0.00  0.00    +0.000 A 
ATOM     10  C   UNL     1       1.551   8.078  20.368  0.00  0.00    +0.000 A 
ENDBRANCH   4   5
ENDBRANCH   2   4
ENDBRANCH   1   2
BRANCH   1  11
ATOM     11  O   UNL     1       5.082   3.981  17.514  0.00  0.00    +0.000 OA
BRANCH  11  13
ATOM     12  C   UNL     1       6.189   5.334  15.884  0.00  0.00    +0.000 C 
ATOM     13  C   UNL     1       5.598   4.185  16.265  0.00  0.00    +0.000 C 
ATOM     14  C   UNL     1       5.697   3.156  15.176  0.00  0.00    +0.000 C 
ATOM     15  C   UNL     1       6.086   3.996  13.957  0.00  0.00    +0.000 C 
ATOM     16  C   UNL     1       6.774   5.228  14.513  0.00  0.00    +0.000 C 
BRANCH  12  17
ATOM     17  C   UNL     1       6.421   6.537  16.711  0.00  0.00    +0.000 C 
ATOM     18  O   UNL     1       5.465   7.241  17.012  0.00  0.00    +0.000 OA
BRANCH  17  19
ATOM     19  O   UNL     1       7.677   6.916  17.059  0.00  0.00    +0.000 OA
BRANCH  19  21
ATOM     20  C   UNL     1       7.840   5.816  19.170  0.00  0.00    +0.000 C 
ATOM     21  C   UNL     1       8.063   7.105  18.374  0.00  0.00    +0.000 C 
ENDBRANCH  19  21
ENDBRANCH  17  19
ENDBRANCH  12  17
ENDBRANCH  11  13
ENDBRANCH   1  11
BRANCH   1  22
ATOM     22  O   UNL     1       3.760   2.848  19.044  0.00  0.00    +0.000 OA
BRANCH  22  23
ATOM     23  C   UNL     1       2.683   1.909  19.024  0.00  0.00    +0.000 C 
ATOM     24  C   UNL     1       1.693   2.178  20.146  0.00  0.00    +0.000 C 
ENDBRANCH  22  23
ENDBRANCH   1  22
TORSDOF 10
ENDMDL
MODEL 4
REMARK VINA RESULT:      -6.6      0.936      1.452
REMARK  Name = 
REMARK  13 active torsions:
REMARK  status: ('A' for Active; 'I' for Inactive)
REMARK    1  A    between atoms: C_1  and  C_2
REMARK    2  A    between atoms: C_2  and  O_3
REMARK    3  A    between atoms: O_3  and  C_4
REMARK    4  A    between atoms: C_4  and  C_6
REMARK    5  A    between atoms: C_7  and  O_8
REMARK    6  A    between atoms: O_8  and  C_9
REMARK    7  A    between atoms: C_9  and  O_10
REMARK    8  A    between atoms: C_9  and  C_13
REMARK    9  A    between atoms: O_10  and  C_11
REMARK   10  A    between atoms: C_11  and  C_12
REMARK   11  A    between atoms: C_13  and  C_14
REMARK   12  A    between atoms: C_13  and  SE_15
REMARK   13  A    between atoms: SE_15  and  C_16
REMARK                            x       y       z     vdW  Elec       q    Type
REMARK                         _______ _______ _______ _____ _____    ______ ____
ROOT
ATOM      1  C   UNL     1       4.012   3.663  18.092  0.00  0.00    +0.000 C 
ENDROOT
BRANCH   1   2
ATOM      2  C   UNL     1       2.948   4.799  18.190  0.00  0.00    +0.000 C 
ATOM      3  C   UNL     1       1.589   4.323  17.661  0.00  0.00    +0.000 C 
BRANCH   2   4
ATOM      4 SE   UNL     1       2.718   5.494  20.004  0.00  0.00    +0.000 Se
BRANCH   4   5
ATOM      5  C   UNL     1       2.143   7.260  19.472  0.00  0.00    +0.000 A 
ATOM      6  C   UNL     1       1.428   8.116  20.328  0.00  0.00    +0.000 A 
ATOM      7  C   UNL     1       1.058   9.395  19.887  0.00  0.00    +0.000 A 
ATOM      8  C   UNL     1       1.403   9.820  18.599  0.00  0.00    +0.000 A 
ATOM      9  C   UNL     1       2.115   8.969  17.752  0.00  0.00    +0.000 A 
ATOM     10  C   UNL     1       2.482   7.694  18.187  0.00  0.00    +0.000 A 
ENDBRANCH   4   5
ENDBRANCH   2   4
ENDBRANCH   1   2
BRANCH   1  11
ATOM     11  O   UNL     1       5.033   4.103  17.246  0.00  0.00    +0.000 OA
BRANCH  11  13
ATOM     12  C   UNL     1       6.868   5.487  16.595  0.00  0.00    +0.000 C 
ATOM     13  C   UNL     1       6.019   5.007  17.524  0.00  0.00    +0.000 C 
ATOM     14  C   UNL     1       6.243   5.686  18.844  0.00  0.00    +0.000 C 
ATOM     15  C   UNL     1       7.607   6.352  18.649  0.00  0.00    +0.000 C 
ATOM     16  C   UNL     1       7.753   6.555  17.153  0.00  0.00    +0.000 C 
BRANCH  12  17
ATOM     17  C   UNL     1       6.882   5.178  15.150  0.00  0.00    +0.000 C 
ATOM     18  O   UNL     1       7.792   5.619  14.459  0.00  0.00    +0.000 OA
BRANCH  17  19
ATOM     19  O   UNL     1       5.861   4.497  14.570  0.00  0.00    +0.000 OA
BRANCH  19  21
ATOM     20  C   UNL     1       4.978   3.682  12.509  0.00  0.00    +0.000 C 
ATOM     21  C   UNL     1       6.061   3.550  13.582  0.00  0.00    +0.000 C 
ENDBRANCH  19  21
ENDBRANCH  17  19
ENDBRANCH  12  17
ENDBRANCH  11  13
ENDBRANCH   1  11
BRANCH   1  22
ATOM     22  O   UNL     1       4.542   3.319  19.372  0.00  0.00    +0.000 OA
BRANCH  22  23
ATOM     23  C   UNL     1       4.442   1.913  19.606  0.00  0.00    +0.000 C 
ATOM     24  C   UNL     1       3.518   1.248  18.599  0.00  0.00    +0.000 C 
ENDBRANCH  22  23
ENDBRANCH   1  22
TORSDOF 10
ENDMDL
MODEL 5
REMARK VINA RESULT:      -6.6      2.883      4.983
REMARK  Name = 
REMARK  13 active torsions:
REMARK  status: ('A' for Active; 'I' for Inactive)
REMARK    1  A    between atoms: C_1  and  C_2
REMARK    2  A    between atoms: C_2  and  O_3
REMARK    3  A    between atoms: O_3  and  C_4
REMARK    4  A    between atoms: C_4  and  C_6
REMARK    5  A    between atoms: C_7  and  O_8
REMARK    6  A    between atoms: O_8  and  C_9
REMARK    7  A    between atoms: C_9  and  O_10
REMARK    8  A    between atoms: C_9  and  C_13
REMARK    9  A    between atoms: O_10  and  C_11
REMARK   10  A    between atoms: C_11  and  C_12
REMARK   11  A    between atoms: C_13  and  C_14
REMARK   12  A    between atoms: C_13  and  SE_15
REMARK   13  A    between atoms: SE_15  and  C_16
REMARK                            x       y       z     vdW  Elec       q    Type
REMARK                         _______ _______ _______ _____ _____    ______ ____
ROOT
ATOM      1  C   UNL     1       5.839   3.708  16.286  0.00  0.00    +0.000 C 
ENDROOT
BRANCH   1   2
ATOM      2  C   UNL     1       4.660   4.305  17.115  0.00  0.00    +0.000 C 
ATOM      3  C   UNL     1       4.401   5.765  16.723  0.00  0.00    +0.000 C 
BRANCH   2   4
ATOM      4 SE   UNL     1       2.995   3.292  16.939  0.00  0.00    +0.000 Se
BRANCH   4   5
ATOM      5  C   UNL     1       2.543   3.321  18.817  0.00  0.00    +0.000 A 
ATOM      6  C   UNL     1       1.357   3.900  19.304  0.00  0.00    +0.000 A 
ATOM      7  C   UNL     1       1.079   3.869  20.678  0.00  0.00    +0.000 A 
ATOM      8  C   UNL     1       1.976   3.260  21.563  0.00  0.00    +0.000 A 
ATOM      9  C   UNL     1       3.151   2.683  21.076  0.00  0.00    +0.000 A 
ATOM     10  C   UNL     1       3.433   2.716  19.709  0.00  0.00    +0.000 A 
ENDBRANCH   4   5
ENDBRANCH   2   4
ENDBRANCH   1   2
BRANCH   1  11
ATOM     11  O   UNL     1       5.570   3.931  14.934  0.00  0.00    +0.000 OA
BRANCH  11  13
ATOM     12  C   UNL     1       6.378   3.996  12.686  0.00  0.00    +0.000 C 
ATOM     13  C   UNL     1       6.427   4.390  13.974  0.00  0.00    +0.000 C 
ATOM     14  C   UNL     1       7.459   5.463  14.157  0.00  0.00    +0.000 C 
ATOM     15  C   UNL     1       8.278   5.362  12.868  0.00  0.00    +0.000 C 
ATOM     16  C   UNL     1       7.345   4.756  11.837  0.00  0.00    +0.000 C 
BRANCH  12  17
ATOM     17  C   UNL     1       5.410   3.062  12.073  0.00  0.00    +0.000 C 
ATOM     18  O   UNL     1       5.782   1.930  11.786  0.00  0.00    +0.000 OA
BRANCH  17  19
ATOM     19  O   UNL     1       4.158   3.467  11.743  0.00  0.00    +0.000 OA
BRANCH  19  21
ATOM     20  C   UNL     1       3.018   4.172   9.770  0.00  0.00    +0.000 C 
ATOM     21  C   UNL     1       3.490   2.996  10.627  0.00  0.00    +0.000 C 
ENDBRANCH  19  21
ENDBRANCH  17  19
ENDBRANCH  12  17
ENDBRANCH  11  13
ENDBRANCH   1  11
BRANCH   1  22
ATOM     22  O   UNL     1       7.091   4.294  16.645  0.00  0.00    +0.000 OA
BRANCH  22  23
ATOM     23  C   UNL     1       7.148   4.558  18.048  0.00  0.00    +0.000 C 
ATOM     24  C   UNL     1       7.660   5.963  18.327  0.00  0.00    +0.000 C 
ENDBRANCH  22  23
ENDBRANCH   1  22
TORSDOF 10
ENDMDL
MODEL 6
REMARK VINA RESULT:      -6.5      2.201      6.380
REMARK  Name = 
REMARK  13 active torsions:
REMARK  status: ('A' for Active; 'I' for Inactive)
REMARK    1  A    between atoms: C_1  and  C_2
REMARK    2  A    between atoms: C_2  and  O_3
REMARK    3  A    between atoms: O_3  and  C_4
REMARK    4  A    between atoms: C_4  and  C_6
REMARK    5  A    between atoms: C_7  and  O_8
REMARK    6  A    between atoms: O_8  and  C_9
REMARK    7  A    between atoms: C_9  and  O_10
REMARK    8  A    between atoms: C_9  and  C_13
REMARK    9  A    between atoms: O_10  and  C_11
REMARK   10  A    between atoms: C_11  and  C_12
REMARK   11  A    between atoms: C_13  and  C_14
REMARK   12  A    between atoms: C_13  and  SE_15
REMARK   13  A    between atoms: SE_15  and  C_16
REMARK                            x       y       z     vdW  Elec       q    Type
REMARK                         _______ _______ _______ _____ _____    ______ ____
ROOT
ATOM      1  C   UNL     1       4.069   6.359  17.586  0.00  0.00    +0.000 C 
ENDROOT
BRANCH   1   2
ATOM      2  C   UNL     1       5.368   6.258  16.729  0.00  0.00    +0.000 C 
ATOM      3  C   UNL     1       6.405   7.292  17.186  0.00  0.00    +0.000 C 
BRANCH   2   4
ATOM      4 SE   UNL     1       6.183   4.480  16.757  0.00  0.00    +0.000 Se
BRANCH   4   5
ATOM      5  C   UNL     1       6.498   4.372  14.855  0.00  0.00    +0.000 A 
ATOM      6  C   UNL     1       5.749   3.537  14.007  0.00  0.00    +0.000 A 
ATOM      7  C   UNL     1       6.015   3.521  12.630  0.00  0.00    +0.000 A 
ATOM      8  C   UNL     1       7.019   4.339  12.100  0.00  0.00    +0.000 A 
ATOM      9  C   UNL     1       7.759   5.170  12.943  0.00  0.00    +0.000 A 
ATOM     10  C   UNL     1       7.499   5.185  14.315  0.00  0.00    +0.000 A 
ENDBRANCH   4   5
ENDBRANCH   2   4
ENDBRANCH   1   2
BRANCH   1  11
ATOM     11  O   UNL     1       4.253   5.589  18.737  0.00  0.00    +0.000 OA
BRANCH  11  13
ATOM     12  C   UNL     1       3.215   3.806  19.942  0.00  0.00    +0.000 C 
ATOM     13  C   UNL     1       3.296   5.101  19.581  0.00  0.00    +0.000 C 
ATOM     14  C   UNL     1       2.276   5.919  20.318  0.00  0.00    +0.000 C 
ATOM     15  C   UNL     1       1.328   4.850  20.870  0.00  0.00    +0.000 C 
ATOM     16  C   UNL     1       2.156   3.584  20.973  0.00  0.00    +0.000 C 
BRANCH  12  17
ATOM     17  C   UNL     1       4.124   2.709  19.548  0.00  0.00    +0.000 C 
ATOM     18  O   UNL     1       5.095   2.464  20.253  0.00  0.00    +0.000 OA
BRANCH  17  19
ATOM     19  O   UNL     1       3.949   2.040  18.381  0.00  0.00    +0.000 OA
BRANCH  19  21
ATOM     20  C   UNL     1       2.580   3.113  16.748  0.00  0.00    +0.000 C 
ATOM     21  C   UNL     1       2.723   1.959  17.743  0.00  0.00    +0.000 C 
ENDBRANCH  19  21
ENDBRANCH  17  19
ENDBRANCH  12  17
ENDBRANCH  11  13
ENDBRANCH   1  11
BRANCH   1  22
ATOM     22  O   UNL     1       3.767   7.710  17.937  0.00  0.00    +0.000 OA
BRANCH  22  23
ATOM     23  C   UNL     1       2.446   8.063  17.523  0.00  0.00    +0.000 C 
ATOM     24  C   UNL     1       2.101   9.488  17.927  0.00  0.00    +0.000 C 
ENDBRANCH  22  23
ENDBRANCH   1  22
TORSDOF 10
ENDMDL
MODEL 7
REMARK VINA RESULT:      -6.5      2.148      6.370
REMARK  Name = 
REMARK  13 active torsions:
REMARK  status: ('A' for Active; 'I' for Inactive)
REMARK    1  A    between atoms: C_1  and  C_2
REMARK    2  A    between atoms: C_2  and  O_3
REMARK    3  A    between atoms: O_3  and  C_4
REMARK    4  A    between atoms: C_4  and  C_6
REMARK    5  A    between atoms: C_7  and  O_8
REMARK    6  A    between atoms: O_8  and  C_9
REMARK    7  A    between atoms: C_9  and  O_10
REMARK    8  A    between atoms: C_9  and  C_13
REMARK    9  A    between atoms: O_10  and  C_11
REMARK   10  A    between atoms: C_11  and  C_12
REMARK   11  A    between atoms: C_13  and  C_14
REMARK   12  A    between atoms: C_13  and  SE_15
REMARK   13  A    between atoms: SE_15  and  C_16
REMARK                            x       y       z     vdW  Elec       q    Type
REMARK                         _______ _______ _______ _____ _____    ______ ____
ROOT
ATOM      1  C   UNL     1       4.052   6.381  17.613  0.00  0.00    +0.000 C 
ENDROOT
BRANCH   1   2
ATOM      2  C   UNL     1       5.343   6.246  16.748  0.00  0.00    +0.000 C 
ATOM      3  C   UNL     1       6.433   7.209  17.240  0.00  0.00    +0.000 C 
BRANCH   2   4
ATOM      4 SE   UNL     1       6.068   4.429  16.708  0.00  0.00    +0.000 Se
BRANCH   4   5
ATOM      5  C   UNL     1       6.490   4.422  14.823  0.00  0.00    +0.000 A 
ATOM      6  C   UNL     1       7.527   5.198  14.274  0.00  0.00    +0.000 A 
ATOM      7  C   UNL     1       7.796   5.131  12.899  0.00  0.00    +0.000 A 
ATOM      8  C   UNL     1       7.038   4.291  12.076  0.00  0.00    +0.000 A 
ATOM      9  C   UNL     1       6.011   3.520  12.624  0.00  0.00    +0.000 A 
ATOM     10  C   UNL     1       5.738   3.587  13.992  0.00  0.00    +0.000 A 
ENDBRANCH   4   5
ENDBRANCH   2   4
ENDBRANCH   1   2
BRANCH   1  11
ATOM     11  O   UNL     1       4.215   5.589  18.752  0.00  0.00    +0.000 OA
BRANCH  11  13
ATOM     12  C   UNL     1       3.180   3.791  19.938  0.00  0.00    +0.000 C 
ATOM     13  C   UNL     1       3.241   5.085  19.568  0.00  0.00    +0.000 C 
ATOM     14  C   UNL     1       2.176   5.883  20.262  0.00  0.00    +0.000 C 
ATOM     15  C   UNL     1       1.237   4.796  20.791  0.00  0.00    +0.000 C 
ATOM     16  C   UNL     1       2.091   3.551  20.934  0.00  0.00    +0.000 C 
BRANCH  12  17
ATOM     17  C   UNL     1       4.128   2.714  19.585  0.00  0.00    +0.000 C 
ATOM     18  O   UNL     1       5.164   2.603  20.231  0.00  0.00    +0.000 OA
BRANCH  17  19
ATOM     19  O   UNL     1       3.912   1.915  18.510  0.00  0.00    +0.000 OA
BRANCH  19  21
ATOM     20  C   UNL     1       2.637   3.031  16.831  0.00  0.00    +0.000 C 
ATOM     21  C   UNL     1       2.704   1.880  17.837  0.00  0.00    +0.000 C 
ENDBRANCH  19  21
ENDBRANCH  17  19
ENDBRANCH  12  17
ENDBRANCH  11  13
ENDBRANCH   1  11
BRANCH   1  22
ATOM     22  O   UNL     1       3.799   7.736  17.983  0.00  0.00    +0.000 OA
BRANCH  22  23
ATOM     23  C   UNL     1       2.533   8.174  17.489  0.00  0.00    +0.000 C 
ATOM     24  C   UNL     1       1.797   9.017  18.518  0.00  0.00    +0.000 C 
ENDBRANCH  22  23
ENDBRANCH   1  22
TORSDOF 10
ENDMDL
MODEL 8
REMARK VINA RESULT:      -6.5      2.179      6.398
REMARK  Name = 
REMARK  13 active torsions:
REMARK  status: ('A' for Active; 'I' for Inactive)
REMARK    1  A    between atoms: C_1  and  C_2
REMARK    2  A    between atoms: C_2  and  O_3
REMARK    3  A    between atoms: O_3  and  C_4
REMARK    4  A    between atoms: C_4  and  C_6
REMARK    5  A    between atoms: C_7  and  O_8
REMARK    6  A    between atoms: O_8  and  C_9
REMARK    7  A    between atoms: C_9  and  O_10
REMARK    8  A    between atoms: C_9  and  C_13
REMARK    9  A    between atoms: O_10  and  C_11
REMARK   10  A    between atoms: C_11  and  C_12
REMARK   11  A    between atoms: C_13  and  C_14
REMARK   12  A    between atoms: C_13  and  SE_15
REMARK   13  A    between atoms: SE_15  and  C_16
REMARK                            x       y       z     vdW  Elec       q    Type
REMARK                         _______ _______ _______ _____ _____    ______ ____
ROOT
ATOM      1  C   UNL     1       5.097   4.259  18.557  0.00  0.00    +0.000 C 
ENDROOT
BRANCH   1   2
ATOM      2  C   UNL     1       5.410   4.023  17.047  0.00  0.00    +0.000 C 
ATOM      3  C   UNL     1       4.489   2.945  16.461  0.00  0.00    +0.000 C 
BRANCH   2   4
ATOM      4 SE   UNL     1       5.268   5.644  15.961  0.00  0.00    +0.000 Se
BRANCH   4   5
ATOM      5  C   UNL     1       5.980   4.865  14.343  0.00  0.00    +0.000 A 
ATOM      6  C   UNL     1       5.274   3.915  13.582  0.00  0.00    +0.000 A 
ATOM      7  C   UNL     1       5.839   3.404  12.405  0.00  0.00    +0.000 A 
ATOM      8  C   UNL     1       7.101   3.841  11.986  0.00  0.00    +0.000 A 
ATOM      9  C   UNL     1       7.799   4.785  12.741  0.00  0.00    +0.000 A 
ATOM     10  C   UNL     1       7.239   5.294  13.915  0.00  0.00    +0.000 A 
ENDBRANCH   4   5
ENDBRANCH   2   4
ENDBRANCH   1   2
BRANCH   1  11
ATOM     11  O   UNL     1       4.304   3.199  19.002  0.00  0.00    +0.000 OA
BRANCH  11  13
ATOM     12  C   UNL     1       2.038   3.810  19.450  0.00  0.00    +0.000 C 
ATOM     13  C   UNL     1       3.210   3.256  19.818  0.00  0.00    +0.000 C 
ATOM     14  C   UNL     1       3.093   2.629  21.176  0.00  0.00    +0.000 C 
ATOM     15  C   UNL     1       1.795   3.237  21.714  0.00  0.00    +0.000 C 
ATOM     16  C   UNL     1       0.983   3.615  20.491  0.00  0.00    +0.000 C 
BRANCH  12  17
ATOM     17  C   UNL     1       1.702   4.406  18.140  0.00  0.00    +0.000 C 
ATOM     18  O   UNL     1       1.143   3.711  17.301  0.00  0.00    +0.000 OA
BRANCH  17  19
ATOM     19  O   UNL     1       2.084   5.670  17.827  0.00  0.00    +0.000 OA
BRANCH  19  21
ATOM     20  C   UNL     1       2.876   7.903  18.107  0.00  0.00    +0.000 C 
ATOM     21  C   UNL     1       2.447   6.599  18.785  0.00  0.00    +0.000 C 
ENDBRANCH  19  21
ENDBRANCH  17  19
ENDBRANCH  12  17
ENDBRANCH  11  13
ENDBRANCH   1  11
BRANCH   1  22
ATOM     22  O   UNL     1       6.289   4.348  19.339  0.00  0.00    +0.000 OA
BRANCH  22  23
ATOM     23  C   UNL     1       6.764   5.693  19.396  0.00  0.00    +0.000 C 
ATOM     24  C   UNL     1       8.284   5.745  19.387  0.00  0.00    +0.000 C 
ENDBRANCH  22  23
ENDBRANCH   1  22
TORSDOF 10
ENDMDL
MODEL 9
REMARK VINA RESULT:      -6.4      1.225      1.749
REMARK  Name = 
REMARK  13 active torsions:
REMARK  status: ('A' for Active; 'I' for Inactive)
REMARK    1  A    between atoms: C_1  and  C_2
REMARK    2  A    between atoms: C_2  and  O_3
REMARK    3  A    between atoms: O_3  and  C_4
REMARK    4  A    between atoms: C_4  and  C_6
REMARK    5  A    between atoms: C_7  and  O_8
REMARK    6  A    between atoms: O_8  and  C_9
REMARK    7  A    between atoms: C_9  and  O_10
REMARK    8  A    between atoms: C_9  and  C_13
REMARK    9  A    between atoms: O_10  and  C_11
REMARK   10  A    between atoms: C_11  and  C_12
REMARK   11  A    between atoms: C_13  and  C_14
REMARK   12  A    between atoms: C_13  and  SE_15
REMARK   13  A    between atoms: SE_15  and  C_16
REMARK                            x       y       z     vdW  Elec       q    Type
REMARK                         _______ _______ _______ _____ _____    ______ ____
ROOT
ATOM      1  C   UNL     1       3.365   4.698  17.389  0.00  0.00    +0.000 C 
ENDROOT
BRANCH   1   2
ATOM      2  C   UNL     1       2.713   5.788  18.295  0.00  0.00    +0.000 C 
ATOM      3  C   UNL     1       2.913   5.455  19.779  0.00  0.00    +0.000 C 
BRANCH   2   4
ATOM      4 SE   UNL     1       3.385   7.592  17.949  0.00  0.00    +0.000 Se
BRANCH   4   5
ATOM      5  C   UNL     1       1.901   8.520  18.766  0.00  0.00    +0.000 A 
ATOM      6  C   UNL     1       1.596   8.409  20.135  0.00  0.00    +0.000 A 
ATOM      7  C   UNL     1       0.516   9.127  20.669  0.00  0.00    +0.000 A 
ATOM      8  C   UNL     1      -0.254   9.954  19.844  0.00  0.00    +0.000 A 
ATOM      9  C   UNL     1       0.052  10.064  18.486  0.00  0.00    +0.000 A 
ATOM     10  C   UNL     1       1.125   9.349  17.951  0.00  0.00    +0.000 A 
ENDBRANCH   4   5
ENDBRANCH   2   4
ENDBRANCH   1   2
BRANCH   1  11
ATOM     11  O   UNL     1       4.556   4.294  17.995  0.00  0.00    +0.000 OA
BRANCH  11  13
ATOM     12  C   UNL     1       6.387   5.520  17.070  0.00  0.00    +0.000 C 
ATOM     13  C   UNL     1       5.717   5.004  18.119  0.00  0.00    +0.000 C 
ATOM     14  C   UNL     1       6.360   5.418  19.410  0.00  0.00    +0.000 C 
ATOM     15  C   UNL     1       7.730   5.927  18.953  0.00  0.00    +0.000 C 
ATOM     16  C   UNL     1       7.545   6.357  17.510  0.00  0.00    +0.000 C 
BRANCH  12  17
ATOM     17  C   UNL     1       6.002   5.458  15.645  0.00  0.00    +0.000 C 
ATOM     18  O   UNL     1       5.379   6.395  15.159  0.00  0.00    +0.000 OA
BRANCH  17  19
ATOM     19  O   UNL     1       6.246   4.350  14.901  0.00  0.00    +0.000 OA
BRANCH  19  21
ATOM     20  C   UNL     1       6.286   3.577  12.644  0.00  0.00    +0.000 C 
ATOM     21  C   UNL     1       5.431   3.958  13.854  0.00  0.00    +0.000 C 
ENDBRANCH  19  21
ENDBRANCH  17  19
ENDBRANCH  12  17
ENDBRANCH  11  13
ENDBRANCH   1  11
BRANCH   1  22
ATOM     22  O   UNL     1       2.500   3.578  17.199  0.00  0.00    +0.000 OA
BRANCH  22  23
ATOM     23  C   UNL     1       3.009   2.421  17.863  0.00  0.00    +0.000 C 
ATOM     24  C   UNL     1       2.054   1.936  18.942  0.00  0.00    +0.000 C 
ENDBRANCH  22  23
ENDBRANCH   1  22
TORSDOF 10
ENDMDL
