MODEL 1
REMARK VINA RESULT:      -7.9      0.000      0.000
REMARK  Name = 
REMARK  10 active torsions:
REMARK  status: ('A' for Active; 'I' for Inactive)
REMARK    1  A    between atoms: C_1  and  C_2
REMARK    2  A    between atoms: C_2  and  C_3
REMARK    3  A    between atoms: C_3  and  C_4
REMARK    4  A    between atoms: C_4  and  O_5
REMARK    5  A    between atoms: O_5  and  C_6
REMARK    6  A    between atoms: C_6  and  O_8
REMARK    7  A    between atoms: O_8  and  C_9
REMARK    8  A    between atoms: C_15  and  O_16
REMARK    9  A    between atoms: O_16  and  C_17
REMARK   10  A    between atoms: C_21  and  C_22
REMARK                            x       y       z     vdW  Elec       q    Type
REMARK                         _______ _______ _______ _____ _____    ______ ____
ROOT
ATOM      1  C   UNL     1       3.340   5.676  19.391  0.00  0.00    +0.000 A 
ATOM      2  C   UNL     1       3.666   6.254  18.165  0.00  0.00    +0.000 A 
ATOM      3  C   UNL     1       3.103   7.480  17.816  0.00  0.00    +0.000 A 
ATOM      4  C   UNL     1       2.229   8.120  18.703  0.00  0.00    +0.000 A 
ATOM      5  C   UNL     1       1.670   9.446  18.376  0.00  0.00    +0.000 A 
ATOM      6  O   UNL     1       1.995  10.035  17.352  0.00  0.00    +0.000 OA
ATOM      7  C   UNL     1       0.697  10.010  19.347  0.00  0.00    +0.000 A 
ATOM      8  C   UNL     1       0.511   9.331  20.492  0.00  0.00    +0.000 A 
ATOM      9  O   UNL     1       1.065   8.122  20.834  0.00  0.00    +0.000 OA
ATOM     10  C   UNL     1       1.898   7.521  19.921  0.00  0.00    +0.000 A 
ATOM     11  C   UNL     1       2.450   6.293  20.272  0.00  0.00    +0.000 A 
ENDROOT
BRANCH   1  12
ATOM     12  O   UNL     1       4.063   4.567  19.857  0.00  0.00    +0.000 OA
BRANCH  12  13
ATOM     13  C   UNL     1       4.856   3.856  18.970  0.00  0.00    +0.000 C 
ATOM     14  O   UNL     1       6.039   4.045  18.731  0.00  0.00    +0.000 OA
BRANCH  13  15
ATOM     15  O   UNL     1       4.046   2.962  18.347  0.00  0.00    +0.000 OA
BRANCH  15  16
ATOM     16  C   UNL     1       3.153   2.250  19.200  0.00  0.00    +0.000 C 
BRANCH  16  17
ATOM     17  C   UNL     1       1.711   2.274  18.708  0.00  0.00    +0.000 C 
BRANCH  17  19
ATOM     18  C   UNL     1       1.370   2.759  21.180  0.00  0.00    +0.000 C 
ATOM     19  C   UNL     1       0.843   2.949  19.771  0.00  0.00    +0.000 C 
ENDBRANCH  17  19
ENDBRANCH  16  17
ENDBRANCH  15  16
ENDBRANCH  13  15
ENDBRANCH  12  13
ENDBRANCH   1  12
BRANCH   7  20
ATOM     20  O   UNL     1       0.104  11.227  19.032  0.00  0.00    +0.000 OA
BRANCH  20  21
ATOM     21  C   UNL     1      -1.201  11.243  18.590  0.00  0.00    +0.000 A 
ATOM     22  C   UNL     1      -2.235  11.873  19.292  0.00  0.00    +0.000 A 
ATOM     23  C   UNL     1      -3.528  11.868  18.772  0.00  0.00    +0.000 A 
ATOM     24  C   UNL     1      -3.802  11.192  17.584  0.00  0.00    +0.000 A 
ATOM     25  C   UNL     1      -2.786  10.509  16.904  0.00  0.00    +0.000 A 
ATOM     26  C   UNL     1      -3.086   9.750  15.645  0.00  0.00    +0.000 C 
ATOM     27  C   UNL     1      -1.480  10.541  17.416  0.00  0.00    +0.000 A 
ENDBRANCH  20  21
ENDBRANCH   7  20
TORSDOF 8
ENDMDL
MODEL 2
REMARK VINA RESULT:      -7.6      1.703      3.146
REMARK  Name = 
REMARK  10 active torsions:
REMARK  status: ('A' for Active; 'I' for Inactive)
REMARK    1  A    between atoms: C_1  and  C_2
REMARK    2  A    between atoms: C_2  and  C_3
REMARK    3  A    between atoms: C_3  and  C_4
REMARK    4  A    between atoms: C_4  and  O_5
REMARK    5  A    between atoms: O_5  and  C_6
REMARK    6  A    between atoms: C_6  and  O_8
REMARK    7  A    between atoms: O_8  and  C_9
REMARK    8  A    between atoms: C_15  and  O_16
REMARK    9  A    between atoms: O_16  and  C_17
REMARK   10  A    between atoms: C_21  and  C_22
REMARK                            x       y       z     vdW  Elec       q    Type
REMARK                         _______ _______ _______ _____ _____    ______ ____
ROOT
ATOM      1  C   UNL     1       3.753   5.706  18.929  0.00  0.00    +0.000 A 
ATOM      2  C   UNL     1       3.954   6.396  17.735  0.00  0.00    +0.000 A 
ATOM      3  C   UNL     1       3.276   7.594  17.515  0.00  0.00    +0.000 A 
ATOM      4  C   UNL     1       2.413   8.093  18.498  0.00  0.00    +0.000 A 
ATOM      5  C   UNL     1       1.732   9.388  18.307  0.00  0.00    +0.000 A 
ATOM      6  O   UNL     1       1.945  10.075  17.315  0.00  0.00    +0.000 OA
ATOM      7  C   UNL     1       0.782   9.798  19.373  0.00  0.00    +0.000 A 
ATOM      8  C   UNL     1       0.722   9.024  20.471  0.00  0.00    +0.000 A 
ATOM      9  O   UNL     1       1.390   7.843  20.685  0.00  0.00    +0.000 OA
ATOM     10  C   UNL     1       2.208   7.382  19.682  0.00  0.00    +0.000 A 
ATOM     11  C   UNL     1       2.875   6.181  19.905  0.00  0.00    +0.000 A 
ENDROOT
BRANCH   1  12
ATOM     12  O   UNL     1       4.588   4.630  19.265  0.00  0.00    +0.000 OA
BRANCH  12  13
ATOM     13  C   UNL     1       5.963   4.786  19.175  0.00  0.00    +0.000 C 
ATOM     14  O   UNL     1       6.662   5.529  19.847  0.00  0.00    +0.000 OA
BRANCH  13  15
ATOM     15  O   UNL     1       6.378   4.021  18.133  0.00  0.00    +0.000 OA
BRANCH  15  16
ATOM     16  C   UNL     1       7.466   4.554  17.381  0.00  0.00    +0.000 C 
BRANCH  16  17
ATOM     17  C   UNL     1       7.022   5.551  16.317  0.00  0.00    +0.000 C 
BRANCH  17  19
ATOM     18  C   UNL     1       5.834   4.018  14.673  0.00  0.00    +0.000 C 
ATOM     19  C   UNL     1       7.063   4.861  14.953  0.00  0.00    +0.000 C 
ENDBRANCH  17  19
ENDBRANCH  16  17
ENDBRANCH  15  16
ENDBRANCH  13  15
ENDBRANCH  12  13
ENDBRANCH   1  12
BRANCH   7  20
ATOM     20  O   UNL     1       0.077  10.981  19.188  0.00  0.00    +0.000 OA
BRANCH  20  21
ATOM     21  C   UNL     1      -1.230  10.923  18.752  0.00  0.00    +0.000 A 
ATOM     22  C   UNL     1      -1.646  10.097  17.702  0.00  0.00    +0.000 A 
ATOM     23  C   UNL     1      -2.989  10.075  17.330  0.00  0.00    +0.000 A 
ATOM     24  C   UNL     1      -3.906  10.912  17.965  0.00  0.00    +0.000 A 
ATOM     25  C   UNL     1      -3.488  11.785  18.977  0.00  0.00    +0.000 A 
ATOM     26  C   UNL     1      -4.465  12.713  19.636  0.00  0.00    +0.000 C 
ATOM     27  C   UNL     1      -2.141  11.783  19.369  0.00  0.00    +0.000 A 
ENDBRANCH  20  21
ENDBRANCH   7  20
TORSDOF 8
ENDMDL
MODEL 3
REMARK VINA RESULT:      -7.5      4.167      7.563
REMARK  Name = 
REMARK  10 active torsions:
REMARK  status: ('A' for Active; 'I' for Inactive)
REMARK    1  A    between atoms: C_1  and  C_2
REMARK    2  A    between atoms: C_2  and  C_3
REMARK    3  A    between atoms: C_3  and  C_4
REMARK    4  A    between atoms: C_4  and  O_5
REMARK    5  A    between atoms: O_5  and  C_6
REMARK    6  A    between atoms: C_6  and  O_8
REMARK    7  A    between atoms: O_8  and  C_9
REMARK    8  A    between atoms: C_15  and  O_16
REMARK    9  A    between atoms: O_16  and  C_17
REMARK   10  A    between atoms: C_21  and  C_22
REMARK                            x       y       z     vdW  Elec       q    Type
REMARK                         _______ _______ _______ _____ _____    ______ ____
ROOT
ATOM      1  C   UNL     1       2.828   5.757  19.771  0.00  0.00    +0.000 A 
ATOM      2  C   UNL     1       2.593   6.784  18.859  0.00  0.00    +0.000 A 
ATOM      3  C   UNL     1       3.493   6.993  17.816  0.00  0.00    +0.000 A 
ATOM      4  C   UNL     1       4.612   6.162  17.690  0.00  0.00    +0.000 A 
ATOM      5  C   UNL     1       5.545   6.330  16.558  0.00  0.00    +0.000 A 
ATOM      6  O   UNL     1       5.333   7.159  15.682  0.00  0.00    +0.000 OA
ATOM      7  C   UNL     1       6.741   5.447  16.552  0.00  0.00    +0.000 A 
ATOM      8  C   UNL     1       6.803   4.494  17.496  0.00  0.00    +0.000 A 
ATOM      9  O   UNL     1       5.916   4.291  18.525  0.00  0.00    +0.000 OA
ATOM     10  C   UNL     1       4.845   5.147  18.621  0.00  0.00    +0.000 A 
ATOM     11  C   UNL     1       3.955   4.939  19.671  0.00  0.00    +0.000 A 
ENDROOT
BRANCH   1  12
ATOM     12  O   UNL     1       1.828   5.389  20.684  0.00  0.00    +0.000 OA
BRANCH  12  13
ATOM     13  C   UNL     1       1.759   4.074  21.118  0.00  0.00    +0.000 C 
ATOM     14  O   UNL     1       2.443   3.551  21.984  0.00  0.00    +0.000 OA
BRANCH  13  15
ATOM     15  O   UNL     1       0.845   3.448  20.333  0.00  0.00    +0.000 OA
BRANCH  15  16
ATOM     16  C   UNL     1       1.335   2.330  19.598  0.00  0.00    +0.000 C 
BRANCH  16  17
ATOM     17  C   UNL     1       1.397   2.584  18.096  0.00  0.00    +0.000 C 
BRANCH  17  19
ATOM     18  C   UNL     1       3.626   1.450  18.555  0.00  0.00    +0.000 C 
ATOM     19  C   UNL     1       2.828   2.336  17.617  0.00  0.00    +0.000 C 
ENDBRANCH  17  19
ENDBRANCH  16  17
ENDBRANCH  15  16
ENDBRANCH  13  15
ENDBRANCH  12  13
ENDBRANCH   1  12
BRANCH   7  20
ATOM     20  O   UNL     1       7.669   5.629  15.534  0.00  0.00    +0.000 OA
BRANCH  20  21
ATOM     21  C   UNL     1       7.386   5.150  14.273  0.00  0.00    +0.000 A 
ATOM     22  C   UNL     1       8.137   5.491  13.143  0.00  0.00    +0.000 A 
ATOM     23  C   UNL     1       7.805   4.951  11.902  0.00  0.00    +0.000 A 
ATOM     24  C   UNL     1       6.696   4.115  11.777  0.00  0.00    +0.000 A 
ATOM     25  C   UNL     1       5.903   3.815  12.891  0.00  0.00    +0.000 A 
ATOM     26  C   UNL     1       4.687   2.946  12.752  0.00  0.00    +0.000 C 
ATOM     27  C   UNL     1       6.258   4.338  14.143  0.00  0.00    +0.000 A 
ENDBRANCH  20  21
ENDBRANCH   7  20
TORSDOF 8
ENDMDL
MODEL 4
REMARK VINA RESULT:      -7.5      2.141      2.963
REMARK  Name = 
REMARK  10 active torsions:
REMARK  status: ('A' for Active; 'I' for Inactive)
REMARK    1  A    between atoms: C_1  and  C_2
REMARK    2  A    between atoms: C_2  and  C_3
REMARK    3  A    between atoms: C_3  and  C_4
REMARK    4  A    between atoms: C_4  and  O_5
REMARK    5  A    between atoms: O_5  and  C_6
REMARK    6  A    between atoms: C_6  and  O_8
REMARK    7  A    between atoms: O_8  and  C_9
REMARK    8  A    between atoms: C_15  and  O_16
REMARK    9  A    between atoms: O_16  and  C_17
REMARK   10  A    between atoms: C_21  and  C_22
REMARK                            x       y       z     vdW  Elec       q    Type
REMARK                         _______ _______ _______ _____ _____    ______ ____
ROOT
ATOM      1  C   UNL     1       4.125   5.342  18.917  0.00  0.00    +0.000 A 
ATOM      2  C   UNL     1       4.256   6.032  17.713  0.00  0.00    +0.000 A 
ATOM      3  C   UNL     1       3.503   7.186  17.500  0.00  0.00    +0.000 A 
ATOM      4  C   UNL     1       2.637   7.643  18.501  0.00  0.00    +0.000 A 
ATOM      5  C   UNL     1       1.876   8.894  18.316  0.00  0.00    +0.000 A 
ATOM      6  O   UNL     1       2.023   9.582  17.314  0.00  0.00    +0.000 OA
ATOM      7  C   UNL     1       0.931   9.258  19.404  0.00  0.00    +0.000 A 
ATOM      8  C   UNL     1       0.945   8.493  20.509  0.00  0.00    +0.000 A 
ATOM      9  O   UNL     1       1.686   7.355  20.716  0.00  0.00    +0.000 OA
ATOM     10  C   UNL     1       2.504   6.932  19.696  0.00  0.00    +0.000 A 
ATOM     11  C   UNL     1       3.246   5.775  19.911  0.00  0.00    +0.000 A 
ENDROOT
BRANCH   1  12
ATOM     12  O   UNL     1       5.031   4.321  19.240  0.00  0.00    +0.000 OA
BRANCH  12  13
ATOM     13  C   UNL     1       4.551   3.045  19.491  0.00  0.00    +0.000 C 
ATOM     14  O   UNL     1       4.888   2.300  20.399  0.00  0.00    +0.000 OA
BRANCH  13  15
ATOM     15  O   UNL     1       3.695   2.741  18.482  0.00  0.00    +0.000 OA
BRANCH  15  16
ATOM     16  C   UNL     1       2.491   2.088  18.879  0.00  0.00    +0.000 C 
BRANCH  16  17
ATOM     17  C   UNL     1       1.252   2.954  18.686  0.00  0.00    +0.000 C 
BRANCH  17  19
ATOM     18  C   UNL     1       1.487   2.719  21.208  0.00  0.00    +0.000 C 
ATOM     19  C   UNL     1       0.684   3.305  20.062  0.00  0.00    +0.000 C 
ENDBRANCH  17  19
ENDBRANCH  16  17
ENDBRANCH  15  16
ENDBRANCH  13  15
ENDBRANCH  12  13
ENDBRANCH   1  12
BRANCH   7  20
ATOM     20  O   UNL     1       0.153  10.395  19.227  0.00  0.00    +0.000 OA
BRANCH  20  21
ATOM     21  C   UNL     1       0.395  11.503  20.010  0.00  0.00    +0.000 A 
ATOM     22  C   UNL     1       1.494  12.347  19.817  0.00  0.00    +0.000 A 
ATOM     23  C   UNL     1       1.663  13.462  20.635  0.00  0.00    +0.000 A 
ATOM     24  C   UNL     1       0.769  13.708  21.677  0.00  0.00    +0.000 A 
ATOM     25  C   UNL     1      -0.301  12.837  21.916  0.00  0.00    +0.000 A 
ATOM     26  C   UNL     1      -1.242  13.078  23.059  0.00  0.00    +0.000 C 
ATOM     27  C   UNL     1      -0.483  11.731  21.071  0.00  0.00    +0.000 A 
ENDBRANCH  20  21
ENDBRANCH   7  20
TORSDOF 8
ENDMDL
MODEL 5
REMARK VINA RESULT:      -7.4      1.377      2.771
REMARK  Name = 
REMARK  10 active torsions:
REMARK  status: ('A' for Active; 'I' for Inactive)
REMARK    1  A    between atoms: C_1  and  C_2
REMARK    2  A    between atoms: C_2  and  C_3
REMARK    3  A    between atoms: C_3  and  C_4
REMARK    4  A    between atoms: C_4  and  O_5
REMARK    5  A    between atoms: O_5  and  C_6
REMARK    6  A    between atoms: C_6  and  O_8
REMARK    7  A    between atoms: O_8  and  C_9
REMARK    8  A    between atoms: C_15  and  O_16
REMARK    9  A    between atoms: O_16  and  C_17
REMARK   10  A    between atoms: C_21  and  C_22
REMARK                            x       y       z     vdW  Elec       q    Type
REMARK                         _______ _______ _______ _____ _____    ______ ____
ROOT
ATOM      1  C   UNL     1       3.370   5.663  19.210  0.00  0.00    +0.000 A 
ATOM      2  C   UNL     1       3.636   6.289  17.994  0.00  0.00    +0.000 A 
ATOM      3  C   UNL     1       3.061   7.530  17.723  0.00  0.00    +0.000 A 
ATOM      4  C   UNL     1       2.237   8.136  18.680  0.00  0.00    +0.000 A 
ATOM      5  C   UNL     1       1.667   9.475  18.435  0.00  0.00    +0.000 A 
ATOM      6  O   UNL     1       1.943  10.104  17.422  0.00  0.00    +0.000 OA
ATOM      7  C   UNL     1       0.748  10.001  19.478  0.00  0.00    +0.000 A 
ATOM      8  C   UNL     1       0.618   9.277  20.602  0.00  0.00    +0.000 A 
ATOM      9  O   UNL     1       1.183   8.053  20.866  0.00  0.00    +0.000 OA
ATOM     10  C   UNL     1       1.966   7.488  19.888  0.00  0.00    +0.000 A 
ATOM     11  C   UNL     1       2.529   6.245  20.160  0.00  0.00    +0.000 A 
ENDROOT
BRANCH   1  12
ATOM     12  O   UNL     1       4.111   4.534  19.592  0.00  0.00    +0.000 OA
BRANCH  12  13
ATOM     13  C   UNL     1       4.643   3.710  18.613  0.00  0.00    +0.000 C 
ATOM     14  O   UNL     1       4.092   2.761  18.075  0.00  0.00    +0.000 OA
BRANCH  13  15
ATOM     15  O   UNL     1       5.929   4.101  18.426  0.00  0.00    +0.000 OA
BRANCH  15  16
ATOM     16  C   UNL     1       6.336   4.228  17.066  0.00  0.00    +0.000 C 
BRANCH  16  17
ATOM     17  C   UNL     1       7.357   5.339  16.850  0.00  0.00    +0.000 C 
BRANCH  17  19
ATOM     18  C   UNL     1       7.664   7.735  17.643  0.00  0.00    +0.000 C 
ATOM     19  C   UNL     1       7.263   6.322  18.018  0.00  0.00    +0.000 C 
ENDBRANCH  17  19
ENDBRANCH  16  17
ENDBRANCH  15  16
ENDBRANCH  13  15
ENDBRANCH  12  13
ENDBRANCH   1  12
BRANCH   7  20
ATOM     20  O   UNL     1       0.145  11.231  19.243  0.00  0.00    +0.000 OA
BRANCH  20  21
ATOM     21  C   UNL     1      -1.158  11.266  18.796  0.00  0.00    +0.000 A 
ATOM     22  C   UNL     1      -2.187  11.902  19.498  0.00  0.00    +0.000 A 
ATOM     23  C   UNL     1      -3.478  11.915  18.974  0.00  0.00    +0.000 A 
ATOM     24  C   UNL     1      -3.755  11.252  17.779  0.00  0.00    +0.000 A 
ATOM     25  C   UNL     1      -2.744  10.563  17.098  0.00  0.00    +0.000 A 
ATOM     26  C   UNL     1      -3.047   9.817  15.832  0.00  0.00    +0.000 C 
ATOM     27  C   UNL     1      -1.440  10.577  17.615  0.00  0.00    +0.000 A 
ENDBRANCH  20  21
ENDBRANCH   7  20
TORSDOF 8
ENDMDL
MODEL 6
REMARK VINA RESULT:      -7.3      2.986      4.185
REMARK  Name = 
REMARK  10 active torsions:
REMARK  status: ('A' for Active; 'I' for Inactive)
REMARK    1  A    between atoms: C_1  and  C_2
REMARK    2  A    between atoms: C_2  and  C_3
REMARK    3  A    between atoms: C_3  and  C_4
REMARK    4  A    between atoms: C_4  and  O_5
REMARK    5  A    between atoms: O_5  and  C_6
REMARK    6  A    between atoms: C_6  and  O_8
REMARK    7  A    between atoms: O_8  and  C_9
REMARK    8  A    between atoms: C_15  and  O_16
REMARK    9  A    between atoms: O_16  and  C_17
REMARK   10  A    between atoms: C_21  and  C_22
REMARK                            x       y       z     vdW  Elec       q    Type
REMARK                         _______ _______ _______ _____ _____    ______ ____
ROOT
ATOM      1  C   UNL     1       4.718   5.257  17.671  0.00  0.00    +0.000 A 
ATOM      2  C   UNL     1       4.269   4.795  18.907  0.00  0.00    +0.000 A 
ATOM      3  C   UNL     1       3.367   5.566  19.639  0.00  0.00    +0.000 A 
ATOM      4  C   UNL     1       2.914   6.783  19.118  0.00  0.00    +0.000 A 
ATOM      5  C   UNL     1       1.914   7.584  19.851  0.00  0.00    +0.000 A 
ATOM      6  O   UNL     1       1.423   7.179  20.898  0.00  0.00    +0.000 OA
ATOM      7  C   UNL     1       1.550   8.895  19.253  0.00  0.00    +0.000 A 
ATOM      8  C   UNL     1       2.060   9.177  18.042  0.00  0.00    +0.000 A 
ATOM      9  O   UNL     1       2.951   8.418  17.323  0.00  0.00    +0.000 OA
ATOM     10  C   UNL     1       3.385   7.242  17.886  0.00  0.00    +0.000 A 
ATOM     11  C   UNL     1       4.293   6.482  17.154  0.00  0.00    +0.000 A 
ENDROOT
BRANCH   1  12
ATOM     12  O   UNL     1       5.440   4.402  16.825  0.00  0.00    +0.000 OA
BRANCH  12  13
ATOM     13  C   UNL     1       6.655   4.826  16.312  0.00  0.00    +0.000 C 
ATOM     14  O   UNL     1       7.735   4.817  16.882  0.00  0.00    +0.000 OA
BRANCH  13  15
ATOM     15  O   UNL     1       6.404   5.340  15.080  0.00  0.00    +0.000 OA
BRANCH  15  16
ATOM     16  C   UNL     1       6.917   4.583  13.987  0.00  0.00    +0.000 C 
BRANCH  16  17
ATOM     17  C   UNL     1       5.838   3.808  13.240  0.00  0.00    +0.000 C 
BRANCH  17  19
ATOM     18  C   UNL     1       5.661   2.021  11.440  0.00  0.00    +0.000 C 
ATOM     19  C   UNL     1       6.460   3.187  11.988  0.00  0.00    +0.000 C 
ENDBRANCH  17  19
ENDBRANCH  16  17
ENDBRANCH  15  16
ENDBRANCH  13  15
ENDBRANCH  12  13
ENDBRANCH   1  12
BRANCH   7  20
ATOM     20  O   UNL     1       0.661   9.699  19.955  0.00  0.00    +0.000 OA
BRANCH  20  21
ATOM     21  C   UNL     1      -0.207  10.510  19.256  0.00  0.00    +0.000 A 
ATOM     22  C   UNL     1      -0.001  11.884  19.093  0.00  0.00    +0.000 A 
ATOM     23  C   UNL     1      -0.911  12.638  18.355  0.00  0.00    +0.000 A 
ATOM     24  C   UNL     1      -2.052  12.036  17.825  0.00  0.00    +0.000 A 
ATOM     25  C   UNL     1      -2.297  10.673  18.032  0.00  0.00    +0.000 A 
ATOM     26  C   UNL     1      -3.542  10.031  17.495  0.00  0.00    +0.000 C 
ATOM     27  C   UNL     1      -1.363   9.912  18.751  0.00  0.00    +0.000 A 
ENDBRANCH  20  21
ENDBRANCH   7  20
TORSDOF 8
ENDMDL
MODEL 7
REMARK VINA RESULT:      -7.2      0.979      1.713
REMARK  Name = 
REMARK  10 active torsions:
REMARK  status: ('A' for Active; 'I' for Inactive)
REMARK    1  A    between atoms: C_1  and  C_2
REMARK    2  A    between atoms: C_2  and  C_3
REMARK    3  A    between atoms: C_3  and  C_4
REMARK    4  A    between atoms: C_4  and  O_5
REMARK    5  A    between atoms: O_5  and  C_6
REMARK    6  A    between atoms: C_6  and  O_8
REMARK    7  A    between atoms: O_8  and  C_9
REMARK    8  A    between atoms: C_15  and  O_16
REMARK    9  A    between atoms: O_16  and  C_17
REMARK   10  A    between atoms: C_21  and  C_22
REMARK                            x       y       z     vdW  Elec       q    Type
REMARK                         _______ _______ _______ _____ _____    ______ ____
ROOT
ATOM      1  C   UNL     1       4.150   5.297  18.232  0.00  0.00    +0.000 A 
ATOM      2  C   UNL     1       4.333   6.156  17.149  0.00  0.00    +0.000 A 
ATOM      3  C   UNL     1       3.680   7.387  17.135  0.00  0.00    +0.000 A 
ATOM      4  C   UNL     1       2.862   7.751  18.211  0.00  0.00    +0.000 A 
ATOM      5  C   UNL     1       2.209   9.074  18.240  0.00  0.00    +0.000 A 
ATOM      6  O   UNL     1       2.409   9.898  17.357  0.00  0.00    +0.000 OA
ATOM      7  C   UNL     1       1.304   9.338  19.389  0.00  0.00    +0.000 A 
ATOM      8  C   UNL     1       1.258   8.409  20.359  0.00  0.00    +0.000 A 
ATOM      9  O   UNL     1       1.900   7.195  20.370  0.00  0.00    +0.000 OA
ATOM     10  C   UNL     1       2.674   6.873  19.282  0.00  0.00    +0.000 A 
ATOM     11  C   UNL     1       3.316   5.638  19.298  0.00  0.00    +0.000 A 
ENDROOT
BRANCH   1  12
ATOM     12  O   UNL     1       4.967   4.165  18.373  0.00  0.00    +0.000 OA
BRANCH  12  13
ATOM     13  C   UNL     1       4.467   3.046  19.020  0.00  0.00    +0.000 C 
ATOM     14  O   UNL     1       4.632   2.742  20.191  0.00  0.00    +0.000 OA
BRANCH  13  15
ATOM     15  O   UNL     1       3.830   2.301  18.081  0.00  0.00    +0.000 OA
BRANCH  15  16
ATOM     16  C   UNL     1       2.485   2.687  17.806  0.00  0.00    +0.000 C 
BRANCH  16  17
ATOM     17  C   UNL     1       1.471   2.000  18.712  0.00  0.00    +0.000 C 
BRANCH  17  19
ATOM     18  C   UNL     1       1.307   2.841  21.106  0.00  0.00    +0.000 C 
ATOM     19  C   UNL     1       0.882   3.043  19.664  0.00  0.00    +0.000 C 
ENDBRANCH  17  19
ENDBRANCH  16  17
ENDBRANCH  15  16
ENDBRANCH  13  15
ENDBRANCH  12  13
ENDBRANCH   1  12
BRANCH   7  20
ATOM     20  O   UNL     1       0.625  10.550  19.408  0.00  0.00    +0.000 OA
BRANCH  20  21
ATOM     21  C   UNL     1      -0.647  10.617  18.880  0.00  0.00    +0.000 A 
ATOM     22  C   UNL     1      -1.032   9.915  17.732  0.00  0.00    +0.000 A 
ATOM     23  C   UNL     1      -2.342  10.014  17.268  0.00  0.00    +0.000 A 
ATOM     24  C   UNL     1      -3.253  10.850  17.913  0.00  0.00    +0.000 A 
ATOM     25  C   UNL     1      -2.861  11.601  19.028  0.00  0.00    +0.000 A 
ATOM     26  C   UNL     1      -3.828  12.529  19.701  0.00  0.00    +0.000 C 
ATOM     27  C   UNL     1      -1.549  11.476  19.509  0.00  0.00    +0.000 A 
ENDBRANCH  20  21
ENDBRANCH   7  20
TORSDOF 8
ENDMDL
MODEL 8
REMARK VINA RESULT:      -7.1      1.610      3.302
REMARK  Name = 
REMARK  10 active torsions:
REMARK  status: ('A' for Active; 'I' for Inactive)
REMARK    1  A    between atoms: C_1  and  C_2
REMARK    2  A    between atoms: C_2  and  C_3
REMARK    3  A    between atoms: C_3  and  C_4
REMARK    4  A    between atoms: C_4  and  O_5
REMARK    5  A    between atoms: O_5  and  C_6
REMARK    6  A    between atoms: C_6  and  O_8
REMARK    7  A    between atoms: O_8  and  C_9
REMARK    8  A    between atoms: C_15  and  O_16
REMARK    9  A    between atoms: O_16  and  C_17
REMARK   10  A    between atoms: C_21  and  C_22
REMARK                            x       y       z     vdW  Elec       q    Type
REMARK                         _______ _______ _______ _____ _____    ______ ____
ROOT
ATOM      1  C   UNL     1       3.133   5.402  18.934  0.00  0.00    +0.000 A 
ATOM      2  C   UNL     1       2.498   5.460  20.173  0.00  0.00    +0.000 A 
ATOM      3  C   UNL     1       1.836   6.628  20.549  0.00  0.00    +0.000 A 
ATOM      4  C   UNL     1       1.806   7.720  19.673  0.00  0.00    +0.000 A 
ATOM      5  C   UNL     1       1.061   8.943  20.029  0.00  0.00    +0.000 A 
ATOM      6  O   UNL     1       0.414   9.011  21.066  0.00  0.00    +0.000 OA
ATOM      7  C   UNL     1       1.149  10.073  19.067  0.00  0.00    +0.000 A 
ATOM      8  C   UNL     1       1.785   9.841  17.907  0.00  0.00    +0.000 A 
ATOM      9  O   UNL     1       2.439   8.690  17.539  0.00  0.00    +0.000 OA
ATOM     10  C   UNL     1       2.461   7.654  18.441  0.00  0.00    +0.000 A 
ATOM     11  C   UNL     1       3.132   6.494  18.064  0.00  0.00    +0.000 A 
ENDROOT
BRANCH   1  12
ATOM     12  O   UNL     1       3.604   4.174  18.446  0.00  0.00    +0.000 OA
BRANCH  12  13
ATOM     13  C   UNL     1       4.883   4.102  17.917  0.00  0.00    +0.000 C 
ATOM     14  O   UNL     1       5.184   4.003  16.737  0.00  0.00    +0.000 OA
BRANCH  13  15
ATOM     15  O   UNL     1       5.742   4.071  18.968  0.00  0.00    +0.000 OA
BRANCH  15  16
ATOM     16  C   UNL     1       6.331   5.323  19.311  0.00  0.00    +0.000 C 
BRANCH  16  17
ATOM     17  C   UNL     1       7.770   5.456  18.828  0.00  0.00    +0.000 C 
BRANCH  17  19
ATOM     18  C   UNL     1       7.316   7.462  17.332  0.00  0.00    +0.000 C 
ATOM     19  C   UNL     1       8.056   6.932  18.545  0.00  0.00    +0.000 C 
ENDBRANCH  17  19
ENDBRANCH  16  17
ENDBRANCH  15  16
ENDBRANCH  13  15
ENDBRANCH  12  13
ENDBRANCH   1  12
BRANCH   7  20
ATOM     20  O   UNL     1       0.511  11.260  19.408  0.00  0.00    +0.000 OA
BRANCH  20  21
ATOM     21  C   UNL     1      -0.832  11.403  19.135  0.00  0.00    +0.000 A 
ATOM     22  C   UNL     1      -1.696  12.158  19.937  0.00  0.00    +0.000 A 
ATOM     23  C   UNL     1      -3.039  12.276  19.587  0.00  0.00    +0.000 A 
ATOM     24  C   UNL     1      -3.534  11.601  18.471  0.00  0.00    +0.000 A 
ATOM     25  C   UNL     1      -2.690  10.796  17.696  0.00  0.00    +0.000 A 
ATOM     26  C   UNL     1      -3.228  10.040  16.517  0.00  0.00    +0.000 C 
ATOM     27  C   UNL     1      -1.332  10.704  18.035  0.00  0.00    +0.000 A 
ENDBRANCH  20  21
ENDBRANCH   7  20
TORSDOF 8
ENDMDL
MODEL 9
REMARK VINA RESULT:      -7.1      0.926      1.083
REMARK  Name = 
REMARK  10 active torsions:
REMARK  status: ('A' for Active; 'I' for Inactive)
REMARK    1  A    between atoms: C_1  and  C_2
REMARK    2  A    between atoms: C_2  and  C_3
REMARK    3  A    between atoms: C_3  and  C_4
REMARK    4  A    between atoms: C_4  and  O_5
REMARK    5  A    between atoms: O_5  and  C_6
REMARK    6  A    between atoms: C_6  and  O_8
REMARK    7  A    between atoms: O_8  and  C_9
REMARK    8  A    between atoms: C_15  and  O_16
REMARK    9  A    between atoms: O_16  and  C_17
REMARK   10  A    between atoms: C_21  and  C_22
REMARK                            x       y       z     vdW  Elec       q    Type
REMARK                         _______ _______ _______ _____ _____    ______ ____
ROOT
ATOM      1  C   UNL     1       3.756   5.586  18.085  0.00  0.00    +0.000 A 
ATOM      2  C   UNL     1       4.000   6.517  17.076  0.00  0.00    +0.000 A 
ATOM      3  C   UNL     1       3.425   7.784  17.161  0.00  0.00    +0.000 A 
ATOM      4  C   UNL     1       2.624   8.110  18.261  0.00  0.00    +0.000 A 
ATOM      5  C   UNL     1       2.055   9.465  18.397  0.00  0.00    +0.000 A 
ATOM      6  O   UNL     1       2.313  10.344  17.584  0.00  0.00    +0.000 OA
ATOM      7  C   UNL     1       1.159   9.691  19.561  0.00  0.00    +0.000 A 
ATOM      8  C   UNL     1       1.049   8.691  20.452  0.00  0.00    +0.000 A 
ATOM      9  O   UNL     1       1.614   7.442  20.366  0.00  0.00    +0.000 OA
ATOM     10  C   UNL     1       2.374   7.161  19.256  0.00  0.00    +0.000 A 
ATOM     11  C   UNL     1       2.937   5.891  19.173  0.00  0.00    +0.000 A 
ENDROOT
BRANCH   1  12
ATOM     12  O   UNL     1       4.499   4.398  18.135  0.00  0.00    +0.000 OA
BRANCH  12  13
ATOM     13  C   UNL     1       5.309   4.151  19.232  0.00  0.00    +0.000 C 
ATOM     14  O   UNL     1       6.086   4.932  19.760  0.00  0.00    +0.000 OA
BRANCH  13  15
ATOM     15  O   UNL     1       5.142   2.844  19.559  0.00  0.00    +0.000 OA
BRANCH  15  16
ATOM     16  C   UNL     1       4.128   2.581  20.525  0.00  0.00    +0.000 C 
BRANCH  16  17
ATOM     17  C   UNL     1       2.783   2.236  19.897  0.00  0.00    +0.000 C 
BRANCH  17  19
ATOM     18  C   UNL     1       0.626   3.546  20.213  0.00  0.00    +0.000 C 
ATOM     19  C   UNL     1       1.671   2.658  20.860  0.00  0.00    +0.000 C 
ENDBRANCH  17  19
ENDBRANCH  16  17
ENDBRANCH  15  16
ENDBRANCH  13  15
ENDBRANCH  12  13
ENDBRANCH   1  12
BRANCH   7  20
ATOM     20  O   UNL     1       0.557  10.938  19.678  0.00  0.00    +0.000 OA
BRANCH  20  21
ATOM     21  C   UNL     1      -0.733  11.106  19.225  0.00  0.00    +0.000 A 
ATOM     22  C   UNL     1      -1.681  11.887  19.896  0.00  0.00    +0.000 A 
ATOM     23  C   UNL     1      -2.962  12.029  19.367  0.00  0.00    +0.000 A 
ATOM     24  C   UNL     1      -3.315  11.353  18.199  0.00  0.00    +0.000 A 
ATOM     25  C   UNL     1      -2.392  10.523  17.552  0.00  0.00    +0.000 A 
ATOM     26  C   UNL     1      -2.783   9.765  16.317  0.00  0.00    +0.000 C 
ATOM     27  C   UNL     1      -1.095  10.406  18.073  0.00  0.00    +0.000 A 
ENDBRANCH  20  21
ENDBRANCH   7  20
TORSDOF 8
ENDMDL
