MODEL 1
REMARK VINA RESULT:      -7.4      0.000      0.000
REMARK  Name = 
REMARK  4 active torsions:
REMARK  status: ('A' for Active; 'I' for Inactive)
REMARK    1  A    between atoms: C_2  and  C_3
REMARK    2  A    between atoms: N_9  and  C_10
REMARK    3  A    between atoms: C_10  and  C_11
REMARK    4  A    between atoms: C_11  and  N_12
REMARK                            x       y       z     vdW  Elec       q    Type
REMARK                         _______ _______ _______ _____ _____    ______ ____
ROOT
ATOM      1  O   UNL     1       4.408   4.202  17.919  0.00  0.00    +0.000 OA
ATOM      2  C   UNL     1       3.641   4.933  18.561  0.00  0.00    +0.000 C 
ATOM      3  N   UNL     1       3.457   6.253  18.138  0.00  0.00    +0.000 N 
ATOM      4  C   UNL     1       2.521   7.110  18.732  0.00  0.00    +0.000 A 
ATOM      5  N   UNL     1       1.960   7.028  19.917  0.00  0.00    +0.000 NA
ATOM      6  C   UNL     1       1.443   8.272  20.274  0.00  0.00    +0.000 A 
ATOM      7  C   UNL     1       0.912   8.641  21.528  0.00  0.00    +0.000 A 
ATOM      8  C   UNL     1       0.601   9.984  21.786  0.00  0.00    +0.000 A 
ATOM      9  C   UNL     1       0.809  10.957  20.813  0.00  0.00    +0.000 A 
ATOM     10  C   UNL     1       1.253  10.608  19.537  0.00  0.00    +0.000 A 
ATOM     11  C   UNL     1       1.532   9.254  19.290  0.00  0.00    +0.000 A 
ATOM     12  S   UNL     1       1.987   8.485  17.831  0.00  0.00    +0.000 S 
ENDROOT
BRANCH   2  13
ATOM     13  C   UNL     1       2.908   4.297  19.767  0.00  0.00    +0.000 C 
ATOM     14  C   UNL     1       1.407   4.069  19.542  0.00  0.00    +0.000 C 
ATOM     15  C   UNL     1       1.113   2.949  18.541  0.00  0.00    +0.000 C 
ATOM     16  C   UNL     1       1.752   1.624  18.953  0.00  0.00    +0.000 C 
ATOM     17  C   UNL     1       3.240   1.772  19.233  0.00  0.00    +0.000 C 
ATOM     18  C   UNL     1       3.563   2.947  20.166  0.00  0.00    +0.000 C 
ENDBRANCH   2  13
BRANCH   3  19
ATOM     19  C   UNL     1       4.297   6.674  16.978  0.00  0.00    +0.000 C 
BRANCH  19  20
ATOM     20  C   UNL     1       5.394   7.745  17.264  0.00  0.00    +0.000 C 
BRANCH  20  21
ATOM     21  N   UNL     1       6.779   7.378  16.872  0.00  0.00    +0.000 NA
ATOM     22  C   UNL     1       7.034   5.942  17.128  0.00  0.00    +0.000 C 
ATOM     23  C   UNL     1       7.501   5.878  18.573  0.00  0.00    +0.000 C 
ATOM     24  C   UNL     1       8.329   7.137  18.728  0.00  0.00    +0.000 C 
ATOM     25  C   UNL     1       7.835   8.073  17.630  0.00  0.00    +0.000 C 
ENDBRANCH  20  21
ENDBRANCH  19  20
ENDBRANCH   3  19
TORSDOF 4
ENDMDL
MODEL 2
REMARK VINA RESULT:      -7.4      1.119      1.480
REMARK  Name = 
REMARK  4 active torsions:
REMARK  status: ('A' for Active; 'I' for Inactive)
REMARK    1  A    between atoms: C_2  and  C_3
REMARK    2  A    between atoms: N_9  and  C_10
REMARK    3  A    between atoms: C_10  and  C_11
REMARK    4  A    between atoms: C_11  and  N_12
REMARK                            x       y       z     vdW  Elec       q    Type
REMARK                         _______ _______ _______ _____ _____    ______ ____
ROOT
ATOM      1  O   UNL     1       4.274   4.604  18.729  0.00  0.00    +0.000 OA
ATOM      2  C   UNL     1       3.402   5.302  19.265  0.00  0.00    +0.000 C 
ATOM      3  N   UNL     1       3.288   6.645  18.889  0.00  0.00    +0.000 N 
ATOM      4  C   UNL     1       2.257   7.471  19.355  0.00  0.00    +0.000 A 
ATOM      5  N   UNL     1       1.496   7.326  20.417  0.00  0.00    +0.000 NA
ATOM      6  C   UNL     1       0.917   8.551  20.745  0.00  0.00    +0.000 A 
ATOM      7  C   UNL     1       0.173   8.852  21.904  0.00  0.00    +0.000 A 
ATOM      8  C   UNL     1      -0.187  10.180  22.177  0.00  0.00    +0.000 A 
ATOM      9  C   UNL     1       0.183  11.205  21.310  0.00  0.00    +0.000 A 
ATOM     10  C   UNL     1       0.846  10.924  20.115  0.00  0.00    +0.000 A 
ATOM     11  C   UNL     1       1.172   9.585  19.847  0.00  0.00    +0.000 A 
ATOM     12  S   UNL     1       1.882   8.895  18.451  0.00  0.00    +0.000 S 
ENDROOT
BRANCH   2  13
ATOM     13  C   UNL     1       2.472   4.604  20.286  0.00  0.00    +0.000 C 
ATOM     14  C   UNL     1       1.086   4.245  19.734  0.00  0.00    +0.000 C 
ATOM     15  C   UNL     1       1.123   3.104  18.714  0.00  0.00    +0.000 C 
ATOM     16  C   UNL     1       1.763   1.840  19.285  0.00  0.00    +0.000 C 
ATOM     17  C   UNL     1       3.131   2.118  19.890  0.00  0.00    +0.000 C 
ATOM     18  C   UNL     1       3.132   3.317  20.849  0.00  0.00    +0.000 C 
ENDBRANCH   2  13
BRANCH   3  19
ATOM     19  C   UNL     1       4.316   7.125  17.920  0.00  0.00    +0.000 C 
BRANCH  19  20
ATOM     20  C   UNL     1       4.394   6.374  16.556  0.00  0.00    +0.000 C 
BRANCH  20  21
ATOM     21  N   UNL     1       5.733   6.328  15.915  0.00  0.00    +0.000 NA
ATOM     22  C   UNL     1       5.811   5.214  14.942  0.00  0.00    +0.000 C 
ATOM     23  C   UNL     1       6.239   4.007  15.761  0.00  0.00    +0.000 C 
ATOM     24  C   UNL     1       7.207   4.595  16.767  0.00  0.00    +0.000 C 
ATOM     25  C   UNL     1       6.849   6.075  16.844  0.00  0.00    +0.000 C 
ENDBRANCH  20  21
ENDBRANCH  19  20
ENDBRANCH   3  19
TORSDOF 4
ENDMDL
MODEL 3
REMARK VINA RESULT:      -7.3      1.299      1.649
REMARK  Name = 
REMARK  4 active torsions:
REMARK  status: ('A' for Active; 'I' for Inactive)
REMARK    1  A    between atoms: C_2  and  C_3
REMARK    2  A    between atoms: N_9  and  C_10
REMARK    3  A    between atoms: C_10  and  C_11
REMARK    4  A    between atoms: C_11  and  N_12
REMARK                            x       y       z     vdW  Elec       q    Type
REMARK                         _______ _______ _______ _____ _____    ______ ____
ROOT
ATOM      1  O   UNL     1       3.384   4.617  18.657  0.00  0.00    +0.000 OA
ATOM      2  C   UNL     1       2.726   5.537  19.161  0.00  0.00    +0.000 C 
ATOM      3  N   UNL     1       2.740   6.792  18.545  0.00  0.00    +0.000 N 
ATOM      4  C   UNL     1       1.933   7.853  18.978  0.00  0.00    +0.000 A 
ATOM      5  N   UNL     1       1.354   8.028  20.145  0.00  0.00    +0.000 NA
ATOM      6  C   UNL     1       1.020   9.373  20.300  0.00  0.00    +0.000 A 
ATOM      7  C   UNL     1       0.536   9.995  21.469  0.00  0.00    +0.000 A 
ATOM      8  C   UNL     1       0.421  11.392  21.520  0.00  0.00    +0.000 A 
ATOM      9  C   UNL     1       0.778  12.170  20.421  0.00  0.00    +0.000 A 
ATOM     10  C   UNL     1       1.180  11.576  19.225  0.00  0.00    +0.000 A 
ATOM     11  C   UNL     1       1.261  10.174  19.187  0.00  0.00    +0.000 A 
ATOM     12  S   UNL     1       1.614   9.140  17.870  0.00  0.00    +0.000 S 
ENDROOT
BRANCH   2  13
ATOM     13  C   UNL     1       1.896   5.198  20.423  0.00  0.00    +0.000 C 
ATOM     14  C   UNL     1       0.583   4.458  20.134  0.00  0.00    +0.000 C 
ATOM     15  C   UNL     1       0.798   3.016  19.666  0.00  0.00    +0.000 C 
ATOM     16  C   UNL     1       1.608   2.198  20.670  0.00  0.00    +0.000 C 
ATOM     17  C   UNL     1       2.914   2.885  21.041  0.00  0.00    +0.000 C 
ATOM     18  C   UNL     1       2.730   4.359  21.428  0.00  0.00    +0.000 C 
ENDBRANCH   2  13
BRANCH   3  19
ATOM     19  C   UNL     1       3.645   6.912  17.364  0.00  0.00    +0.000 C 
BRANCH  19  20
ATOM     20  C   UNL     1       5.174   6.977  17.660  0.00  0.00    +0.000 C 
BRANCH  20  21
ATOM     21  N   UNL     1       6.071   6.652  16.521  0.00  0.00    +0.000 NA
ATOM     22  C   UNL     1       5.454   5.635  15.640  0.00  0.00    +0.000 C 
ATOM     23  C   UNL     1       5.851   4.298  16.244  0.00  0.00    +0.000 C 
ATOM     24  C   UNL     1       7.262   4.545  16.737  0.00  0.00    +0.000 C 
ATOM     25  C   UNL     1       7.363   6.057  16.910  0.00  0.00    +0.000 C 
ENDBRANCH  20  21
ENDBRANCH  19  20
ENDBRANCH   3  19
TORSDOF 4
ENDMDL
MODEL 4
REMARK VINA RESULT:      -7.3      1.058      1.194
REMARK  Name = 
REMARK  4 active torsions:
REMARK  status: ('A' for Active; 'I' for Inactive)
REMARK    1  A    between atoms: C_2  and  C_3
REMARK    2  A    between atoms: N_9  and  C_10
REMARK    3  A    between atoms: C_10  and  C_11
REMARK    4  A    between atoms: C_11  and  N_12
REMARK                            x       y       z     vdW  Elec       q    Type
REMARK                         _______ _______ _______ _____ _____    ______ ____
ROOT
ATOM      1  O   UNL     1       3.547   4.462  18.811  0.00  0.00    +0.000 OA
ATOM      2  C   UNL     1       2.876   5.413  19.233  0.00  0.00    +0.000 C 
ATOM      3  N   UNL     1       2.913   6.627  18.538  0.00  0.00    +0.000 N 
ATOM      4  C   UNL     1       2.096   7.713  18.877  0.00  0.00    +0.000 A 
ATOM      5  N   UNL     1       1.481   7.963  20.011  0.00  0.00    +0.000 NA
ATOM      6  C   UNL     1       1.146   9.316  20.069  0.00  0.00    +0.000 A 
ATOM      7  C   UNL     1       0.627  10.012  21.180  0.00  0.00    +0.000 A 
ATOM      8  C   UNL     1       0.514  11.410  21.137  0.00  0.00    +0.000 A 
ATOM      9  C   UNL     1       0.908  12.116  20.003  0.00  0.00    +0.000 A 
ATOM     10  C   UNL     1       1.345  11.445  18.861  0.00  0.00    +0.000 A 
ATOM     11  C   UNL     1       1.424  10.044  18.915  0.00  0.00    +0.000 A 
ATOM     12  S   UNL     1       1.815   8.927  17.679  0.00  0.00    +0.000 S 
ENDROOT
BRANCH   2  13
ATOM     13  C   UNL     1       2.006   5.157  20.488  0.00  0.00    +0.000 C 
ATOM     14  C   UNL     1       0.655   4.491  20.192  0.00  0.00    +0.000 C 
ATOM     15  C   UNL     1       0.788   3.028  19.762  0.00  0.00    +0.000 C 
ATOM     16  C   UNL     1       1.529   2.187  20.799  0.00  0.00    +0.000 C 
ATOM     17  C   UNL     1       2.869   2.802  21.178  0.00  0.00    +0.000 C 
ATOM     18  C   UNL     1       2.770   4.293  21.527  0.00  0.00    +0.000 C 
ENDBRANCH   2  13
BRANCH   3  19
ATOM     19  C   UNL     1       3.854   6.669  17.381  0.00  0.00    +0.000 C 
BRANCH  19  20
ATOM     20  C   UNL     1       5.140   7.534  17.559  0.00  0.00    +0.000 C 
BRANCH  20  21
ATOM     21  N   UNL     1       6.397   6.946  17.030  0.00  0.00    +0.000 NA
ATOM     22  C   UNL     1       6.469   5.499  17.333  0.00  0.00    +0.000 C 
ATOM     23  C   UNL     1       7.096   5.419  18.716  0.00  0.00    +0.000 C 
ATOM     24  C   UNL     1       8.112   6.543  18.703  0.00  0.00    +0.000 C 
ATOM     25  C   UNL     1       7.629   7.502  17.620  0.00  0.00    +0.000 C 
ENDBRANCH  20  21
ENDBRANCH  19  20
ENDBRANCH   3  19
TORSDOF 4
ENDMDL
MODEL 5
REMARK VINA RESULT:      -7.2      1.727      2.185
REMARK  Name = 
REMARK  4 active torsions:
REMARK  status: ('A' for Active; 'I' for Inactive)
REMARK    1  A    between atoms: C_2  and  C_3
REMARK    2  A    between atoms: N_9  and  C_10
REMARK    3  A    between atoms: C_10  and  C_11
REMARK    4  A    between atoms: C_11  and  N_12
REMARK                            x       y       z     vdW  Elec       q    Type
REMARK                         _______ _______ _______ _____ _____    ______ ____
ROOT
ATOM      1  O   UNL     1       4.002   4.389  19.554  0.00  0.00    +0.000 OA
ATOM      2  C   UNL     1       3.192   5.309  19.733  0.00  0.00    +0.000 C 
ATOM      3  N   UNL     1       3.342   6.491  19.000  0.00  0.00    +0.000 N 
ATOM      4  C   UNL     1       2.406   7.532  19.052  0.00  0.00    +0.000 A 
ATOM      5  N   UNL     1       1.504   7.788  19.973  0.00  0.00    +0.000 NA
ATOM      6  C   UNL     1       1.091   9.115  19.863  0.00  0.00    +0.000 A 
ATOM      7  C   UNL     1       0.264   9.822  20.760  0.00  0.00    +0.000 A 
ATOM      8  C   UNL     1       0.090  11.205  20.606  0.00  0.00    +0.000 A 
ATOM      9  C   UNL     1       0.725  11.887  19.572  0.00  0.00    +0.000 A 
ATOM     10  C   UNL     1       1.480  11.199  18.622  0.00  0.00    +0.000 A 
ATOM     11  C   UNL     1       1.619   9.811  18.777  0.00  0.00    +0.000 A 
ATOM     12  S   UNL     1       2.380   8.671  17.752  0.00  0.00    +0.000 S 
ENDROOT
BRANCH   2  13
ATOM     13  C   UNL     1       2.042   5.048  20.734  0.00  0.00    +0.000 C 
ATOM     14  C   UNL     1       0.770   4.471  20.097  0.00  0.00    +0.000 C 
ATOM     15  C   UNL     1       0.936   3.023  19.630  0.00  0.00    +0.000 C 
ATOM     16  C   UNL     1       1.375   2.098  20.763  0.00  0.00    +0.000 C 
ATOM     17  C   UNL     1       2.614   2.621  21.477  0.00  0.00    +0.000 C 
ATOM     18  C   UNL     1       2.501   4.099  21.874  0.00  0.00    +0.000 C 
ENDBRANCH   2  13
BRANCH   3  19
ATOM     19  C   UNL     1       4.548   6.548  18.123  0.00  0.00    +0.000 C 
BRANCH  19  20
ATOM     20  C   UNL     1       4.419   5.889  16.716  0.00  0.00    +0.000 C 
BRANCH  20  21
ATOM     21  N   UNL     1       5.095   4.578  16.548  0.00  0.00    +0.000 NA
ATOM     22  C   UNL     1       6.496   4.644  17.024  0.00  0.00    +0.000 C 
ATOM     23  C   UNL     1       7.295   5.130  15.825  0.00  0.00    +0.000 C 
ATOM     24  C   UNL     1       6.613   4.454  14.654  0.00  0.00    +0.000 C 
ATOM     25  C   UNL     1       5.210   4.122  15.150  0.00  0.00    +0.000 C 
ENDBRANCH  20  21
ENDBRANCH  19  20
ENDBRANCH   3  19
TORSDOF 4
ENDMDL
MODEL 6
REMARK VINA RESULT:      -7.2      1.613      4.753
REMARK  Name = 
REMARK  4 active torsions:
REMARK  status: ('A' for Active; 'I' for Inactive)
REMARK    1  A    between atoms: C_2  and  C_3
REMARK    2  A    between atoms: N_9  and  C_10
REMARK    3  A    between atoms: C_10  and  C_11
REMARK    4  A    between atoms: C_11  and  N_12
REMARK                            x       y       z     vdW  Elec       q    Type
REMARK                         _______ _______ _______ _____ _____    ______ ____
ROOT
ATOM      1  O   UNL     1       4.014   4.294  17.199  0.00  0.00    +0.000 OA
ATOM      2  C   UNL     1       3.815   5.500  17.401  0.00  0.00    +0.000 C 
ATOM      3  N   UNL     1       2.777   5.877  18.259  0.00  0.00    +0.000 N 
ATOM      4  C   UNL     1       2.559   7.209  18.635  0.00  0.00    +0.000 A 
ATOM      5  N   UNL     1       2.959   8.312  18.043  0.00  0.00    +0.000 NA
ATOM      6  C   UNL     1       2.184   9.384  18.484  0.00  0.00    +0.000 A 
ATOM      7  C   UNL     1       2.187  10.698  17.973  0.00  0.00    +0.000 A 
ATOM      8  C   UNL     1       1.217  11.616  18.401  0.00  0.00    +0.000 A 
ATOM      9  C   UNL     1       0.251  11.240  19.332  0.00  0.00    +0.000 A 
ATOM     10  C   UNL     1       0.277   9.974  19.916  0.00  0.00    +0.000 A 
ATOM     11  C   UNL     1       1.274   9.079  19.494  0.00  0.00    +0.000 A 
ATOM     12  S   UNL     1       1.645   7.511  20.071  0.00  0.00    +0.000 S 
ENDROOT
BRANCH   2  13
ATOM     13  C   UNL     1       4.777   6.497  16.710  0.00  0.00    +0.000 C 
ATOM     14  C   UNL     1       6.112   6.693  17.441  0.00  0.00    +0.000 C 
ATOM     15  C   UNL     1       7.029   5.470  17.357  0.00  0.00    +0.000 C 
ATOM     16  C   UNL     1       7.318   5.064  15.913  0.00  0.00    +0.000 C 
ATOM     17  C   UNL     1       6.041   4.885  15.105  0.00  0.00    +0.000 C 
ATOM     18  C   UNL     1       5.069   6.064  15.248  0.00  0.00    +0.000 C 
ENDBRANCH   2  13
BRANCH   3  19
ATOM     19  C   UNL     1       1.943   4.756  18.782  0.00  0.00    +0.000 C 
BRANCH  19  20
ATOM     20  C   UNL     1       2.292   4.234  20.210  0.00  0.00    +0.000 C 
BRANCH  20  21
ATOM     21  N   UNL     1       2.251   2.761  20.392  0.00  0.00    +0.000 NA
ATOM     22  C   UNL     1       3.510   2.270  20.995  0.00  0.00    +0.000 C 
ATOM     23  C   UNL     1       4.441   2.028  19.818  0.00  0.00    +0.000 C 
ATOM     24  C   UNL     1       3.513   1.498  18.744  0.00  0.00    +0.000 C 
ATOM     25  C   UNL     1       2.126   1.992  19.140  0.00  0.00    +0.000 C 
ENDBRANCH  20  21
ENDBRANCH  19  20
ENDBRANCH   3  19
TORSDOF 4
ENDMDL
MODEL 7
REMARK VINA RESULT:      -7.0      1.739      4.747
REMARK  Name = 
REMARK  4 active torsions:
REMARK  status: ('A' for Active; 'I' for Inactive)
REMARK    1  A    between atoms: C_2  and  C_3
REMARK    2  A    between atoms: N_9  and  C_10
REMARK    3  A    between atoms: C_10  and  C_11
REMARK    4  A    between atoms: C_11  and  N_12
REMARK                            x       y       z     vdW  Elec       q    Type
REMARK                         _______ _______ _______ _____ _____    ______ ____
ROOT
ATOM      1  O   UNL     1       5.014   4.124  19.174  0.00  0.00    +0.000 OA
ATOM      2  C   UNL     1       4.486   5.225  18.962  0.00  0.00    +0.000 C 
ATOM      3  N   UNL     1       3.393   5.609  19.746  0.00  0.00    +0.000 N 
ATOM      4  C   UNL     1       2.813   6.881  19.655  0.00  0.00    +0.000 A 
ATOM      5  N   UNL     1       2.880   7.753  18.674  0.00  0.00    +0.000 NA
ATOM      6  C   UNL     1       1.840   8.673  18.797  0.00  0.00    +0.000 A 
ATOM      7  C   UNL     1       1.467   9.660  17.862  0.00  0.00    +0.000 A 
ATOM      8  C   UNL     1       0.283  10.388  18.049  0.00  0.00    +0.000 A 
ATOM      9  C   UNL     1      -0.528  10.145  19.155  0.00  0.00    +0.000 A 
ATOM     10  C   UNL     1      -0.141   9.234  20.138  0.00  0.00    +0.000 A 
ATOM     11  C   UNL     1       1.063   8.536  19.945  0.00  0.00    +0.000 A 
ATOM     12  S   UNL     1       1.866   7.443  20.988  0.00  0.00    +0.000 S 
ENDROOT
BRANCH   2  13
ATOM     13  C   UNL     1       5.121   6.110  17.863  0.00  0.00    +0.000 C 
ATOM     14  C   UNL     1       6.643   6.264  17.979  0.00  0.00    +0.000 C 
ATOM     15  C   UNL     1       7.405   4.981  17.640  0.00  0.00    +0.000 C 
ATOM     16  C   UNL     1       7.073   4.465  16.242  0.00  0.00    +0.000 C 
ATOM     17  C   UNL     1       5.573   4.320  16.030  0.00  0.00    +0.000 C 
ATOM     18  C   UNL     1       4.783   5.567  16.448  0.00  0.00    +0.000 C 
ENDBRANCH   2  13
BRANCH   3  19
ATOM     19  C   UNL     1       2.914   4.584  20.719  0.00  0.00    +0.000 C 
BRANCH  19  20
ATOM     20  C   UNL     1       3.071   3.092  20.294  0.00  0.00    +0.000 C 
BRANCH  20  21
ATOM     21  N   UNL     1       1.930   2.505  19.548  0.00  0.00    +0.000 NA
ATOM     22  C   UNL     1       2.389   1.893  18.280  0.00  0.00    +0.000 C 
ATOM     23  C   UNL     1       2.375   3.028  17.269  0.00  0.00    +0.000 C 
ATOM     24  C   UNL     1       1.156   3.834  17.666  0.00  0.00    +0.000 C 
ATOM     25  C   UNL     1       0.906   3.479  19.128  0.00  0.00    +0.000 C 
ENDBRANCH  20  21
ENDBRANCH  19  20
ENDBRANCH   3  19
TORSDOF 4
ENDMDL
MODEL 8
REMARK VINA RESULT:      -6.9      1.611      4.951
REMARK  Name = 
REMARK  4 active torsions:
REMARK  status: ('A' for Active; 'I' for Inactive)
REMARK    1  A    between atoms: C_2  and  C_3
REMARK    2  A    between atoms: N_9  and  C_10
REMARK    3  A    between atoms: C_10  and  C_11
REMARK    4  A    between atoms: C_11  and  N_12
REMARK                            x       y       z     vdW  Elec       q    Type
REMARK                         _______ _______ _______ _____ _____    ______ ____
ROOT
ATOM      1  O   UNL     1       4.595   4.501  18.610  0.00  0.00    +0.000 OA
ATOM      2  C   UNL     1       4.068   5.618  18.517  0.00  0.00    +0.000 C 
ATOM      3  N   UNL     1       3.080   5.976  19.440  0.00  0.00    +0.000 N 
ATOM      4  C   UNL     1       2.518   7.259  19.481  0.00  0.00    +0.000 A 
ATOM      5  N   UNL     1       2.491   8.180  18.544  0.00  0.00    +0.000 NA
ATOM      6  C   UNL     1       1.489   9.107  18.833  0.00  0.00    +0.000 A 
ATOM      7  C   UNL     1       1.032  10.147  17.998  0.00  0.00    +0.000 A 
ATOM      8  C   UNL     1      -0.109  10.880  18.358  0.00  0.00    +0.000 A 
ATOM      9  C   UNL     1      -0.792  10.591  19.536  0.00  0.00    +0.000 A 
ATOM     10  C   UNL     1      -0.313   9.624  20.420  0.00  0.00    +0.000 A 
ATOM     11  C   UNL     1       0.846   8.921  20.055  0.00  0.00    +0.000 A 
ATOM     12  S   UNL     1       1.742   7.763  20.941  0.00  0.00    +0.000 S 
ENDROOT
BRANCH   2  13
ATOM     13  C   UNL     1       4.590   6.551  17.398  0.00  0.00    +0.000 C 
ATOM     14  C   UNL     1       5.944   7.205  17.704  0.00  0.00    +0.000 C 
ATOM     15  C   UNL     1       7.111   6.215  17.673  0.00  0.00    +0.000 C 
ATOM     16  C   UNL     1       7.213   5.486  16.335  0.00  0.00    +0.000 C 
ATOM     17  C   UNL     1       5.894   4.838  15.937  0.00  0.00    +0.000 C 
ATOM     18  C   UNL     1       4.698   5.793  16.048  0.00  0.00    +0.000 C 
ENDBRANCH   2  13
BRANCH   3  19
ATOM     19  C   UNL     1       2.695   4.908  20.408  0.00  0.00    +0.000 C 
BRANCH  19  20
ATOM     20  C   UNL     1       1.198   4.473  20.408  0.00  0.00    +0.000 C 
BRANCH  20  21
ATOM     21  N   UNL     1       0.943   3.018  20.253  0.00  0.00    +0.000 NA
ATOM     22  C   UNL     1       2.125   2.230  20.671  0.00  0.00    +0.000 C 
ATOM     23  C   UNL     1       2.996   2.139  19.428  0.00  0.00    +0.000 C 
ATOM     24  C   UNL     1       1.988   2.007  18.306  0.00  0.00    +0.000 C 
ATOM     25  C   UNL     1       0.692   2.584  18.866  0.00  0.00    +0.000 C 
ENDBRANCH  20  21
ENDBRANCH  19  20
ENDBRANCH   3  19
TORSDOF 4
ENDMDL
MODEL 9
REMARK VINA RESULT:      -6.7      2.148      5.360
REMARK  Name = 
REMARK  4 active torsions:
REMARK  status: ('A' for Active; 'I' for Inactive)
REMARK    1  A    between atoms: C_2  and  C_3
REMARK    2  A    between atoms: N_9  and  C_10
REMARK    3  A    between atoms: C_10  and  C_11
REMARK    4  A    between atoms: C_11  and  N_12
REMARK                            x       y       z     vdW  Elec       q    Type
REMARK                         _______ _______ _______ _____ _____    ______ ____
ROOT
ATOM      1  O   UNL     1       5.179   3.118  16.530  0.00  0.00    +0.000 OA
ATOM      2  C   UNL     1       4.750   4.258  16.753  0.00  0.00    +0.000 C 
ATOM      3  N   UNL     1       4.085   4.505  17.958  0.00  0.00    +0.000 N 
ATOM      4  C   UNL     1       3.675   5.790  18.341  0.00  0.00    +0.000 A 
ATOM      5  N   UNL     1       3.480   6.853  17.594  0.00  0.00    +0.000 NA
ATOM      6  C   UNL     1       2.683   7.765  18.284  0.00  0.00    +0.000 A 
ATOM      7  C   UNL     1       2.114   8.950  17.772  0.00  0.00    +0.000 A 
ATOM      8  C   UNL     1       1.185   9.667  18.540  0.00  0.00    +0.000 A 
ATOM      9  C   UNL     1       0.821   9.219  19.807  0.00  0.00    +0.000 A 
ATOM     10  C   UNL     1       1.430   8.098  20.371  0.00  0.00    +0.000 A 
ATOM     11  C   UNL     1       2.379   7.411  19.597  0.00  0.00    +0.000 A 
ATOM     12  S   UNL     1       3.370   6.081  20.017  0.00  0.00    +0.000 S 
ENDROOT
BRANCH   2  13
ATOM     13  C   UNL     1       5.034   5.337  15.680  0.00  0.00    +0.000 C 
ATOM     14  C   UNL     1       6.382   6.054  15.848  0.00  0.00    +0.000 C 
ATOM     15  C   UNL     1       7.582   5.159  15.528  0.00  0.00    +0.000 C 
ATOM     16  C   UNL     1       7.510   4.582  14.116  0.00  0.00    +0.000 C 
ATOM     17  C   UNL     1       6.183   3.884  13.853  0.00  0.00    +0.000 C 
ATOM     18  C   UNL     1       4.968   4.732  14.252  0.00  0.00    +0.000 C 
ENDBRANCH   2  13
BRANCH   3  19
ATOM     19  C   UNL     1       3.880   3.311  18.829  0.00  0.00    +0.000 C 
BRANCH  19  20
ATOM     20  C   UNL     1       2.723   2.346  18.428  0.00  0.00    +0.000 C 
BRANCH  20  21
ATOM     21  N   UNL     1       1.837   1.898  19.532  0.00  0.00    +0.000 NA
ATOM     22  C   UNL     1       0.517   2.562  19.450  0.00  0.00    +0.000 C 
ATOM     23  C   UNL     1       0.687   3.868  20.209  0.00  0.00    +0.000 C 
ATOM     24  C   UNL     1       1.603   3.489  21.354  0.00  0.00    +0.000 C 
ATOM     25  C   UNL     1       2.326   2.231  20.883  0.00  0.00    +0.000 C 
ENDBRANCH  20  21
ENDBRANCH  19  20
ENDBRANCH   3  19
TORSDOF 4
ENDMDL
