MODEL 1
REMARK VINA RESULT:      -7.1      0.000      0.000
REMARK  Name = 
REMARK  10 active torsions:
REMARK  status: ('A' for Active; 'I' for Inactive)
REMARK    1  A    between atoms: C_1  and  C_2
REMARK    2  A    between atoms: N_4  and  C_5
REMARK    3  A    between atoms: C_5  and  C_6
REMARK    4  A    between atoms: C_6  and  C_7
REMARK    5  A    between atoms: C_9  and  O_10
REMARK    6  A    between atoms: C_11  and  C_12
REMARK    7  A    between atoms: C_12  and  O_13
REMARK    8  A    between atoms: O_13  and  P_14
REMARK    9  A    between atoms: P_14  and  O_16
REMARK   10  A    between atoms: P_14  and  O_17
REMARK                            x       y       z     vdW  Elec       q    Type
REMARK                         _______ _______ _______ _____ _____    ______ ____
ROOT
ATOM      1  C   UNL     1       3.651   6.596  18.519  0.00  0.00    +0.000 C 
ATOM      2  C   UNL     1       2.170   6.933  18.641  0.00  0.00    +0.000 C 
ATOM      3  C   UNL     1       1.862   6.572  20.076  0.00  0.00    +0.000 C 
ATOM      4  C   UNL     1       2.757   5.361  20.319  0.00  0.00    +0.000 C 
ATOM      5  O   UNL     1       3.934   5.582  19.503  0.00  0.00    +0.000 OA
ENDROOT
BRANCH   3   6
ATOM      6  O   UNL     1       2.232   7.667  20.916  0.00  0.00    +0.000 OA
ATOM      7  H   UNL     1       2.784   8.278  20.394  0.00  0.00    +0.000 HD
ENDBRANCH   3   6
BRANCH   1   8
ATOM      8  C   UNL     1       4.066   6.090  17.135  0.00  0.00    +0.000 C 
BRANCH   8   9
ATOM      9  C   UNL     1       5.165   5.028  17.220  0.00  0.00    +0.000 C 
BRANCH   9  13
ATOM     10  C   UNL     1       5.533   3.318  12.571  0.00  0.00    +0.000 C 
ATOM     11  C   UNL     1       6.054   4.071  13.750  0.00  0.00    +0.000 A 
ATOM     12  C   UNL     1       5.460   4.122  14.949  0.00  0.00    +0.000 A 
ATOM     13  N   UNL     1       5.951   4.888  15.990  0.00  0.00    +0.000 N 
ATOM     14  C   UNL     1       7.106   5.648  15.849  0.00  0.00    +0.000 A 
ATOM     15  O   UNL     1       7.530   6.426  16.700  0.00  0.00    +0.000 OA
ATOM     16  N   UNL     1       7.768   5.507  14.659  0.00  0.00    +0.000 N 
ATOM     17  C   UNL     1       7.304   4.847  13.560  0.00  0.00    +0.000 A 
ATOM     18  O   UNL     1       7.874   4.904  12.475  0.00  0.00    +0.000 OA
ATOM     19  H   UNL     1       8.593   6.073  14.536  0.00  0.00    +0.000 HD
ENDBRANCH   9  13
ENDBRANCH   8   9
ENDBRANCH   1   8
BRANCH   4  20
ATOM     20  C   UNL     1       2.095   4.053  19.881  0.00  0.00    +0.000 C 
BRANCH  20  21
ATOM     21  O   UNL     1       3.080   3.173  19.356  0.00  0.00    +0.000 OA
BRANCH  21  22
ATOM     22  P   UNL     1       2.635   2.269  18.116  0.00  0.00    +0.000 P 
ATOM     23  O   UNL     1       2.401   2.952  16.819  0.00  0.00    +0.000 OA
BRANCH  22  24
ATOM     24  O   UNL     1       3.766   1.144  18.092  0.00  0.00    +0.000 OA
ATOM     25  H   UNL     1       3.374   0.253  18.100  0.00  0.00    +0.000 HD
ENDBRANCH  22  24
BRANCH  22  26
ATOM     26  O   UNL     1       1.384   1.454  18.684  0.00  0.00    +0.000 OA
ATOM     27  H   UNL     1       0.641   1.484  18.060  0.00  0.00    +0.000 HD
ENDBRANCH  22  26
ENDBRANCH  21  22
ENDBRANCH  20  21
ENDBRANCH   4  20
TORSDOF 9
ENDMDL
MODEL 2
REMARK VINA RESULT:      -7.1      3.252      6.988
REMARK  Name = 
REMARK  10 active torsions:
REMARK  status: ('A' for Active; 'I' for Inactive)
REMARK    1  A    between atoms: C_1  and  C_2
REMARK    2  A    between atoms: N_4  and  C_5
REMARK    3  A    between atoms: C_5  and  C_6
REMARK    4  A    between atoms: C_6  and  C_7
REMARK    5  A    between atoms: C_9  and  O_10
REMARK    6  A    between atoms: C_11  and  C_12
REMARK    7  A    between atoms: C_12  and  O_13
REMARK    8  A    between atoms: O_13  and  P_14
REMARK    9  A    between atoms: P_14  and  O_16
REMARK   10  A    between atoms: P_14  and  O_17
REMARK                            x       y       z     vdW  Elec       q    Type
REMARK                         _______ _______ _______ _____ _____    ______ ____
ROOT
ATOM      1  C   UNL     1       2.800   4.331  19.374  0.00  0.00    +0.000 C 
ATOM      2  C   UNL     1       1.921   4.188  18.138  0.00  0.00    +0.000 C 
ATOM      3  C   UNL     1       2.569   3.041  17.397  0.00  0.00    +0.000 C 
ATOM      4  C   UNL     1       4.052   3.240  17.698  0.00  0.00    +0.000 C 
ATOM      5  O   UNL     1       4.100   3.815  19.027  0.00  0.00    +0.000 OA
ENDROOT
BRANCH   3   6
ATOM      6  O   UNL     1       2.090   1.810  17.943  0.00  0.00    +0.000 OA
ATOM      7  H   UNL     1       1.535   2.016  18.718  0.00  0.00    +0.000 HD
ENDBRANCH   3   6
BRANCH   1   8
ATOM      8  C   UNL     1       2.942   5.769  19.878  0.00  0.00    +0.000 C 
BRANCH   8   9
ATOM      9  C   UNL     1       2.597   6.792  18.792  0.00  0.00    +0.000 C 
BRANCH   9  13
ATOM     10  C   UNL     1       0.611   9.267  22.614  0.00  0.00    +0.000 C 
ATOM     11  C   UNL     1       0.978   9.127  21.173  0.00  0.00    +0.000 A 
ATOM     12  C   UNL     1       1.500   8.026  20.619  0.00  0.00    +0.000 A 
ATOM     13  N   UNL     1       1.883   7.971  19.292  0.00  0.00    +0.000 N 
ATOM     14  C   UNL     1       1.736   9.066  18.450  0.00  0.00    +0.000 A 
ATOM     15  O   UNL     1       2.153   9.111  17.294  0.00  0.00    +0.000 OA
ATOM     16  N   UNL     1       1.103  10.152  18.992  0.00  0.00    +0.000 N 
ATOM     17  C   UNL     1       0.780  10.314  20.306  0.00  0.00    +0.000 A 
ATOM     18  O   UNL     1       0.367  11.381  20.750  0.00  0.00    +0.000 OA
ATOM     19  H   UNL     1       1.014  10.961  18.397  0.00  0.00    +0.000 HD
ENDBRANCH   9  13
ENDBRANCH   8   9
ENDBRANCH   1   8
BRANCH   4  20
ATOM     20  C   UNL     1       4.718   4.208  16.719  0.00  0.00    +0.000 C 
BRANCH  20  21
ATOM     21  O   UNL     1       5.614   5.057  17.423  0.00  0.00    +0.000 OA
BRANCH  21  22
ATOM     22  P   UNL     1       6.821   5.672  16.577  0.00  0.00    +0.000 P 
ATOM     23  O   UNL     1       7.376   6.975  17.023  0.00  0.00    +0.000 OA
BRANCH  22  24
ATOM     24  O   UNL     1       7.866   4.467  16.550  0.00  0.00    +0.000 OA
ATOM     25  H   UNL     1       8.689   4.727  16.101  0.00  0.00    +0.000 HD
ENDBRANCH  22  24
BRANCH  22  26
ATOM     26  O   UNL     1       6.270   5.652  15.078  0.00  0.00    +0.000 OA
ATOM     27  H   UNL     1       5.690   6.414  14.914  0.00  0.00    +0.000 HD
ENDBRANCH  22  26
ENDBRANCH  21  22
ENDBRANCH  20  21
ENDBRANCH   4  20
TORSDOF 9
ENDMDL
MODEL 3
REMARK VINA RESULT:      -7.0      3.287      7.076
REMARK  Name = 
REMARK  10 active torsions:
REMARK  status: ('A' for Active; 'I' for Inactive)
REMARK    1  A    between atoms: C_1  and  C_2
REMARK    2  A    between atoms: N_4  and  C_5
REMARK    3  A    between atoms: C_5  and  C_6
REMARK    4  A    between atoms: C_6  and  C_7
REMARK    5  A    between atoms: C_9  and  O_10
REMARK    6  A    between atoms: C_11  and  C_12
REMARK    7  A    between atoms: C_12  and  O_13
REMARK    8  A    between atoms: O_13  and  P_14
REMARK    9  A    between atoms: P_14  and  O_16
REMARK   10  A    between atoms: P_14  and  O_17
REMARK                            x       y       z     vdW  Elec       q    Type
REMARK                         _______ _______ _______ _____ _____    ______ ____
ROOT
ATOM      1  C   UNL     1       2.452   4.150  19.477  0.00  0.00    +0.000 C 
ATOM      2  C   UNL     1       1.830   4.092  18.087  0.00  0.00    +0.000 C 
ATOM      3  C   UNL     1       2.772   3.180  17.337  0.00  0.00    +0.000 C 
ATOM      4  C   UNL     1       4.130   3.527  17.942  0.00  0.00    +0.000 C 
ATOM      5  O   UNL     1       3.858   3.879  19.320  0.00  0.00    +0.000 OA
ENDROOT
BRANCH   3   6
ATOM      6  O   UNL     1       2.415   1.823  17.609  0.00  0.00    +0.000 OA
ATOM      7  H   UNL     1       2.902   1.251  16.987  0.00  0.00    +0.000 HD
ENDBRANCH   3   6
BRANCH   1   8
ATOM      8  C   UNL     1       2.269   5.493  20.189  0.00  0.00    +0.000 C 
BRANCH   8   9
ATOM      9  C   UNL     1       2.573   6.675  19.265  0.00  0.00    +0.000 C 
BRANCH   9  13
ATOM     10  C   UNL     1       0.337   9.517  22.671  0.00  0.00    +0.000 C 
ATOM     11  C   UNL     1       0.794   9.230  21.279  0.00  0.00    +0.000 A 
ATOM     12  C   UNL     1       1.357   8.083  20.879  0.00  0.00    +0.000 A 
ATOM     13  N   UNL     1       1.822   7.892  19.592  0.00  0.00    +0.000 N 
ATOM     14  C   UNL     1       1.720   8.888  18.629  0.00  0.00    +0.000 A 
ATOM     15  O   UNL     1       2.207   8.816  17.503  0.00  0.00    +0.000 OA
ATOM     16  N   UNL     1       1.047  10.018  19.012  0.00  0.00    +0.000 N 
ATOM     17  C   UNL     1       0.642  10.315  20.279  0.00  0.00    +0.000 A 
ATOM     18  O   UNL     1       0.196  11.418  20.580  0.00  0.00    +0.000 OA
ATOM     19  H   UNL     1       0.990  10.758  18.330  0.00  0.00    +0.000 HD
ENDBRANCH   9  13
ENDBRANCH   8   9
ENDBRANCH   1   8
BRANCH   4  20
ATOM     20  C   UNL     1       4.785   4.723  17.248  0.00  0.00    +0.000 C 
BRANCH  20  21
ATOM     21  O   UNL     1       5.448   4.286  16.070  0.00  0.00    +0.000 OA
BRANCH  21  22
ATOM     22  P   UNL     1       6.793   5.057  15.684  0.00  0.00    +0.000 P 
ATOM     23  O   UNL     1       7.163   5.114  14.247  0.00  0.00    +0.000 OA
BRANCH  22  24
ATOM     24  O   UNL     1       6.585   6.475  16.385  0.00  0.00    +0.000 OA
ATOM     25  H   UNL     1       6.880   6.455  17.312  0.00  0.00    +0.000 HD
ENDBRANCH  22  24
BRANCH  22  26
ATOM     26  O   UNL     1       7.887   4.387  16.636  0.00  0.00    +0.000 OA
ATOM     27  H   UNL     1       7.466   3.966  17.403  0.00  0.00    +0.000 HD
ENDBRANCH  22  26
ENDBRANCH  21  22
ENDBRANCH  20  21
ENDBRANCH   4  20
TORSDOF 9
ENDMDL
MODEL 4
REMARK VINA RESULT:      -7.0      0.837      1.145
REMARK  Name = 
REMARK  10 active torsions:
REMARK  status: ('A' for Active; 'I' for Inactive)
REMARK    1  A    between atoms: C_1  and  C_2
REMARK    2  A    between atoms: N_4  and  C_5
REMARK    3  A    between atoms: C_5  and  C_6
REMARK    4  A    between atoms: C_6  and  C_7
REMARK    5  A    between atoms: C_9  and  O_10
REMARK    6  A    between atoms: C_11  and  C_12
REMARK    7  A    between atoms: C_12  and  O_13
REMARK    8  A    between atoms: O_13  and  P_14
REMARK    9  A    between atoms: P_14  and  O_16
REMARK   10  A    between atoms: P_14  and  O_17
REMARK                            x       y       z     vdW  Elec       q    Type
REMARK                         _______ _______ _______ _____ _____    ______ ____
ROOT
ATOM      1  C   UNL     1       3.278   6.376  19.026  0.00  0.00    +0.000 C 
ATOM      2  C   UNL     1       1.893   7.010  19.032  0.00  0.00    +0.000 C 
ATOM      3  C   UNL     1       1.406   6.735  20.436  0.00  0.00    +0.000 C 
ATOM      4  C   UNL     1       2.011   5.368  20.742  0.00  0.00    +0.000 C 
ATOM      5  O   UNL     1       3.269   5.336  20.023  0.00  0.00    +0.000 OA
ENDROOT
BRANCH   3   6
ATOM      6  O   UNL     1       1.925   7.739  21.310  0.00  0.00    +0.000 OA
ATOM      7  H   UNL     1       2.431   8.377  20.773  0.00  0.00    +0.000 HD
ENDBRANCH   3   6
BRANCH   1   8
ATOM      8  C   UNL     1       3.688   5.782  17.676  0.00  0.00    +0.000 C 
BRANCH   8   9
ATOM      9  C   UNL     1       4.934   4.899  17.795  0.00  0.00    +0.000 C 
BRANCH   9  13
ATOM     10  C   UNL     1       5.641   3.560  13.063  0.00  0.00    +0.000 C 
ATOM     11  C   UNL     1       6.048   4.264  14.316  0.00  0.00    +0.000 A 
ATOM     12  C   UNL     1       5.399   4.184  15.484  0.00  0.00    +0.000 A 
ATOM     13  N   UNL     1       5.782   4.907  16.599  0.00  0.00    +0.000 N 
ATOM     14  C   UNL     1       6.879   5.759  16.568  0.00  0.00    +0.000 A 
ATOM     15  O   UNL     1       7.204   6.503  17.490  0.00  0.00    +0.000 OA
ATOM     16  N   UNL     1       7.603   5.754  15.405  0.00  0.00    +0.000 N 
ATOM     17  C   UNL     1       7.241   5.142  14.242  0.00  0.00    +0.000 A 
ATOM     18  O   UNL     1       7.853   5.319  13.193  0.00  0.00    +0.000 OA
ATOM     19  H   UNL     1       8.386   6.387  15.363  0.00  0.00    +0.000 HD
ENDBRANCH   9  13
ENDBRANCH   8   9
ENDBRANCH   1   8
BRANCH   4  20
ATOM     20  C   UNL     1       1.132   4.219  20.244  0.00  0.00    +0.000 C 
BRANCH  20  21
ATOM     21  O   UNL     1       1.934   3.068  20.020  0.00  0.00    +0.000 OA
BRANCH  21  22
ATOM     22  P   UNL     1       1.876   2.436  18.555  0.00  0.00    +0.000 P 
ATOM     23  O   UNL     1       3.145   1.925  17.978  0.00  0.00    +0.000 OA
BRANCH  22  24
ATOM     24  O   UNL     1       0.715   1.351  18.698  0.00  0.00    +0.000 OA
ATOM     25  H   UNL     1       0.793   0.663  18.014  0.00  0.00    +0.000 HD
ENDBRANCH  22  24
BRANCH  22  26
ATOM     26  O   UNL     1       1.151   3.569  17.693  0.00  0.00    +0.000 OA
ATOM     27  H   UNL     1       1.538   4.441  17.876  0.00  0.00    +0.000 HD
ENDBRANCH  22  26
ENDBRANCH  21  22
ENDBRANCH  20  21
ENDBRANCH   4  20
TORSDOF 9
ENDMDL
MODEL 5
REMARK VINA RESULT:      -7.0      3.586      6.786
REMARK  Name = 
REMARK  10 active torsions:
REMARK  status: ('A' for Active; 'I' for Inactive)
REMARK    1  A    between atoms: C_1  and  C_2
REMARK    2  A    between atoms: N_4  and  C_5
REMARK    3  A    between atoms: C_5  and  C_6
REMARK    4  A    between atoms: C_6  and  C_7
REMARK    5  A    between atoms: C_9  and  O_10
REMARK    6  A    between atoms: C_11  and  C_12
REMARK    7  A    between atoms: C_12  and  O_13
REMARK    8  A    between atoms: O_13  and  P_14
REMARK    9  A    between atoms: P_14  and  O_16
REMARK   10  A    between atoms: P_14  and  O_17
REMARK                            x       y       z     vdW  Elec       q    Type
REMARK                         _______ _______ _______ _____ _____    ______ ____
ROOT
ATOM      1  C   UNL     1       3.652   5.330  17.608  0.00  0.00    +0.000 C 
ATOM      2  C   UNL     1       4.943   5.547  18.388  0.00  0.00    +0.000 C 
ATOM      3  C   UNL     1       5.603   4.189  18.325  0.00  0.00    +0.000 C 
ATOM      4  C   UNL     1       4.414   3.233  18.374  0.00  0.00    +0.000 C 
ATOM      5  O   UNL     1       3.336   3.927  17.700  0.00  0.00    +0.000 OA
ENDROOT
BRANCH   3   6
ATOM      6  O   UNL     1       6.309   4.075  17.088  0.00  0.00    +0.000 OA
ATOM      7  H   UNL     1       5.717   3.654  16.437  0.00  0.00    +0.000 HD
ENDBRANCH   3   6
BRANCH   1   8
ATOM      8  C   UNL     1       2.467   6.152  18.120  0.00  0.00    +0.000 C 
BRANCH   8   9
ATOM      9  C   UNL     1       2.923   7.367  18.934  0.00  0.00    +0.000 C 
BRANCH   9  13
ATOM     10  C   UNL     1      -0.168   9.052  22.439  0.00  0.00    +0.000 C 
ATOM     11  C   UNL     1       0.397   9.058  21.056  0.00  0.00    +0.000 A 
ATOM     12  C   UNL     1       1.290   8.176  20.591  0.00  0.00    +0.000 A 
ATOM     13  N   UNL     1       1.830   8.265  19.321  0.00  0.00    +0.000 N 
ATOM     14  C   UNL     1       1.462   9.279  18.446  0.00  0.00    +0.000 A 
ATOM     15  O   UNL     1       1.983   9.470  17.349  0.00  0.00    +0.000 OA
ATOM     16  N   UNL     1       0.469  10.113  18.887  0.00  0.00    +0.000 N 
ATOM     17  C   UNL     1      -0.045  10.145  20.149  0.00  0.00    +0.000 A 
ATOM     18  O   UNL     1      -0.812  11.028  20.519  0.00  0.00    +0.000 OA
ATOM     19  H   UNL     1       0.212  10.868  18.271  0.00  0.00    +0.000 HD
ENDBRANCH   9  13
ENDBRANCH   8   9
ENDBRANCH   1   8
BRANCH   4  20
ATOM     20  C   UNL     1       3.979   2.922  19.807  0.00  0.00    +0.000 C 
BRANCH  20  21
ATOM     21  O   UNL     1       2.582   2.662  19.835  0.00  0.00    +0.000 OA
BRANCH  21  22
ATOM     22  P   UNL     1       1.763   3.312  21.041  0.00  0.00    +0.000 P 
ATOM     23  O   UNL     1       1.552   2.480  22.253  0.00  0.00    +0.000 OA
BRANCH  22  24
ATOM     24  O   UNL     1       2.547   4.678  21.288  0.00  0.00    +0.000 OA
ATOM     25  H   UNL     1       2.107   5.218  21.968  0.00  0.00    +0.000 HD
ENDBRANCH  22  24
BRANCH  22  26
ATOM     26  O   UNL     1       0.425   3.832  20.340  0.00  0.00    +0.000 OA
ATOM     27  H   UNL     1       0.147   3.225  19.635  0.00  0.00    +0.000 HD
ENDBRANCH  22  26
ENDBRANCH  21  22
ENDBRANCH  20  21
ENDBRANCH   4  20
TORSDOF 9
ENDMDL
MODEL 6
REMARK VINA RESULT:      -7.0      3.526      7.225
REMARK  Name = 
REMARK  10 active torsions:
REMARK  status: ('A' for Active; 'I' for Inactive)
REMARK    1  A    between atoms: C_1  and  C_2
REMARK    2  A    between atoms: N_4  and  C_5
REMARK    3  A    between atoms: C_5  and  C_6
REMARK    4  A    between atoms: C_6  and  C_7
REMARK    5  A    between atoms: C_9  and  O_10
REMARK    6  A    between atoms: C_11  and  C_12
REMARK    7  A    between atoms: C_12  and  O_13
REMARK    8  A    between atoms: O_13  and  P_14
REMARK    9  A    between atoms: P_14  and  O_16
REMARK   10  A    between atoms: P_14  and  O_17
REMARK                            x       y       z     vdW  Elec       q    Type
REMARK                         _______ _______ _______ _____ _____    ______ ____
ROOT
ATOM      1  C   UNL     1       2.629   4.759  19.237  0.00  0.00    +0.000 C 
ATOM      2  C   UNL     1       2.231   4.767  17.766  0.00  0.00    +0.000 C 
ATOM      3  C   UNL     1       2.956   3.560  17.217  0.00  0.00    +0.000 C 
ATOM      4  C   UNL     1       4.249   3.545  18.026  0.00  0.00    +0.000 C 
ATOM      5  O   UNL     1       3.895   4.077  19.327  0.00  0.00    +0.000 OA
ENDROOT
BRANCH   3   6
ATOM      6  O   UNL     1       2.170   2.394  17.475  0.00  0.00    +0.000 OA
ATOM      7  H   UNL     1       2.718   1.610  17.284  0.00  0.00    +0.000 HD
ENDBRANCH   3   6
BRANCH   1   8
ATOM      8  C   UNL     1       2.756   6.152  19.859  0.00  0.00    +0.000 C 
BRANCH   8   9
ATOM      9  C   UNL     1       2.413   7.258  18.857  0.00  0.00    +0.000 C 
BRANCH   9  13
ATOM     10  C   UNL     1       0.409   9.414  22.858  0.00  0.00    +0.000 C 
ATOM     11  C   UNL     1       0.760   9.382  21.407  0.00  0.00    +0.000 A 
ATOM     12  C   UNL     1       1.306   8.335  20.776  0.00  0.00    +0.000 A 
ATOM     13  N   UNL     1       1.672   8.379  19.443  0.00  0.00    +0.000 N 
ATOM     14  C   UNL     1       1.482   9.522  18.677  0.00  0.00    +0.000 A 
ATOM     15  O   UNL     1       1.881   9.656  17.522  0.00  0.00    +0.000 OA
ATOM     16  N   UNL     1       0.825  10.551  19.298  0.00  0.00    +0.000 N 
ATOM     17  C   UNL     1       0.515  10.617  20.623  0.00  0.00    +0.000 A 
ATOM     18  O   UNL     1       0.078  11.639  21.142  0.00  0.00    +0.000 OA
ATOM     19  H   UNL     1       0.704  11.395  18.759  0.00  0.00    +0.000 HD
ENDBRANCH   9  13
ENDBRANCH   8   9
ENDBRANCH   1   8
BRANCH   4  20
ATOM     20  C   UNL     1       5.329   4.436  17.409  0.00  0.00    +0.000 C 
BRANCH  20  21
ATOM     21  O   UNL     1       5.713   5.437  18.341  0.00  0.00    +0.000 OA
BRANCH  21  22
ATOM     22  P   UNL     1       7.280   5.600  18.604  0.00  0.00    +0.000 P 
ATOM     23  O   UNL     1       7.933   6.837  18.105  0.00  0.00    +0.000 OA
BRANCH  22  24
ATOM     24  O   UNL     1       7.386   5.368  20.178  0.00  0.00    +0.000 OA
ATOM     25  H   UNL     1       6.558   5.616  20.626  0.00  0.00    +0.000 HD
ENDBRANCH  22  24
BRANCH  22  26
ATOM     26  O   UNL     1       7.893   4.239  18.037  0.00  0.00    +0.000 OA
ATOM     27  H   UNL     1       8.657   4.417  17.465  0.00  0.00    +0.000 HD
ENDBRANCH  22  26
ENDBRANCH  21  22
ENDBRANCH  20  21
ENDBRANCH   4  20
TORSDOF 9
ENDMDL
MODEL 7
REMARK VINA RESULT:      -7.0      3.479      7.163
REMARK  Name = 
REMARK  10 active torsions:
REMARK  status: ('A' for Active; 'I' for Inactive)
REMARK    1  A    between atoms: C_1  and  C_2
REMARK    2  A    between atoms: N_4  and  C_5
REMARK    3  A    between atoms: C_5  and  C_6
REMARK    4  A    between atoms: C_6  and  C_7
REMARK    5  A    between atoms: C_9  and  O_10
REMARK    6  A    between atoms: C_11  and  C_12
REMARK    7  A    between atoms: C_12  and  O_13
REMARK    8  A    between atoms: O_13  and  P_14
REMARK    9  A    between atoms: P_14  and  O_16
REMARK   10  A    between atoms: P_14  and  O_17
REMARK                            x       y       z     vdW  Elec       q    Type
REMARK                         _______ _______ _______ _____ _____    ______ ____
ROOT
ATOM      1  C   UNL     1       3.284   4.712  19.872  0.00  0.00    +0.000 C 
ATOM      2  C   UNL     1       2.986   3.306  19.366  0.00  0.00    +0.000 C 
ATOM      3  C   UNL     1       4.332   2.840  18.860  0.00  0.00    +0.000 C 
ATOM      4  C   UNL     1       4.946   4.122  18.305  0.00  0.00    +0.000 C 
ATOM      5  O   UNL     1       4.430   5.188  19.141  0.00  0.00    +0.000 OA
ENDROOT
BRANCH   3   6
ATOM      6  O   UNL     1       5.090   2.337  19.962  0.00  0.00    +0.000 OA
ATOM      7  H   UNL     1       5.324   3.088  20.538  0.00  0.00    +0.000 HD
ENDBRANCH   3   6
BRANCH   1   8
ATOM      8  C   UNL     1       2.126   5.697  19.701  0.00  0.00    +0.000 C 
BRANCH   8   9
ATOM      9  C   UNL     1       2.602   7.052  19.171  0.00  0.00    +0.000 C 
BRANCH   9  13
ATOM     10  C   UNL     1       0.190   9.523  22.743  0.00  0.00    +0.000 C 
ATOM     11  C   UNL     1       0.640   9.339  21.331  0.00  0.00    +0.000 A 
ATOM     12  C   UNL     1       1.298   8.268  20.870  0.00  0.00    +0.000 A 
ATOM     13  N   UNL     1       1.748   8.177  19.566  0.00  0.00    +0.000 N 
ATOM     14  C   UNL     1       1.531   9.200  18.651  0.00  0.00    +0.000 A 
ATOM     15  O   UNL     1       1.997   9.221  17.514  0.00  0.00    +0.000 OA
ATOM     16  N   UNL     1       0.764  10.243  19.097  0.00  0.00    +0.000 N 
ATOM     17  C   UNL     1       0.363  10.446  20.383  0.00  0.00    +0.000 A 
ATOM     18  O   UNL     1      -0.178  11.488  20.741  0.00  0.00    +0.000 OA
ATOM     19  H   UNL     1       0.622  11.002  18.449  0.00  0.00    +0.000 HD
ENDBRANCH   9  13
ENDBRANCH   8   9
ENDBRANCH   1   8
BRANCH   4  20
ATOM     20  C   UNL     1       4.528   4.387  16.858  0.00  0.00    +0.000 C 
BRANCH  20  21
ATOM     21  O   UNL     1       5.437   5.299  16.258  0.00  0.00    +0.000 OA
BRANCH  21  22
ATOM     22  P   UNL     1       6.754   4.668  15.612  0.00  0.00    +0.000 P 
ATOM     23  O   UNL     1       7.938   4.502  16.493  0.00  0.00    +0.000 OA
BRANCH  22  24
ATOM     24  O   UNL     1       6.202   3.321  14.962  0.00  0.00    +0.000 OA
ATOM     25  H   UNL     1       5.404   3.489  14.431  0.00  0.00    +0.000 HD
ENDBRANCH  22  24
BRANCH  22  26
ATOM     26  O   UNL     1       6.999   5.572  14.317  0.00  0.00    +0.000 OA
ATOM     27  H   UNL     1       6.156   5.802  13.893  0.00  0.00    +0.000 HD
ENDBRANCH  22  26
ENDBRANCH  21  22
ENDBRANCH  20  21
ENDBRANCH   4  20
TORSDOF 9
ENDMDL
MODEL 8
REMARK VINA RESULT:      -7.0      3.641      6.848
REMARK  Name = 
REMARK  10 active torsions:
REMARK  status: ('A' for Active; 'I' for Inactive)
REMARK    1  A    between atoms: C_1  and  C_2
REMARK    2  A    between atoms: N_4  and  C_5
REMARK    3  A    between atoms: C_5  and  C_6
REMARK    4  A    between atoms: C_6  and  C_7
REMARK    5  A    between atoms: C_9  and  O_10
REMARK    6  A    between atoms: C_11  and  C_12
REMARK    7  A    between atoms: C_12  and  O_13
REMARK    8  A    between atoms: O_13  and  P_14
REMARK    9  A    between atoms: P_14  and  O_16
REMARK   10  A    between atoms: P_14  and  O_17
REMARK                            x       y       z     vdW  Elec       q    Type
REMARK                         _______ _______ _______ _____ _____    ______ ____
ROOT
ATOM      1  C   UNL     1       1.973   4.344  19.740  0.00  0.00    +0.000 C 
ATOM      2  C   UNL     1       1.694   4.271  18.244  0.00  0.00    +0.000 C 
ATOM      3  C   UNL     1       2.547   3.106  17.800  0.00  0.00    +0.000 C 
ATOM      4  C   UNL     1       3.771   3.220  18.705  0.00  0.00    +0.000 C 
ATOM      5  O   UNL     1       3.276   3.766  19.953  0.00  0.00    +0.000 OA
ENDROOT
BRANCH   3   6
ATOM      6  O   UNL     1       1.834   1.892  18.043  0.00  0.00    +0.000 OA
ATOM      7  H   UNL     1       1.036   1.891  17.482  0.00  0.00    +0.000 HD
ENDBRANCH   3   6
BRANCH   1   8
ATOM      8  C   UNL     1       1.946   5.762  20.314  0.00  0.00    +0.000 C 
BRANCH   8   9
ATOM      9  C   UNL     1       2.552   6.782  19.346  0.00  0.00    +0.000 C 
BRANCH   9  13
ATOM     10  C   UNL     1       0.124  10.350  21.807  0.00  0.00    +0.000 C 
ATOM     11  C   UNL     1       0.723   9.766  20.570  0.00  0.00    +0.000 A 
ATOM     12  C   UNL     1       1.250   8.539  20.480  0.00  0.00    +0.000 A 
ATOM     13  N   UNL     1       1.851   8.070  19.327  0.00  0.00    +0.000 N 
ATOM     14  C   UNL     1       1.933   8.853  18.182  0.00  0.00    +0.000 A 
ATOM     15  O   UNL     1       2.545   8.533  17.166  0.00  0.00    +0.000 OA
ATOM     16  N   UNL     1       1.297  10.065  18.245  0.00  0.00    +0.000 N 
ATOM     17  C   UNL     1       0.765  10.631  19.365  0.00  0.00    +0.000 A 
ATOM     18  O   UNL     1       0.362  11.789  19.383  0.00  0.00    +0.000 OA
ATOM     19  H   UNL     1       1.372  10.652  17.430  0.00  0.00    +0.000 HD
ENDBRANCH   9  13
ENDBRANCH   8   9
ENDBRANCH   1   8
BRANCH   4  20
ATOM     20  C   UNL     1       4.826   4.171  18.137  0.00  0.00    +0.000 C 
BRANCH  20  21
ATOM     21  O   UNL     1       5.419   4.912  19.194  0.00  0.00    +0.000 OA
BRANCH  21  22
ATOM     22  P   UNL     1       6.955   5.308  19.010  0.00  0.00    +0.000 P 
ATOM     23  O   UNL     1       7.771   5.479  20.239  0.00  0.00    +0.000 OA
BRANCH  22  24
ATOM     24  O   UNL     1       7.477   4.187  18.003  0.00  0.00    +0.000 OA
ATOM     25  H   UNL     1       7.197   4.377  17.091  0.00  0.00    +0.000 HD
ENDBRANCH  22  24
BRANCH  22  26
ATOM     26  O   UNL     1       6.894   6.590  18.059  0.00  0.00    +0.000 OA
ATOM     27  H   UNL     1       7.297   6.399  17.197  0.00  0.00    +0.000 HD
ENDBRANCH  22  26
ENDBRANCH  21  22
ENDBRANCH  20  21
ENDBRANCH   4  20
TORSDOF 9
ENDMDL
MODEL 9
REMARK VINA RESULT:      -6.9      3.408      7.064
REMARK  Name = 
REMARK  10 active torsions:
REMARK  status: ('A' for Active; 'I' for Inactive)
REMARK    1  A    between atoms: C_1  and  C_2
REMARK    2  A    between atoms: N_4  and  C_5
REMARK    3  A    between atoms: C_5  and  C_6
REMARK    4  A    between atoms: C_6  and  C_7
REMARK    5  A    between atoms: C_9  and  O_10
REMARK    6  A    between atoms: C_11  and  C_12
REMARK    7  A    between atoms: C_12  and  O_13
REMARK    8  A    between atoms: O_13  and  P_14
REMARK    9  A    between atoms: P_14  and  O_16
REMARK   10  A    between atoms: P_14  and  O_17
REMARK                            x       y       z     vdW  Elec       q    Type
REMARK                         _______ _______ _______ _____ _____    ______ ____
ROOT
ATOM      1  C   UNL     1       2.329   4.312  18.556  0.00  0.00    +0.000 C 
ATOM      2  C   UNL     1       2.355   3.337  17.386  0.00  0.00    +0.000 C 
ATOM      3  C   UNL     1       3.485   2.404  17.754  0.00  0.00    +0.000 C 
ATOM      4  C   UNL     1       4.471   3.329  18.460  0.00  0.00    +0.000 C 
ATOM      5  O   UNL     1       3.654   4.328  19.120  0.00  0.00    +0.000 OA
ENDROOT
BRANCH   3   6
ATOM      6  O   UNL     1       2.986   1.402  18.642  0.00  0.00    +0.000 OA
ATOM      7  H   UNL     1       3.656   1.247  19.333  0.00  0.00    +0.000 HD
ENDBRANCH   3   6
BRANCH   1   8
ATOM      8  C   UNL     1       1.921   5.737  18.174  0.00  0.00    +0.000 C 
BRANCH   8   9
ATOM      9  C   UNL     1       2.737   6.787  18.932  0.00  0.00    +0.000 C 
BRANCH   9  13
ATOM     10  C   UNL     1       0.522   9.281  22.614  0.00  0.00    +0.000 C 
ATOM     11  C   UNL     1       0.937   9.114  21.189  0.00  0.00    +0.000 A 
ATOM     12  C   UNL     1       1.529   8.023  20.687  0.00  0.00    +0.000 A 
ATOM     13  N   UNL     1       1.951   7.944  19.373  0.00  0.00    +0.000 N 
ATOM     14  C   UNL     1       1.773   9.002  18.490  0.00  0.00    +0.000 A 
ATOM     15  O   UNL     1       2.220   9.030  17.345  0.00  0.00    +0.000 OA
ATOM     16  N   UNL     1       1.071  10.071  18.978  0.00  0.00    +0.000 N 
ATOM     17  C   UNL     1       0.703  10.260  20.277  0.00  0.00    +0.000 A 
ATOM     18  O   UNL     1       0.225  11.318  20.673  0.00  0.00    +0.000 OA
ATOM     19  H   UNL     1       0.959  10.855  18.354  0.00  0.00    +0.000 HD
ENDBRANCH   9  13
ENDBRANCH   8   9
ENDBRANCH   1   8
BRANCH   4  20
ATOM     20  C   UNL     1       5.411   4.032  17.480  0.00  0.00    +0.000 C 
BRANCH  20  21
ATOM     21  O   UNL     1       5.862   5.256  18.045  0.00  0.00    +0.000 OA
BRANCH  21  22
ATOM     22  P   UNL     1       7.415   5.586  17.878  0.00  0.00    +0.000 P 
ATOM     23  O   UNL     1       8.069   6.371  18.956  0.00  0.00    +0.000 OA
BRANCH  22  24
ATOM     24  O   UNL     1       8.044   4.143  17.617  0.00  0.00    +0.000 OA
ATOM     25  H   UNL     1       7.539   3.659  16.940  0.00  0.00    +0.000 HD
ENDBRANCH  22  24
BRANCH  22  26
ATOM     26  O   UNL     1       7.499   6.240  16.423  0.00  0.00    +0.000 OA
ATOM     27  H   UNL     1       7.444   7.208  16.477  0.00  0.00    +0.000 HD
ENDBRANCH  22  26
ENDBRANCH  21  22
ENDBRANCH  20  21
ENDBRANCH   4  20
TORSDOF 9
ENDMDL
