MODEL 1
REMARK VINA RESULT:      -8.6      0.000      0.000
REMARK  Name = 
REMARK  7 active torsions:
REMARK  status: ('A' for Active; 'I' for Inactive)
REMARK    1  A    between atoms: C_1  and  C_2
REMARK    2  A    between atoms: C_2  and  O_3
REMARK    3  A    between atoms: O_3  and  C_4
REMARK    4  A    between atoms: C_4  and  C_6
REMARK    5  A    between atoms: C_9  and  N_10
REMARK    6  A    between atoms: C_11  and  C_13
REMARK    7  A    between atoms: C_27  and  N_28
REMARK                            x       y       z     vdW  Elec       q    Type
REMARK                         _______ _______ _______ _____ _____    ______ ____
ROOT
ATOM      1  C   UNL     1       0.221  10.404  18.990  0.00  0.00    +0.000 A 
ATOM      2  S   UNL     1      -1.182  10.600  18.044  0.00  0.00    +0.000 S 
ATOM      3  C   UNL     1      -1.967  11.494  19.273  0.00  0.00    +0.000 A 
ATOM      4  N   UNL     1      -3.222  11.936  19.083  0.00  0.00    +0.000 NA
ATOM      5  C   UNL     1      -3.776  12.655  20.078  0.00  0.00    +0.000 A 
ATOM      6  N   UNL     1      -5.077  13.057  19.866  0.00  0.00    +0.000 N 
ATOM      7  C   UNL     1      -5.668  14.352  20.209  0.00  0.00    +0.000 C 
ATOM      8  C   UNL     1      -6.983  14.077  20.956  0.00  0.00    +0.000 C 
ATOM      9  O   UNL     1      -7.892  13.333  20.121  0.00  0.00    +0.000 OA
ATOM     10  C   UNL     1      -7.297  12.084  19.703  0.00  0.00    +0.000 C 
ATOM     11  C   UNL     1      -5.955  12.288  18.971  0.00  0.00    +0.000 C 
ATOM     12  C   UNL     1      -3.076  12.913  21.283  0.00  0.00    +0.000 A 
ATOM     13  C   UNL     1      -1.737  12.459  21.444  0.00  0.00    +0.000 A 
ATOM     14  C   UNL     1      -1.176  11.686  20.394  0.00  0.00    +0.000 A 
ATOM     15  C   UNL     1       0.086  11.015  20.226  0.00  0.00    +0.000 A 
ATOM     16  C   UNL     1      -0.962  12.741  22.713  0.00  0.00    +0.000 C 
ATOM     17  C   UNL     1      -1.556  13.824  23.596  0.00  0.00    +0.000 C 
ATOM     18  C   UNL     1      -3.031  13.544  23.785  0.00  0.00    +0.000 C 
ATOM     19  C   UNL     1      -3.725  13.658  22.434  0.00  0.00    +0.000 C 
ENDROOT
BRANCH   1  21
ATOM     20  N   UNL     1       1.533   8.377  19.130  0.00  0.00    +0.000 N 
ATOM     21  C   UNL     1       1.378   9.634  18.555  0.00  0.00    +0.000 C 
ATOM     22  O   UNL     1       2.110  10.069  17.665  0.00  0.00    +0.000 OA
ATOM     23  H   UNL     1       0.781   8.061  19.728  0.00  0.00    +0.000 HD
BRANCH  20  27
ATOM     24  C   UNL     1       4.353   5.442  18.007  0.00  0.00    +0.000 A 
ATOM     25  C   UNL     1       4.217   6.604  17.244  0.00  0.00    +0.000 A 
ATOM     26  C   UNL     1       3.315   7.589  17.626  0.00  0.00    +0.000 A 
ATOM     27  C   UNL     1       2.519   7.436  18.762  0.00  0.00    +0.000 A 
ATOM     28  C   UNL     1       2.698   6.295  19.559  0.00  0.00    +0.000 A 
ATOM     29  C   UNL     1       3.611   5.295  19.184  0.00  0.00    +0.000 A 
BRANCH  24  30
ATOM     30  C   UNL     1       5.345   4.412  17.614  0.00  0.00    +0.000 C 
ATOM     31  O   UNL     1       5.219   3.663  16.665  0.00  0.00    +0.000 OA
BRANCH  30  32
ATOM     32  O   UNL     1       6.341   4.406  18.538  0.00  0.00    +0.000 OA
BRANCH  32  34
ATOM     33  C   UNL     1       7.855   6.218  18.851  0.00  0.00    +0.000 C 
ATOM     34  C   UNL     1       7.609   4.918  18.108  0.00  0.00    +0.000 C 
ENDBRANCH  32  34
ENDBRANCH  30  32
ENDBRANCH  24  30
ENDBRANCH  20  27
ENDBRANCH   1  21
BRANCH  15  35
ATOM     35  N   UNL     1       1.071  10.967  21.154  0.00  0.00    +0.000 N 
ATOM     36  H   UNL     1       0.863  10.939  22.147  0.00  0.00    +0.000 HD
ATOM     37  H   UNL     1       1.912  10.418  20.942  0.00  0.00    +0.000 HD
ENDBRANCH  15  35
TORSDOF 6
ENDMDL
MODEL 2
REMARK VINA RESULT:      -8.6      1.801      3.399
REMARK  Name = 
REMARK  7 active torsions:
REMARK  status: ('A' for Active; 'I' for Inactive)
REMARK    1  A    between atoms: C_1  and  C_2
REMARK    2  A    between atoms: C_2  and  O_3
REMARK    3  A    between atoms: O_3  and  C_4
REMARK    4  A    between atoms: C_4  and  C_6
REMARK    5  A    between atoms: C_9  and  N_10
REMARK    6  A    between atoms: C_11  and  C_13
REMARK    7  A    between atoms: C_27  and  N_28
REMARK                            x       y       z     vdW  Elec       q    Type
REMARK                         _______ _______ _______ _____ _____    ______ ____
ROOT
ATOM      1  C   UNL     1       0.188  10.218  19.014  0.00  0.00    +0.000 A 
ATOM      2  S   UNL     1       0.194  11.091  20.477  0.00  0.00    +0.000 S 
ATOM      3  C   UNL     1      -1.395  11.669  20.217  0.00  0.00    +0.000 A 
ATOM      4  N   UNL     1      -1.962  12.495  21.112  0.00  0.00    +0.000 NA
ATOM      5  C   UNL     1      -3.224  12.895  20.864  0.00  0.00    +0.000 A 
ATOM      6  N   UNL     1      -3.760  13.773  21.781  0.00  0.00    +0.000 N 
ATOM      7  C   UNL     1      -5.128  13.780  22.301  0.00  0.00    +0.000 C 
ATOM      8  C   UNL     1      -5.660  15.219  22.186  0.00  0.00    +0.000 C 
ATOM      9  O   UNL     1      -4.841  16.122  22.956  0.00  0.00    +0.000 OA
ATOM     10  C   UNL     1      -3.467  16.072  22.512  0.00  0.00    +0.000 C 
ATOM     11  C   UNL     1      -2.881  14.646  22.574  0.00  0.00    +0.000 C 
ATOM     12  C   UNL     1      -3.914  12.484  19.695  0.00  0.00    +0.000 A 
ATOM     13  C   UNL     1      -3.299  11.584  18.781  0.00  0.00    +0.000 A 
ATOM     14  C   UNL     1      -1.963  11.189  19.048  0.00  0.00    +0.000 A 
ATOM     15  C   UNL     1      -1.014  10.370  18.341  0.00  0.00    +0.000 A 
ATOM     16  C   UNL     1      -4.024  11.114  17.538  0.00  0.00    +0.000 C 
ATOM     17  C   UNL     1      -5.524  11.357  17.544  0.00  0.00    +0.000 C 
ATOM     18  C   UNL     1      -5.784  12.792  17.944  0.00  0.00    +0.000 C 
ATOM     19  C   UNL     1      -5.307  12.994  19.375  0.00  0.00    +0.000 C 
ENDROOT
BRANCH   1  21
ATOM     20  N   UNL     1       1.635   8.291  19.206  0.00  0.00    +0.000 N 
ATOM     21  C   UNL     1       1.336   9.466  18.526  0.00  0.00    +0.000 C 
ATOM     22  O   UNL     1       1.933   9.838  17.516  0.00  0.00    +0.000 OA
ATOM     23  H   UNL     1       0.977   8.004  19.919  0.00  0.00    +0.000 HD
BRANCH  20  27
ATOM     24  C   UNL     1       4.737   5.660  18.074  0.00  0.00    +0.000 A 
ATOM     25  C   UNL     1       4.005   5.412  19.237  0.00  0.00    +0.000 A 
ATOM     26  C   UNL     1       2.962   6.255  19.598  0.00  0.00    +0.000 A 
ATOM     27  C   UNL     1       2.632   7.368  18.823  0.00  0.00    +0.000 A 
ATOM     28  C   UNL     1       3.331   7.583  17.626  0.00  0.00    +0.000 A 
ATOM     29  C   UNL     1       4.386   6.733  17.249  0.00  0.00    +0.000 A 
BRANCH  24  30
ATOM     30  C   UNL     1       5.826   4.735  17.675  0.00  0.00    +0.000 C 
ATOM     31  O   UNL     1       6.789   4.467  18.367  0.00  0.00    +0.000 OA
BRANCH  30  32
ATOM     32  O   UNL     1       5.594   4.329  16.399  0.00  0.00    +0.000 OA
BRANCH  32  34
ATOM     33  C   UNL     1       6.209   3.987  14.124  0.00  0.00    +0.000 C 
ATOM     34  C   UNL     1       6.703   4.412  15.495  0.00  0.00    +0.000 C 
ENDBRANCH  32  34
ENDBRANCH  30  32
ENDBRANCH  24  30
ENDBRANCH  20  27
ENDBRANCH   1  21
BRANCH  15  35
ATOM     35  N   UNL     1      -1.235   9.783  17.142  0.00  0.00    +0.000 N 
ATOM     36  H   UNL     1      -1.502  10.326  16.326  0.00  0.00    +0.000 HD
ATOM     37  H   UNL     1      -0.642   8.989  16.872  0.00  0.00    +0.000 HD
ENDBRANCH  15  35
TORSDOF 6
ENDMDL
MODEL 3
REMARK VINA RESULT:      -8.5      0.764      1.459
REMARK  Name = 
REMARK  7 active torsions:
REMARK  status: ('A' for Active; 'I' for Inactive)
REMARK    1  A    between atoms: C_1  and  C_2
REMARK    2  A    between atoms: C_2  and  O_3
REMARK    3  A    between atoms: O_3  and  C_4
REMARK    4  A    between atoms: C_4  and  C_6
REMARK    5  A    between atoms: C_9  and  N_10
REMARK    6  A    between atoms: C_11  and  C_13
REMARK    7  A    between atoms: C_27  and  N_28
REMARK                            x       y       z     vdW  Elec       q    Type
REMARK                         _______ _______ _______ _____ _____    ______ ____
ROOT
ATOM      1  C   UNL     1       0.235  10.265  18.939  0.00  0.00    +0.000 A 
ATOM      2  S   UNL     1      -1.138  10.476  17.953  0.00  0.00    +0.000 S 
ATOM      3  C   UNL     1      -1.958  11.358  19.169  0.00  0.00    +0.000 A 
ATOM      4  N   UNL     1      -3.205  11.805  18.946  0.00  0.00    +0.000 NA
ATOM      5  C   UNL     1      -3.787  12.514  19.932  0.00  0.00    +0.000 A 
ATOM      6  N   UNL     1      -5.080  12.923  19.686  0.00  0.00    +0.000 N 
ATOM      7  C   UNL     1      -5.678  14.215  20.026  0.00  0.00    +0.000 C 
ATOM      8  C   UNL     1      -7.016  13.935  20.731  0.00  0.00    +0.000 C 
ATOM      9  O   UNL     1      -7.901  13.202  19.860  0.00  0.00    +0.000 OA
ATOM     10  C   UNL     1      -7.297  11.957  19.446  0.00  0.00    +0.000 C 
ATOM     11  C   UNL     1      -5.933  12.165  18.757  0.00  0.00    +0.000 C 
ATOM     12  C   UNL     1      -3.123  12.757  21.161  0.00  0.00    +0.000 A 
ATOM     13  C   UNL     1      -1.790  12.298  21.356  0.00  0.00    +0.000 A 
ATOM     14  C   UNL     1      -1.200  11.535  20.315  0.00  0.00    +0.000 A 
ATOM     15  C   UNL     1       0.065  10.863  20.177  0.00  0.00    +0.000 A 
ATOM     16  C   UNL     1      -1.053  12.563  22.651  0.00  0.00    +0.000 C 
ATOM     17  C   UNL     1      -1.671  13.638  23.528  0.00  0.00    +0.000 C 
ATOM     18  C   UNL     1      -3.151  13.360  23.669  0.00  0.00    +0.000 C 
ATOM     19  C   UNL     1      -3.804  13.490  22.300  0.00  0.00    +0.000 C 
ENDROOT
BRANCH   1  21
ATOM     20  N   UNL     1       1.584   8.270  19.158  0.00  0.00    +0.000 N 
ATOM     21  C   UNL     1       1.403   9.497  18.529  0.00  0.00    +0.000 C 
ATOM     22  O   UNL     1       2.121   9.905  17.616  0.00  0.00    +0.000 OA
ATOM     23  H   UNL     1       0.841   7.967  19.775  0.00  0.00    +0.000 HD
BRANCH  20  27
ATOM     24  C   UNL     1       4.696   5.590  18.176  0.00  0.00    +0.000 A 
ATOM     25  C   UNL     1       3.924   5.371  19.319  0.00  0.00    +0.000 A 
ATOM     26  C   UNL     1       2.878   6.230  19.630  0.00  0.00    +0.000 A 
ATOM     27  C   UNL     1       2.584   7.331  18.825  0.00  0.00    +0.000 A 
ATOM     28  C   UNL     1       3.323   7.517  17.646  0.00  0.00    +0.000 A 
ATOM     29  C   UNL     1       4.381   6.651  17.320  0.00  0.00    +0.000 A 
BRANCH  24  30
ATOM     30  C   UNL     1       5.787   4.649  17.829  0.00  0.00    +0.000 C 
ATOM     31  O   UNL     1       6.745   4.414  18.541  0.00  0.00    +0.000 OA
BRANCH  30  32
ATOM     32  O   UNL     1       5.567   4.184  16.572  0.00  0.00    +0.000 OA
BRANCH  32  34
ATOM     33  C   UNL     1       6.123   3.933  14.270  0.00  0.00    +0.000 C 
ATOM     34  C   UNL     1       6.636   4.356  15.634  0.00  0.00    +0.000 C 
ENDBRANCH  32  34
ENDBRANCH  30  32
ENDBRANCH  24  30
ENDBRANCH  20  27
ENDBRANCH   1  21
BRANCH  15  35
ATOM     35  N   UNL     1       1.021  10.802  21.133  0.00  0.00    +0.000 N 
ATOM     36  H   UNL     1       1.286   9.922  21.564  0.00  0.00    +0.000 HD
ATOM     37  H   UNL     1       1.834  11.424  21.048  0.00  0.00    +0.000 HD
ENDBRANCH  15  35
TORSDOF 6
ENDMDL
MODEL 4
REMARK VINA RESULT:      -8.5      1.706      3.112
REMARK  Name = 
REMARK  7 active torsions:
REMARK  status: ('A' for Active; 'I' for Inactive)
REMARK    1  A    between atoms: C_1  and  C_2
REMARK    2  A    between atoms: C_2  and  O_3
REMARK    3  A    between atoms: O_3  and  C_4
REMARK    4  A    between atoms: C_4  and  C_6
REMARK    5  A    between atoms: C_9  and  N_10
REMARK    6  A    between atoms: C_11  and  C_13
REMARK    7  A    between atoms: C_27  and  N_28
REMARK                            x       y       z     vdW  Elec       q    Type
REMARK                         _______ _______ _______ _____ _____    ______ ____
ROOT
ATOM      1  C   UNL     1       0.313  10.243  18.919  0.00  0.00    +0.000 A 
ATOM      2  S   UNL     1       0.352  11.016  20.437  0.00  0.00    +0.000 S 
ATOM      3  C   UNL     1      -1.253  11.582  20.265  0.00  0.00    +0.000 A 
ATOM      4  N   UNL     1      -1.805  12.336  21.231  0.00  0.00    +0.000 NA
ATOM      5  C   UNL     1      -3.080  12.729  21.049  0.00  0.00    +0.000 A 
ATOM      6  N   UNL     1      -3.600  13.534  22.039  0.00  0.00    +0.000 N 
ATOM      7  C   UNL     1      -4.951  13.482  22.601  0.00  0.00    +0.000 C 
ATOM      8  C   UNL     1      -5.508  14.915  22.599  0.00  0.00    +0.000 C 
ATOM      9  O   UNL     1      -4.680  15.780  23.402  0.00  0.00    +0.000 OA
ATOM     10  C   UNL     1      -3.321  15.784  22.913  0.00  0.00    +0.000 C 
ATOM     11  C   UNL     1      -2.710  14.369  22.861  0.00  0.00    +0.000 C 
ATOM     12  C   UNL     1      -3.800  12.384  19.877  0.00  0.00    +0.000 A 
ATOM     13  C   UNL     1      -3.201  11.558  18.886  0.00  0.00    +0.000 A 
ATOM     14  C   UNL     1      -1.851  11.170  19.085  0.00  0.00    +0.000 A 
ATOM     15  C   UNL     1      -0.912  10.417  18.296  0.00  0.00    +0.000 A 
ATOM     16  C   UNL     1      -3.958  11.158  17.638  0.00  0.00    +0.000 C 
ATOM     17  C   UNL     1      -5.460  11.373  17.707  0.00  0.00    +0.000 C 
ATOM     18  C   UNL     1      -5.730  12.773  18.209  0.00  0.00    +0.000 C 
ATOM     19  C   UNL     1      -5.211  12.888  19.636  0.00  0.00    +0.000 C 
ENDROOT
BRANCH   1  21
ATOM     20  N   UNL     1       1.683   8.254  18.807  0.00  0.00    +0.000 N 
ATOM     21  C   UNL     1       1.456   9.546  18.347  0.00  0.00    +0.000 C 
ATOM     22  O   UNL     1       2.113  10.072  17.448  0.00  0.00    +0.000 OA
ATOM     23  H   UNL     1       0.982   7.868  19.427  0.00  0.00    +0.000 HD
BRANCH  20  27
ATOM     24  C   UNL     1       4.494   5.547  17.195  0.00  0.00    +0.000 A 
ATOM     25  C   UNL     1       4.631   6.916  16.956  0.00  0.00    +0.000 A 
ATOM     26  C   UNL     1       3.729   7.815  17.511  0.00  0.00    +0.000 A 
ATOM     27  C   UNL     1       2.665   7.376  18.300  0.00  0.00    +0.000 A 
ATOM     28  C   UNL     1       2.562   6.006  18.586  0.00  0.00    +0.000 A 
ATOM     29  C   UNL     1       3.472   5.088  18.034  0.00  0.00    +0.000 A 
BRANCH  24  30
ATOM     30  C   UNL     1       5.482   4.596  16.631  0.00  0.00    +0.000 C 
ATOM     31  O   UNL     1       5.202   3.503  16.176  0.00  0.00    +0.000 OA
BRANCH  30  32
ATOM     32  O   UNL     1       6.723   5.123  16.796  0.00  0.00    +0.000 OA
BRANCH  32  34
ATOM     33  C   UNL     1       7.801   5.951  18.751  0.00  0.00    +0.000 C 
ATOM     34  C   UNL     1       7.441   4.704  17.963  0.00  0.00    +0.000 C 
ENDBRANCH  32  34
ENDBRANCH  30  32
ENDBRANCH  24  30
ENDBRANCH  20  27
ENDBRANCH   1  21
BRANCH  15  35
ATOM     35  N   UNL     1      -1.163   9.907  17.067  0.00  0.00    +0.000 N 
ATOM     36  H   UNL     1      -0.464   9.372  16.561  0.00  0.00    +0.000 HD
ATOM     37  H   UNL     1      -2.105   9.550  16.872  0.00  0.00    +0.000 HD
ENDBRANCH  15  35
TORSDOF 6
ENDMDL
MODEL 5
REMARK VINA RESULT:      -8.5      2.150      3.583
REMARK  Name = 
REMARK  7 active torsions:
REMARK  status: ('A' for Active; 'I' for Inactive)
REMARK    1  A    between atoms: C_1  and  C_2
REMARK    2  A    between atoms: C_2  and  O_3
REMARK    3  A    between atoms: O_3  and  C_4
REMARK    4  A    between atoms: C_4  and  C_6
REMARK    5  A    between atoms: C_9  and  N_10
REMARK    6  A    between atoms: C_11  and  C_13
REMARK    7  A    between atoms: C_27  and  N_28
REMARK                            x       y       z     vdW  Elec       q    Type
REMARK                         _______ _______ _______ _____ _____    ______ ____
ROOT
ATOM      1  C   UNL     1       0.541  10.132  19.152  0.00  0.00    +0.000 A 
ATOM      2  S   UNL     1       0.751  10.708  20.742  0.00  0.00    +0.000 S 
ATOM      3  C   UNL     1      -0.802  11.426  20.759  0.00  0.00    +0.000 A 
ATOM      4  N   UNL     1      -1.217  12.100  21.844  0.00  0.00    +0.000 NA
ATOM      5  C   UNL     1      -2.458  12.620  21.805  0.00  0.00    +0.000 A 
ATOM      6  N   UNL     1      -2.836  13.340  22.918  0.00  0.00    +0.000 N 
ATOM      7  C   UNL     1      -4.147  13.335  23.571  0.00  0.00    +0.000 C 
ATOM      8  C   UNL     1      -4.566  14.800  23.776  0.00  0.00    +0.000 C 
ATOM      9  O   UNL     1      -3.610  15.486  24.609  0.00  0.00    +0.000 OA
ATOM     10  C   UNL     1      -2.291  15.434  24.023  0.00  0.00    +0.000 C 
ATOM     11  C   UNL     1      -1.820  13.989  23.762  0.00  0.00    +0.000 C 
ATOM     12  C   UNL     1      -3.282  12.484  20.659  0.00  0.00    +0.000 A 
ATOM     13  C   UNL     1      -2.829  11.736  19.537  0.00  0.00    +0.000 A 
ATOM     14  C   UNL     1      -1.510  11.214  19.587  0.00  0.00    +0.000 A 
ATOM     15  C   UNL     1      -0.699  10.485  18.647  0.00  0.00    +0.000 A 
ATOM     16  C   UNL     1      -3.699  11.558  18.312  0.00  0.00    +0.000 C 
ATOM     17  C   UNL     1      -5.167  11.890  18.518  0.00  0.00    +0.000 C 
ATOM     18  C   UNL     1      -5.271  13.237  19.198  0.00  0.00    +0.000 C 
ATOM     19  C   UNL     1      -4.652  13.132  20.585  0.00  0.00    +0.000 C 
ENDROOT
BRANCH   1  21
ATOM     20  N   UNL     1       1.879   8.137  18.875  0.00  0.00    +0.000 N 
ATOM     21  C   UNL     1       1.575   9.415  18.419  0.00  0.00    +0.000 C 
ATOM     22  O   UNL     1       2.070   9.911  17.407  0.00  0.00    +0.000 OA
ATOM     23  H   UNL     1       1.293   7.773  19.615  0.00  0.00    +0.000 HD
BRANCH  20  27
ATOM     24  C   UNL     1       4.397   5.411  16.861  0.00  0.00    +0.000 A 
ATOM     25  C   UNL     1       4.707   6.773  16.862  0.00  0.00    +0.000 A 
ATOM     26  C   UNL     1       3.901   7.671  17.551  0.00  0.00    +0.000 A 
ATOM     27  C   UNL     1       2.765   7.241  18.238  0.00  0.00    +0.000 A 
ATOM     28  C   UNL     1       2.488   5.866  18.283  0.00  0.00    +0.000 A 
ATOM     29  C   UNL     1       3.299   4.949  17.594  0.00  0.00    +0.000 A 
BRANCH  24  30
ATOM     30  C   UNL     1       5.282   4.453  16.155  0.00  0.00    +0.000 C 
ATOM     31  O   UNL     1       5.921   3.574  16.703  0.00  0.00    +0.000 OA
BRANCH  30  32
ATOM     32  O   UNL     1       5.312   4.789  14.840  0.00  0.00    +0.000 OA
BRANCH  32  34
ATOM     33  C   UNL     1       5.873   3.573  12.870  0.00  0.00    +0.000 C 
ATOM     34  C   UNL     1       6.426   4.299  14.083  0.00  0.00    +0.000 C 
ENDBRANCH  32  34
ENDBRANCH  30  32
ENDBRANCH  24  30
ENDBRANCH  20  27
ENDBRANCH   1  21
BRANCH  15  35
ATOM     35  N   UNL     1      -1.076  10.152  17.390  0.00  0.00    +0.000 N 
ATOM     36  H   UNL     1      -0.446   9.671  16.757  0.00  0.00    +0.000 HD
ATOM     37  H   UNL     1      -2.045   9.851  17.236  0.00  0.00    +0.000 HD
ENDBRANCH  15  35
TORSDOF 6
ENDMDL
MODEL 6
REMARK VINA RESULT:      -8.3      2.381     11.224
REMARK  Name = 
REMARK  7 active torsions:
REMARK  status: ('A' for Active; 'I' for Inactive)
REMARK    1  A    between atoms: C_1  and  C_2
REMARK    2  A    between atoms: C_2  and  O_3
REMARK    3  A    between atoms: O_3  and  C_4
REMARK    4  A    between atoms: C_4  and  C_6
REMARK    5  A    between atoms: C_9  and  N_10
REMARK    6  A    between atoms: C_11  and  C_13
REMARK    7  A    between atoms: C_27  and  N_28
REMARK                            x       y       z     vdW  Elec       q    Type
REMARK                         _______ _______ _______ _____ _____    ______ ____
ROOT
ATOM      1  C   UNL     1       1.305   9.471  19.896  0.00  0.00    +0.000 A 
ATOM      2  S   UNL     1       2.182   9.545  18.437  0.00  0.00    +0.000 S 
ATOM      3  C   UNL     1       2.624   7.895  18.542  0.00  0.00    +0.000 A 
ATOM      4  N   UNL     1       3.403   7.350  17.593  0.00  0.00    +0.000 NA
ATOM      5  C   UNL     1       3.695   6.041  17.718  0.00  0.00    +0.000 A 
ATOM      6  N   UNL     1       4.529   5.524  16.750  0.00  0.00    +0.000 N 
ATOM      7  C   UNL     1       4.423   4.216  16.100  0.00  0.00    +0.000 C 
ATOM      8  C   UNL     1       5.812   3.557  16.158  0.00  0.00    +0.000 C 
ATOM      9  O   UNL     1       6.784   4.368  15.467  0.00  0.00    +0.000 OA
ATOM     10  C   UNL     1       6.847   5.691  16.042  0.00  0.00    +0.000 C 
ATOM     11  C   UNL     1       5.476   6.399  16.042  0.00  0.00    +0.000 C 
ATOM     12  C   UNL     1       3.223   5.279  18.816  0.00  0.00    +0.000 A 
ATOM     13  C   UNL     1       2.373   5.876  19.788  0.00  0.00    +0.000 A 
ATOM     14  C   UNL     1       2.093   7.260  19.652  0.00  0.00    +0.000 A 
ATOM     15  C   UNL     1       1.353   8.202  20.450  0.00  0.00    +0.000 A 
ATOM     16  C   UNL     1       1.838   5.077  20.957  0.00  0.00    +0.000 C 
ATOM     17  C   UNL     1       1.954   3.570  20.806  0.00  0.00    +0.000 C 
ATOM     18  C   UNL     1       3.365   3.230  20.378  0.00  0.00    +0.000 C 
ATOM     19  C   UNL     1       3.612   3.824  18.998  0.00  0.00    +0.000 C 
ENDROOT
BRANCH   1  21
ATOM     20  N   UNL     1      -0.737  10.577  20.568  0.00  0.00    +0.000 N 
ATOM     21  C   UNL     1       0.650  10.626  20.495  0.00  0.00    +0.000 C 
ATOM     22  O   UNL     1       1.324  11.539  20.973  0.00  0.00    +0.000 OA
ATOM     23  H   UNL     1      -1.172   9.706  20.290  0.00  0.00    +0.000 HD
BRANCH  20  27
ATOM     24  C   UNL     1      -3.302  13.379  22.412  0.00  0.00    +0.000 A 
ATOM     25  C   UNL     1      -2.531  12.520  23.198  0.00  0.00    +0.000 A 
ATOM     26  C   UNL     1      -1.660  11.618  22.599  0.00  0.00    +0.000 A 
ATOM     27  C   UNL     1      -1.547  11.539  21.210  0.00  0.00    +0.000 A 
ATOM     28  C   UNL     1      -2.280  12.442  20.424  0.00  0.00    +0.000 A 
ATOM     29  C   UNL     1      -3.159  13.361  21.021  0.00  0.00    +0.000 A 
BRANCH  24  30
ATOM     30  C   UNL     1      -4.201  14.365  23.059  0.00  0.00    +0.000 C 
ATOM     31  O   UNL     1      -4.142  15.567  22.886  0.00  0.00    +0.000 OA
BRANCH  30  32
ATOM     32  O   UNL     1      -5.015  13.699  23.919  0.00  0.00    +0.000 OA
BRANCH  32  34
ATOM     33  C   UNL     1      -7.384  13.650  24.160  0.00  0.00    +0.000 C 
ATOM     34  C   UNL     1      -6.205  13.130  23.358  0.00  0.00    +0.000 C 
ENDBRANCH  32  34
ENDBRANCH  30  32
ENDBRANCH  24  30
ENDBRANCH  20  27
ENDBRANCH   1  21
BRANCH  15  35
ATOM     35  N   UNL     1       0.744   7.916  21.625  0.00  0.00    +0.000 N 
ATOM     36  H   UNL     1       1.235   7.995  22.510  0.00  0.00    +0.000 HD
ATOM     37  H   UNL     1      -0.245   8.169  21.735  0.00  0.00    +0.000 HD
ENDBRANCH  15  35
TORSDOF 6
ENDMDL
MODEL 7
REMARK VINA RESULT:      -8.2      1.707      3.233
REMARK  Name = 
REMARK  7 active torsions:
REMARK  status: ('A' for Active; 'I' for Inactive)
REMARK    1  A    between atoms: C_1  and  C_2
REMARK    2  A    between atoms: C_2  and  O_3
REMARK    3  A    between atoms: O_3  and  C_4
REMARK    4  A    between atoms: C_4  and  C_6
REMARK    5  A    between atoms: C_9  and  N_10
REMARK    6  A    between atoms: C_11  and  C_13
REMARK    7  A    between atoms: C_27  and  N_28
REMARK                            x       y       z     vdW  Elec       q    Type
REMARK                         _______ _______ _______ _____ _____    ______ ____
ROOT
ATOM      1  C   UNL     1      -0.086  10.591  19.297  0.00  0.00    +0.000 A 
ATOM      2  S   UNL     1      -0.222  11.369  20.806  0.00  0.00    +0.000 S 
ATOM      3  C   UNL     1      -1.808  11.908  20.461  0.00  0.00    +0.000 A 
ATOM      4  N   UNL     1      -2.471  12.656  21.359  0.00  0.00    +0.000 NA
ATOM      5  C   UNL     1      -3.726  13.028  21.040  0.00  0.00    +0.000 A 
ATOM      6  N   UNL     1      -4.361  13.828  21.965  0.00  0.00    +0.000 N 
ATOM      7  C   UNL     1      -5.764  13.756  22.379  0.00  0.00    +0.000 C 
ATOM      8  C   UNL     1      -6.340  15.180  22.311  0.00  0.00    +0.000 C 
ATOM      9  O   UNL     1      -5.616  16.059  23.195  0.00  0.00    +0.000 OA
ATOM     10  C   UNL     1      -4.212  16.084  22.854  0.00  0.00    +0.000 C 
ATOM     11  C   UNL     1      -3.577  14.678  22.874  0.00  0.00    +0.000 C 
ATOM     12  C   UNL     1      -4.311  12.669  19.799  0.00  0.00    +0.000 A 
ATOM     13  C   UNL     1      -3.596  11.850  18.882  0.00  0.00    +0.000 A 
ATOM     14  C   UNL     1      -2.269  11.484  19.226  0.00  0.00    +0.000 A 
ATOM     15  C   UNL     1      -1.240  10.744  18.545  0.00  0.00    +0.000 A 
ATOM     16  C   UNL     1      -4.209  11.435  17.561  0.00  0.00    +0.000 C 
ATOM     17  C   UNL     1      -5.713  11.626  17.468  0.00  0.00    +0.000 C 
ATOM     18  C   UNL     1      -6.057  13.024  17.933  0.00  0.00    +0.000 C 
ATOM     19  C   UNL     1      -5.695  13.150  19.406  0.00  0.00    +0.000 C 
ENDROOT
BRANCH   1  21
ATOM     20  N   UNL     1       1.267   8.587  19.256  0.00  0.00    +0.000 N 
ATOM     21  C   UNL     1       1.122   9.910  18.853  0.00  0.00    +0.000 C 
ATOM     22  O   UNL     1       1.909  10.480  18.097  0.00  0.00    +0.000 OA
ATOM     23  H   UNL     1       0.479   8.176  19.740  0.00  0.00    +0.000 HD
BRANCH  20  27
ATOM     24  C   UNL     1       4.485   6.144  18.031  0.00  0.00    +0.000 A 
ATOM     25  C   UNL     1       3.770   5.824  19.188  0.00  0.00    +0.000 A 
ATOM     26  C   UNL     1       2.690   6.604  19.578  0.00  0.00    +0.000 A 
ATOM     27  C   UNL     1       2.305   7.725  18.841  0.00  0.00    +0.000 A 
ATOM     28  C   UNL     1       2.988   8.011  17.649  0.00  0.00    +0.000 A 
ATOM     29  C   UNL     1       4.080   7.225  17.242  0.00  0.00    +0.000 A 
BRANCH  24  30
ATOM     30  C   UNL     1       5.614   5.285  17.600  0.00  0.00    +0.000 C 
ATOM     31  O   UNL     1       5.669   4.082  17.773  0.00  0.00    +0.000 OA
BRANCH  30  32
ATOM     32  O   UNL     1       6.580   6.082  17.075  0.00  0.00    +0.000 OA
BRANCH  32  34
ATOM     33  C   UNL     1       7.789   8.054  17.644  0.00  0.00    +0.000 C 
ATOM     34  C   UNL     1       7.550   6.597  17.996  0.00  0.00    +0.000 C 
ENDBRANCH  32  34
ENDBRANCH  30  32
ENDBRANCH  24  30
ENDBRANCH  20  27
ENDBRANCH   1  21
BRANCH  15  35
ATOM     35  N   UNL     1      -1.349  10.227  17.298  0.00  0.00    +0.000 N 
ATOM     36  H   UNL     1      -0.762   9.460  16.988  0.00  0.00    +0.000 HD
ATOM     37  H   UNL     1      -2.284  10.161  16.880  0.00  0.00    +0.000 HD
ENDBRANCH  15  35
TORSDOF 6
ENDMDL
MODEL 8
REMARK VINA RESULT:      -8.2      2.386     11.097
REMARK  Name = 
REMARK  7 active torsions:
REMARK  status: ('A' for Active; 'I' for Inactive)
REMARK    1  A    between atoms: C_1  and  C_2
REMARK    2  A    between atoms: C_2  and  O_3
REMARK    3  A    between atoms: O_3  and  C_4
REMARK    4  A    between atoms: C_4  and  C_6
REMARK    5  A    between atoms: C_9  and  N_10
REMARK    6  A    between atoms: C_11  and  C_13
REMARK    7  A    between atoms: C_27  and  N_28
REMARK                            x       y       z     vdW  Elec       q    Type
REMARK                         _______ _______ _______ _____ _____    ______ ____
ROOT
ATOM      1  C   UNL     1       1.324   9.530  19.753  0.00  0.00    +0.000 A 
ATOM      2  S   UNL     1       2.184   9.567  18.283  0.00  0.00    +0.000 S 
ATOM      3  C   UNL     1       2.635   7.923  18.429  0.00  0.00    +0.000 A 
ATOM      4  N   UNL     1       3.406   7.354  17.488  0.00  0.00    +0.000 NA
ATOM      5  C   UNL     1       3.705   6.050  17.646  0.00  0.00    +0.000 A 
ATOM      6  N   UNL     1       4.531   5.510  16.684  0.00  0.00    +0.000 N 
ATOM      7  C   UNL     1       4.425   4.184  16.072  0.00  0.00    +0.000 C 
ATOM      8  C   UNL     1       5.817   3.533  16.134  0.00  0.00    +0.000 C 
ATOM      9  O   UNL     1       6.777   4.327  15.410  0.00  0.00    +0.000 OA
ATOM     10  C   UNL     1       6.841   5.667  15.946  0.00  0.00    +0.000 C 
ATOM     11  C   UNL     1       5.467   6.368  15.941  0.00  0.00    +0.000 C 
ATOM     12  C   UNL     1       3.249   5.317  18.770  0.00  0.00    +0.000 A 
ATOM     13  C   UNL     1       2.407   5.938  19.734  0.00  0.00    +0.000 A 
ATOM     14  C   UNL     1       2.119   7.317  19.563  0.00  0.00    +0.000 A 
ATOM     15  C   UNL     1       1.383   8.278  20.342  0.00  0.00    +0.000 A 
ATOM     16  C   UNL     1       1.888   5.170  20.931  0.00  0.00    +0.000 C 
ATOM     17  C   UNL     1       2.010   3.660  20.821  0.00  0.00    +0.000 C 
ATOM     18  C   UNL     1       3.417   3.314  20.388  0.00  0.00    +0.000 C 
ATOM     19  C   UNL     1       3.646   3.870  18.989  0.00  0.00    +0.000 C 
ENDROOT
BRANCH   1  21
ATOM     20  N   UNL     1      -0.708  10.615  20.489  0.00  0.00    +0.000 N 
ATOM     21  C   UNL     1       0.670  10.699  20.326  0.00  0.00    +0.000 C 
ATOM     22  O   UNL     1       1.342  11.656  20.710  0.00  0.00    +0.000 OA
ATOM     23  H   UNL     1      -1.131   9.718  20.287  0.00  0.00    +0.000 HD
BRANCH  20  27
ATOM     24  C   UNL     1      -3.243  13.448  22.325  0.00  0.00    +0.000 A 
ATOM     25  C   UNL     1      -2.431  12.629  23.112  0.00  0.00    +0.000 A 
ATOM     26  C   UNL     1      -1.571  11.717  22.513  0.00  0.00    +0.000 A 
ATOM     27  C   UNL     1      -1.508  11.588  21.125  0.00  0.00    +0.000 A 
ATOM     28  C   UNL     1      -2.282  12.452  20.335  0.00  0.00    +0.000 A 
ATOM     29  C   UNL     1      -3.152  13.381  20.931  0.00  0.00    +0.000 A 
BRANCH  24  30
ATOM     30  C   UNL     1      -4.132  14.445  22.970  0.00  0.00    +0.000 C 
ATOM     31  O   UNL     1      -4.925  15.148  22.372  0.00  0.00    +0.000 OA
BRANCH  30  32
ATOM     32  O   UNL     1      -3.838  14.484  24.295  0.00  0.00    +0.000 OA
BRANCH  32  34
ATOM     33  C   UNL     1      -2.154  15.557  25.594  0.00  0.00    +0.000 C 
ATOM     34  C   UNL     1      -3.446  15.758  24.822  0.00  0.00    +0.000 C 
ENDBRANCH  32  34
ENDBRANCH  30  32
ENDBRANCH  24  30
ENDBRANCH  20  27
ENDBRANCH   1  21
BRANCH  15  35
ATOM     35  N   UNL     1       0.789   8.022  21.531  0.00  0.00    +0.000 N 
ATOM     36  H   UNL     1       0.654   8.751  22.225  0.00  0.00    +0.000 HD
ATOM     37  H   UNL     1       0.010   7.353  21.552  0.00  0.00    +0.000 HD
ENDBRANCH  15  35
TORSDOF 6
ENDMDL
MODEL 9
REMARK VINA RESULT:      -8.1      2.012      3.516
REMARK  Name = 
REMARK  7 active torsions:
REMARK  status: ('A' for Active; 'I' for Inactive)
REMARK    1  A    between atoms: C_1  and  C_2
REMARK    2  A    between atoms: C_2  and  O_3
REMARK    3  A    between atoms: O_3  and  C_4
REMARK    4  A    between atoms: C_4  and  C_6
REMARK    5  A    between atoms: C_9  and  N_10
REMARK    6  A    between atoms: C_11  and  C_13
REMARK    7  A    between atoms: C_27  and  N_28
REMARK                            x       y       z     vdW  Elec       q    Type
REMARK                         _______ _______ _______ _____ _____    ______ ____
ROOT
ATOM      1  C   UNL     1       0.158  10.343  19.673  0.00  0.00    +0.000 A 
ATOM      2  S   UNL     1       0.601  11.003  21.180  0.00  0.00    +0.000 S 
ATOM      3  C   UNL     1      -0.872  11.863  21.313  0.00  0.00    +0.000 A 
ATOM      4  N   UNL     1      -1.096  12.646  22.381  0.00  0.00    +0.000 NA
ATOM      5  C   UNL     1      -2.285  13.276  22.440  0.00  0.00    +0.000 A 
ATOM      6  N   UNL     1      -2.465  14.102  23.528  0.00  0.00    +0.000 N 
ATOM      7  C   UNL     1      -3.686  14.265  24.320  0.00  0.00    +0.000 C 
ATOM      8  C   UNL     1      -3.951  15.774  24.457  0.00  0.00    +0.000 C 
ATOM      9  O   UNL     1      -2.848  16.422  25.122  0.00  0.00    +0.000 OA
ATOM     10  C   UNL     1      -1.616  16.206  24.400  0.00  0.00    +0.000 C 
ATOM     11  C   UNL     1      -1.306  14.708  24.201  0.00  0.00    +0.000 C 
ATOM     12  C   UNL     1      -3.246  13.142  21.407  0.00  0.00    +0.000 A 
ATOM     13  C   UNL     1      -2.993  12.281  20.303  0.00  0.00    +0.000 A 
ATOM     14  C   UNL     1      -1.728  11.640  20.247  0.00  0.00    +0.000 A 
ATOM     15  C   UNL     1      -1.099  10.776  19.283  0.00  0.00    +0.000 A 
ATOM     16  C   UNL     1      -4.013  12.103  19.199  0.00  0.00    +0.000 C 
ATOM     17  C   UNL     1      -5.413  12.586  19.540  0.00  0.00    +0.000 C 
ATOM     18  C   UNL     1      -5.320  13.979  20.120  0.00  0.00    +0.000 C 
ATOM     19  C   UNL     1      -4.554  13.910  21.434  0.00  0.00    +0.000 C 
ENDROOT
BRANCH   1  21
ATOM     20  N   UNL     1       1.671   8.460  19.579  0.00  0.00    +0.000 N 
ATOM     21  C   UNL     1       1.033   9.484  18.888  0.00  0.00    +0.000 C 
ATOM     22  O   UNL     1       1.113   9.634  17.669  0.00  0.00    +0.000 OA
ATOM     23  H   UNL     1       1.403   8.335  20.546  0.00  0.00    +0.000 HD
BRANCH  20  27
ATOM     24  C   UNL     1       4.194   5.553  17.842  0.00  0.00    +0.000 A 
ATOM     25  C   UNL     1       3.363   5.205  18.909  0.00  0.00    +0.000 A 
ATOM     26  C   UNL     1       2.507   6.147  19.464  0.00  0.00    +0.000 A 
ATOM     27  C   UNL     1       2.466   7.457  18.983  0.00  0.00    +0.000 A 
ATOM     28  C   UNL     1       3.258   7.789  17.874  0.00  0.00    +0.000 A 
ATOM     29  C   UNL     1       4.125   6.842  17.302  0.00  0.00    +0.000 A 
BRANCH  24  30
ATOM     30  C   UNL     1       5.078   4.532  17.230  0.00  0.00    +0.000 C 
ATOM     31  O   UNL     1       4.857   3.976  16.171  0.00  0.00    +0.000 OA
BRANCH  30  32
ATOM     32  O   UNL     1       6.099   4.281  18.091  0.00  0.00    +0.000 OA
BRANCH  32  34
ATOM     33  C   UNL     1       7.686   5.801  19.010  0.00  0.00    +0.000 C 
ATOM     34  C   UNL     1       7.342   4.937  17.810  0.00  0.00    +0.000 C 
ENDBRANCH  32  34
ENDBRANCH  30  32
ENDBRANCH  24  30
ENDBRANCH  20  27
ENDBRANCH   1  21
BRANCH  15  35
ATOM     35  N   UNL     1      -1.647  10.397  18.105  0.00  0.00    +0.000 N 
ATOM     36  H   UNL     1      -2.592  10.663  17.848  0.00  0.00    +0.000 HD
ATOM     37  H   UNL     1      -1.042  10.362  17.276  0.00  0.00    +0.000 HD
ENDBRANCH  15  35
TORSDOF 6
ENDMDL
