MODEL 1
REMARK VINA RESULT:      -8.5      0.000      0.000
REMARK  Name = 
REMARK  11 active torsions:
REMARK  status: ('A' for Active; 'I' for Inactive)
REMARK    1  A    between atoms: C_1  and  C_2
REMARK    2  A    between atoms: C_2  and  C_3
REMARK    3  A    between atoms: C_3  and  C_4
REMARK    4  A    between atoms: C_4  and  C_5
REMARK    5  A    between atoms: C_9  and  S_10
REMARK    6  A    between atoms: S_10  and  N_11
REMARK    7  A    between atoms: N_17  and  C_18
REMARK    8  A    between atoms: C_18  and  C_19
REMARK    9  A    between atoms: C_22  and  C_23
REMARK   10  A    between atoms: C_28  and  C_29
REMARK   11  A    between atoms: C_29  and  O_31
REMARK                            x       y       z     vdW  Elec       q    Type
REMARK                         _______ _______ _______ _____ _____    ______ ____
ROOT
ATOM      1  C   UNL     1      -1.343  11.262  18.626  0.00  0.00    +0.000 A 
ATOM      2  N   UNL     1      -1.416  12.534  18.286  0.00  0.00    +0.000 NA
ATOM      3  C   UNL     1      -0.341  13.149  18.864  0.00  0.00    +0.000 A 
ATOM      4  C   UNL     1       0.039  14.499  18.809  0.00  0.00    +0.000 A 
ATOM      5  C   UNL     1       1.196  14.883  19.500  0.00  0.00    +0.000 A 
ATOM      6  C   UNL     1       1.990  13.953  20.169  0.00  0.00    +0.000 A 
ATOM      7  C   UNL     1       1.629  12.603  20.198  0.00  0.00    +0.000 A 
ATOM      8  C   UNL     1       0.428  12.234  19.576  0.00  0.00    +0.000 A 
ATOM      9  N   UNL     1      -0.293  11.052  19.502  0.00  0.00    +0.000 N 
ENDROOT
BRANCH   5  10
ATOM     10  S   UNL     1       1.675  16.593  19.503  0.00  0.00    +0.000 S 
ATOM     11  O   UNL     1       2.833  16.745  18.655  0.00  0.00    +0.000 OA
ATOM     12  O   UNL     1       0.491  17.399  19.367  0.00  0.00    +0.000 OA
BRANCH  10  13
ATOM     13  N   UNL     1       2.208  16.748  21.072  0.00  0.00    +0.000 NA
ATOM     14  H   UNL     1       3.200  16.616  21.239  0.00  0.00    +0.000 HD
ATOM     15  H   UNL     1       1.520  16.657  21.813  0.00  0.00    +0.000 HD
ENDBRANCH  10  13
ENDBRANCH   5  10
BRANCH   1  16
ATOM     16  C   UNL     1      -2.282  10.196  18.153  0.00  0.00    +0.000 C 
BRANCH  16  17
ATOM     17  C   UNL     1      -2.053   9.857  16.678  0.00  0.00    +0.000 C 
BRANCH  17  19
ATOM     18  C   UNL     1      -3.042  10.030  14.375  0.00  0.00    +0.000 C 
ATOM     19  C   UNL     1      -3.013  10.626  15.773  0.00  0.00    +0.000 C 
ENDBRANCH  17  19
ENDBRANCH  16  17
ENDBRANCH   1  16
BRANCH   9  20
ATOM     20  C   UNL     1      -0.030   9.831  20.262  0.00  0.00    +0.000 C 
BRANCH  20  21
ATOM     21  C   UNL     1       1.095   9.036  19.641  0.00  0.00    +0.000 A 
ATOM     22  C   UNL     1       1.541   9.284  18.339  0.00  0.00    +0.000 A 
ATOM     23  C   UNL     1       2.452   8.416  17.718  0.00  0.00    +0.000 A 
ATOM     24  C   UNL     1       2.863   7.222  18.334  0.00  0.00    +0.000 A 
ATOM     25  C   UNL     1       2.469   7.042  19.672  0.00  0.00    +0.000 A 
ATOM     26  C   UNL     1       1.650   7.957  20.329  0.00  0.00    +0.000 A 
BRANCH  24  27
ATOM     27  C   UNL     1       3.648   6.166  17.637  0.00  0.00    +0.000 A 
ATOM     28  C   UNL     1       4.885   6.536  17.046  0.00  0.00    +0.000 A 
ATOM     29  C   UNL     1       5.713   5.624  16.387  0.00  0.00    +0.000 A 
ATOM     30  C   UNL     1       5.324   4.301  16.272  0.00  0.00    +0.000 A 
ATOM     31  C   UNL     1       4.116   3.894  16.832  0.00  0.00    +0.000 A 
ATOM     32  C   UNL     1       3.283   4.800  17.526  0.00  0.00    +0.000 A 
BRANCH  32  33
ATOM     33  C   UNL     1       2.049   4.168  18.071  0.00  0.00    +0.000 C 
ATOM     34  O   UNL     1       1.017   4.107  17.418  0.00  0.00    +0.000 OA
BRANCH  33  35
ATOM     35  O   UNL     1       2.171   3.577  19.274  0.00  0.00    +0.000 OA
ATOM     36  H   UNL     1       2.827   2.857  19.328  0.00  0.00    +0.000 HD
ENDBRANCH  33  35
ENDBRANCH  32  33
ENDBRANCH  24  27
ENDBRANCH  20  21
ENDBRANCH   9  20
TORSDOF 10
ENDMDL
MODEL 2
REMARK VINA RESULT:      -8.4      0.790      1.152
REMARK  Name = 
REMARK  11 active torsions:
REMARK  status: ('A' for Active; 'I' for Inactive)
REMARK    1  A    between atoms: C_1  and  C_2
REMARK    2  A    between atoms: C_2  and  C_3
REMARK    3  A    between atoms: C_3  and  C_4
REMARK    4  A    between atoms: C_4  and  C_5
REMARK    5  A    between atoms: C_9  and  S_10
REMARK    6  A    between atoms: S_10  and  N_11
REMARK    7  A    between atoms: N_17  and  C_18
REMARK    8  A    between atoms: C_18  and  C_19
REMARK    9  A    between atoms: C_22  and  C_23
REMARK   10  A    between atoms: C_28  and  C_29
REMARK   11  A    between atoms: C_29  and  O_31
REMARK                            x       y       z     vdW  Elec       q    Type
REMARK                         _______ _______ _______ _____ _____    ______ ____
ROOT
ATOM      1  C   UNL     1      -0.766  11.696  18.892  0.00  0.00    +0.000 A 
ATOM      2  N   UNL     1      -0.892  12.903  18.375  0.00  0.00    +0.000 NA
ATOM      3  C   UNL     1       0.241  13.587  18.715  0.00  0.00    +0.000 A 
ATOM      4  C   UNL     1       0.599  14.909  18.409  0.00  0.00    +0.000 A 
ATOM      5  C   UNL     1       1.829  15.382  18.884  0.00  0.00    +0.000 A 
ATOM      6  C   UNL     1       2.709  14.555  19.582  0.00  0.00    +0.000 A 
ATOM      7  C   UNL     1       2.367  13.229  19.859  0.00  0.00    +0.000 A 
ATOM      8  C   UNL     1       1.101  12.782  19.455  0.00  0.00    +0.000 A 
ATOM      9  N   UNL     1       0.387  11.610  19.651  0.00  0.00    +0.000 N 
ENDROOT
BRANCH   5  10
ATOM     10  S   UNL     1       2.290  17.067  18.568  0.00  0.00    +0.000 S 
ATOM     11  O   UNL     1       2.759  17.166  17.207  0.00  0.00    +0.000 OA
ATOM     12  O   UNL     1       1.274  17.928  19.113  0.00  0.00    +0.000 OA
BRANCH  10  13
ATOM     13  N   UNL     1       3.631  17.196  19.547  0.00  0.00    +0.000 NA
ATOM     14  H   UNL     1       4.103  16.335  19.800  0.00  0.00    +0.000 HD
ATOM     15  H   UNL     1       3.735  18.048  20.090  0.00  0.00    +0.000 HD
ENDBRANCH  10  13
ENDBRANCH   5  10
BRANCH   1  16
ATOM     16  C   UNL     1      -1.747  10.580  18.706  0.00  0.00    +0.000 C 
BRANCH  16  17
ATOM     17  C   UNL     1      -1.724  10.042  17.273  0.00  0.00    +0.000 C 
BRANCH  17  19
ATOM     18  C   UNL     1      -2.912  10.290  15.073  0.00  0.00    +0.000 C 
ATOM     19  C   UNL     1      -3.074  10.234  16.584  0.00  0.00    +0.000 C 
ENDBRANCH  17  19
ENDBRANCH  16  17
ENDBRANCH   1  16
BRANCH   9  20
ATOM     20  C   UNL     1       0.754  10.515  20.548  0.00  0.00    +0.000 C 
BRANCH  20  21
ATOM     21  C   UNL     1       1.277   9.328  19.772  0.00  0.00    +0.000 A 
ATOM     22  C   UNL     1       1.546   8.104  20.391  0.00  0.00    +0.000 A 
ATOM     23  C   UNL     1       2.206   7.080  19.694  0.00  0.00    +0.000 A 
ATOM     24  C   UNL     1       2.707   7.282  18.397  0.00  0.00    +0.000 A 
ATOM     25  C   UNL     1       2.346   8.487  17.769  0.00  0.00    +0.000 A 
ATOM     26  C   UNL     1       1.600   9.464  18.422  0.00  0.00    +0.000 A 
BRANCH  24  27
ATOM     27  C   UNL     1       3.598   6.313  17.702  0.00  0.00    +0.000 A 
ATOM     28  C   UNL     1       4.822   6.796  17.169  0.00  0.00    +0.000 A 
ATOM     29  C   UNL     1       5.743   5.973  16.517  0.00  0.00    +0.000 A 
ATOM     30  C   UNL     1       5.466   4.627  16.352  0.00  0.00    +0.000 A 
ATOM     31  C   UNL     1       4.276   4.109  16.855  0.00  0.00    +0.000 A 
ATOM     32  C   UNL     1       3.348   4.926  17.541  0.00  0.00    +0.000 A 
BRANCH  32  33
ATOM     33  C   UNL     1       2.150   4.182  18.021  0.00  0.00    +0.000 C 
ATOM     34  O   UNL     1       1.135   4.094  17.346  0.00  0.00    +0.000 OA
BRANCH  33  35
ATOM     35  O   UNL     1       2.292   3.526  19.188  0.00  0.00    +0.000 OA
ATOM     36  H   UNL     1       1.513   3.021  19.488  0.00  0.00    +0.000 HD
ENDBRANCH  33  35
ENDBRANCH  32  33
ENDBRANCH  24  27
ENDBRANCH  20  21
ENDBRANCH   9  20
TORSDOF 10
ENDMDL
MODEL 3
REMARK VINA RESULT:      -8.2      1.470      1.990
REMARK  Name = 
REMARK  11 active torsions:
REMARK  status: ('A' for Active; 'I' for Inactive)
REMARK    1  A    between atoms: C_1  and  C_2
REMARK    2  A    between atoms: C_2  and  C_3
REMARK    3  A    between atoms: C_3  and  C_4
REMARK    4  A    between atoms: C_4  and  C_5
REMARK    5  A    between atoms: C_9  and  S_10
REMARK    6  A    between atoms: S_10  and  N_11
REMARK    7  A    between atoms: N_17  and  C_18
REMARK    8  A    between atoms: C_18  and  C_19
REMARK    9  A    between atoms: C_22  and  C_23
REMARK   10  A    between atoms: C_28  and  C_29
REMARK   11  A    between atoms: C_29  and  O_31
REMARK                            x       y       z     vdW  Elec       q    Type
REMARK                         _______ _______ _______ _____ _____    ______ ____
ROOT
ATOM      1  C   UNL     1      -0.891  11.510  18.704  0.00  0.00    +0.000 A 
ATOM      2  N   UNL     1      -0.924  12.725  18.192  0.00  0.00    +0.000 NA
ATOM      3  C   UNL     1       0.166  13.382  18.690  0.00  0.00    +0.000 A 
ATOM      4  C   UNL     1       0.586  14.699  18.453  0.00  0.00    +0.000 A 
ATOM      5  C   UNL     1       1.751  15.142  19.095  0.00  0.00    +0.000 A 
ATOM      6  C   UNL     1       2.513  14.290  19.894  0.00  0.00    +0.000 A 
ATOM      7  C   UNL     1       2.111  12.968  20.105  0.00  0.00    +0.000 A 
ATOM      8  C   UNL     1       0.903  12.551  19.528  0.00  0.00    +0.000 A 
ATOM      9  N   UNL     1       0.147  11.393  19.610  0.00  0.00    +0.000 N 
ENDROOT
BRANCH   5  10
ATOM     10  S   UNL     1       2.281  16.821  18.868  0.00  0.00    +0.000 S 
ATOM     11  O   UNL     1       3.036  16.900  17.640  0.00  0.00    +0.000 OA
ATOM     12  O   UNL     1       1.177  17.693  19.168  0.00  0.00    +0.000 OA
BRANCH  10  13
ATOM     13  N   UNL     1       3.377  16.957  20.113  0.00  0.00    +0.000 NA
ATOM     14  H   UNL     1       3.010  16.929  21.058  0.00  0.00    +0.000 HD
ATOM     15  H   UNL     1       4.283  17.363  19.899  0.00  0.00    +0.000 HD
ENDBRANCH  10  13
ENDBRANCH   5  10
BRANCH   1  16
ATOM     16  C   UNL     1      -1.859  10.416  18.373  0.00  0.00    +0.000 C 
BRANCH  16  17
ATOM     17  C   UNL     1      -1.769  10.011  16.900  0.00  0.00    +0.000 C 
BRANCH  17  19
ATOM     18  C   UNL     1      -3.019  10.232  14.732  0.00  0.00    +0.000 C 
ATOM     19  C   UNL     1      -3.144  10.026  16.233  0.00  0.00    +0.000 C 
ENDBRANCH  17  19
ENDBRANCH  16  17
ENDBRANCH   1  16
BRANCH   9  20
ATOM     20  C   UNL     1       0.370  10.280  20.533  0.00  0.00    +0.000 C 
BRANCH  20  21
ATOM     21  C   UNL     1       1.222   9.207  19.897  0.00  0.00    +0.000 A 
ATOM     22  C   UNL     1       1.527   9.222  18.532  0.00  0.00    +0.000 A 
ATOM     23  C   UNL     1       2.157   8.123  17.929  0.00  0.00    +0.000 A 
ATOM     24  C   UNL     1       2.406   6.938  18.642  0.00  0.00    +0.000 A 
ATOM     25  C   UNL     1       2.170   6.983  20.027  0.00  0.00    +0.000 A 
ATOM     26  C   UNL     1       1.643   8.112  20.650  0.00  0.00    +0.000 A 
BRANCH  24  27
ATOM     27  C   UNL     1       2.866   5.676  18.001  0.00  0.00    +0.000 A 
ATOM     28  C   UNL     1       2.033   4.531  18.109  0.00  0.00    +0.000 A 
ATOM     29  C   UNL     1       2.355   3.302  17.529  0.00  0.00    +0.000 A 
ATOM     30  C   UNL     1       3.541   3.161  16.830  0.00  0.00    +0.000 A 
ATOM     31  C   UNL     1       4.391   4.256  16.701  0.00  0.00    +0.000 A 
ATOM     32  C   UNL     1       4.064   5.512  17.260  0.00  0.00    +0.000 A 
BRANCH  32  33
ATOM     33  C   UNL     1       5.090   6.560  16.994  0.00  0.00    +0.000 C 
ATOM     34  O   UNL     1       5.911   6.884  17.839  0.00  0.00    +0.000 OA
BRANCH  33  35
ATOM     35  O   UNL     1       5.124   7.046  15.739  0.00  0.00    +0.000 OA
ATOM     36  H   UNL     1       4.879   6.418  15.034  0.00  0.00    +0.000 HD
ENDBRANCH  33  35
ENDBRANCH  32  33
ENDBRANCH  24  27
ENDBRANCH  20  21
ENDBRANCH   9  20
TORSDOF 10
ENDMDL
MODEL 4
REMARK VINA RESULT:      -8.2      0.760      1.140
REMARK  Name = 
REMARK  11 active torsions:
REMARK  status: ('A' for Active; 'I' for Inactive)
REMARK    1  A    between atoms: C_1  and  C_2
REMARK    2  A    between atoms: C_2  and  C_3
REMARK    3  A    between atoms: C_3  and  C_4
REMARK    4  A    between atoms: C_4  and  C_5
REMARK    5  A    between atoms: C_9  and  S_10
REMARK    6  A    between atoms: S_10  and  N_11
REMARK    7  A    between atoms: N_17  and  C_18
REMARK    8  A    between atoms: C_18  and  C_19
REMARK    9  A    between atoms: C_22  and  C_23
REMARK   10  A    between atoms: C_28  and  C_29
REMARK   11  A    between atoms: C_29  and  O_31
REMARK                            x       y       z     vdW  Elec       q    Type
REMARK                         _______ _______ _______ _____ _____    ______ ____
ROOT
ATOM      1  C   UNL     1      -1.170  11.513  18.400  0.00  0.00    +0.000 A 
ATOM      2  N   UNL     1      -1.149  12.798  18.106  0.00  0.00    +0.000 NA
ATOM      3  C   UNL     1      -0.101  13.335  18.799  0.00  0.00    +0.000 A 
ATOM      4  C   UNL     1       0.349  14.663  18.830  0.00  0.00    +0.000 A 
ATOM      5  C   UNL     1       1.458  14.961  19.633  0.00  0.00    +0.000 A 
ATOM      6  C   UNL     1       2.142  13.967  20.332  0.00  0.00    +0.000 A 
ATOM      7  C   UNL     1       1.713  12.639  20.277  0.00  0.00    +0.000 A 
ATOM      8  C   UNL     1       0.555  12.355  19.538  0.00  0.00    +0.000 A 
ATOM      9  N   UNL     1      -0.215  11.217  19.355  0.00  0.00    +0.000 N 
ENDROOT
BRANCH   5  10
ATOM     10  S   UNL     1       2.020  16.642  19.745  0.00  0.00    +0.000 S 
ATOM     11  O   UNL     1       1.583  17.188  21.007  0.00  0.00    +0.000 OA
ATOM     12  O   UNL     1       3.387  16.697  19.297  0.00  0.00    +0.000 OA
BRANCH  10  13
ATOM     13  N   UNL     1       1.080  17.348  18.567  0.00  0.00    +0.000 NA
ATOM     14  H   UNL     1       1.437  17.330  17.618  0.00  0.00    +0.000 HD
ATOM     15  H   UNL     1       0.377  18.017  18.866  0.00  0.00    +0.000 HD
ENDBRANCH  10  13
ENDBRANCH   5  10
BRANCH   1  16
ATOM     16  C   UNL     1      -2.116  10.515  17.805  0.00  0.00    +0.000 C 
BRANCH  16  17
ATOM     17  C   UNL     1      -3.497  11.127  17.556  0.00  0.00    +0.000 C 
BRANCH  17  19
ATOM     18  C   UNL     1      -2.833  10.505  15.213  0.00  0.00    +0.000 C 
ATOM     19  C   UNL     1      -3.993  10.824  16.143  0.00  0.00    +0.000 C 
ENDBRANCH  17  19
ENDBRANCH  16  17
ENDBRANCH   1  16
BRANCH   9  20
ATOM     20  C   UNL     1      -0.082   9.958  20.086  0.00  0.00    +0.000 C 
BRANCH  20  21
ATOM     21  C   UNL     1       1.040   9.117  19.522  0.00  0.00    +0.000 A 
ATOM     22  C   UNL     1       1.465   9.251  18.197  0.00  0.00    +0.000 A 
ATOM     23  C   UNL     1       2.373   8.336  17.642  0.00  0.00    +0.000 A 
ATOM     24  C   UNL     1       2.803   7.205  18.356  0.00  0.00    +0.000 A 
ATOM     25  C   UNL     1       2.429   7.143  19.710  0.00  0.00    +0.000 A 
ATOM     26  C   UNL     1       1.612   8.108  20.295  0.00  0.00    +0.000 A 
BRANCH  24  27
ATOM     27  C   UNL     1       3.585   6.096  17.744  0.00  0.00    +0.000 A 
ATOM     28  C   UNL     1       4.890   6.385  17.266  0.00  0.00    +0.000 A 
ATOM     29  C   UNL     1       5.720   5.418  16.695  0.00  0.00    +0.000 A 
ATOM     30  C   UNL     1       5.266   4.117  16.556  0.00  0.00    +0.000 A 
ATOM     31  C   UNL     1       3.991   3.789  17.007  0.00  0.00    +0.000 A 
ATOM     32  C   UNL     1       3.152   4.751  17.612  0.00  0.00    +0.000 A 
BRANCH  32  33
ATOM     33  C   UNL     1       1.838   4.199  18.046  0.00  0.00    +0.000 C 
ATOM     34  O   UNL     1       1.641   3.838  19.197  0.00  0.00    +0.000 OA
BRANCH  33  35
ATOM     35  O   UNL     1       0.856   4.223  17.126  0.00  0.00    +0.000 OA
ATOM     36  H   UNL     1       1.147   4.191  16.195  0.00  0.00    +0.000 HD
ENDBRANCH  33  35
ENDBRANCH  32  33
ENDBRANCH  24  27
ENDBRANCH  20  21
ENDBRANCH   9  20
TORSDOF 10
ENDMDL
MODEL 5
REMARK VINA RESULT:      -7.9      1.165      1.670
REMARK  Name = 
REMARK  11 active torsions:
REMARK  status: ('A' for Active; 'I' for Inactive)
REMARK    1  A    between atoms: C_1  and  C_2
REMARK    2  A    between atoms: C_2  and  C_3
REMARK    3  A    between atoms: C_3  and  C_4
REMARK    4  A    between atoms: C_4  and  C_5
REMARK    5  A    between atoms: C_9  and  S_10
REMARK    6  A    between atoms: S_10  and  N_11
REMARK    7  A    between atoms: N_17  and  C_18
REMARK    8  A    between atoms: C_18  and  C_19
REMARK    9  A    between atoms: C_22  and  C_23
REMARK   10  A    between atoms: C_28  and  C_29
REMARK   11  A    between atoms: C_29  and  O_31
REMARK                            x       y       z     vdW  Elec       q    Type
REMARK                         _______ _______ _______ _____ _____    ______ ____
ROOT
ATOM      1  C   UNL     1      -0.876  12.296  18.883  0.00  0.00    +0.000 A 
ATOM      2  N   UNL     1      -0.701  13.500  18.373  0.00  0.00    +0.000 NA
ATOM      3  C   UNL     1       0.559  13.890  18.731  0.00  0.00    +0.000 A 
ATOM      4  C   UNL     1       1.229  15.087  18.440  0.00  0.00    +0.000 A 
ATOM      5  C   UNL     1       2.531  15.247  18.932  0.00  0.00    +0.000 A 
ATOM      6  C   UNL     1       3.176  14.230  19.634  0.00  0.00    +0.000 A 
ATOM      7  C   UNL     1       2.520  13.024  19.898  0.00  0.00    +0.000 A 
ATOM      8  C   UNL     1       1.190  12.897  19.476  0.00  0.00    +0.000 A 
ATOM      9  N   UNL     1       0.211  11.932  19.655  0.00  0.00    +0.000 N 
ENDROOT
BRANCH   5  10
ATOM     10  S   UNL     1       3.389  16.773  18.635  0.00  0.00    +0.000 S 
ATOM     11  O   UNL     1       4.719  16.665  19.182  0.00  0.00    +0.000 OA
ATOM     12  O   UNL     1       3.128  17.187  17.281  0.00  0.00    +0.000 OA
BRANCH  10  13
ATOM     13  N   UNL     1       2.539  17.792  19.640  0.00  0.00    +0.000 NA
ATOM     14  H   UNL     1       2.859  17.867  20.600  0.00  0.00    +0.000 HD
ATOM     15  H   UNL     1       1.594  18.041  19.366  0.00  0.00    +0.000 HD
ENDBRANCH  10  13
ENDBRANCH   5  10
BRANCH   1  16
ATOM     16  C   UNL     1      -2.095  11.451  18.677  0.00  0.00    +0.000 C 
BRANCH  16  17
ATOM     17  C   UNL     1      -1.962  10.561  17.439  0.00  0.00    +0.000 C 
BRANCH  17  19
ATOM     18  C   UNL     1      -4.445  10.904  17.611  0.00  0.00    +0.000 C 
ATOM     19  C   UNL     1      -3.317  10.327  16.771  0.00  0.00    +0.000 C 
ENDBRANCH  17  19
ENDBRANCH  16  17
ENDBRANCH   1  16
BRANCH   9  20
ATOM     20  C   UNL     1       0.291  10.777  20.548  0.00  0.00    +0.000 C 
BRANCH  20  21
ATOM     21  C   UNL     1       0.887   9.582  19.840  0.00  0.00    +0.000 A 
ATOM     22  C   UNL     1       1.320   8.451  20.540  0.00  0.00    +0.000 A 
ATOM     23  C   UNL     1       2.039   7.439  19.887  0.00  0.00    +0.000 A 
ATOM     24  C   UNL     1       2.437   7.570  18.547  0.00  0.00    +0.000 A 
ATOM     25  C   UNL     1       1.916   8.672  17.846  0.00  0.00    +0.000 A 
ATOM     26  C   UNL     1       1.112   9.626  18.465  0.00  0.00    +0.000 A 
BRANCH  24  27
ATOM     27  C   UNL     1       3.382   6.635  17.876  0.00  0.00    +0.000 A 
ATOM     28  C   UNL     1       4.602   7.162  17.379  0.00  0.00    +0.000 A 
ATOM     29  C   UNL     1       5.570   6.373  16.752  0.00  0.00    +0.000 A 
ATOM     30  C   UNL     1       5.345   5.019  16.576  0.00  0.00    +0.000 A 
ATOM     31  C   UNL     1       4.159   4.459  17.045  0.00  0.00    +0.000 A 
ATOM     32  C   UNL     1       3.185   5.240  17.705  0.00  0.00    +0.000 A 
BRANCH  32  33
ATOM     33  C   UNL     1       1.999   4.454  18.149  0.00  0.00    +0.000 C 
ATOM     34  O   UNL     1       1.885   4.058  19.299  0.00  0.00    +0.000 OA
BRANCH  33  35
ATOM     35  O   UNL     1       1.020   4.300  17.238  0.00  0.00    +0.000 OA
ATOM     36  H   UNL     1       0.478   3.494  17.331  0.00  0.00    +0.000 HD
ENDBRANCH  33  35
ENDBRANCH  32  33
ENDBRANCH  24  27
ENDBRANCH  20  21
ENDBRANCH   9  20
TORSDOF 10
ENDMDL
MODEL 6
REMARK VINA RESULT:      -7.9      3.989      9.278
REMARK  Name = 
REMARK  11 active torsions:
REMARK  status: ('A' for Active; 'I' for Inactive)
REMARK    1  A    between atoms: C_1  and  C_2
REMARK    2  A    between atoms: C_2  and  C_3
REMARK    3  A    between atoms: C_3  and  C_4
REMARK    4  A    between atoms: C_4  and  C_5
REMARK    5  A    between atoms: C_9  and  S_10
REMARK    6  A    between atoms: S_10  and  N_11
REMARK    7  A    between atoms: N_17  and  C_18
REMARK    8  A    between atoms: C_18  and  C_19
REMARK    9  A    between atoms: C_22  and  C_23
REMARK   10  A    between atoms: C_28  and  C_29
REMARK   11  A    between atoms: C_29  and  O_31
REMARK                            x       y       z     vdW  Elec       q    Type
REMARK                         _______ _______ _______ _____ _____    ______ ____
ROOT
ATOM      1  C   UNL     1       1.023   9.224  20.958  0.00  0.00    +0.000 A 
ATOM      2  N   UNL     1       1.039   7.966  21.351  0.00  0.00    +0.000 NA
ATOM      3  C   UNL     1       1.581   7.248  20.323  0.00  0.00    +0.000 A 
ATOM      4  C   UNL     1       1.819   5.868  20.237  0.00  0.00    +0.000 A 
ATOM      5  C   UNL     1       2.390   5.372  19.058  0.00  0.00    +0.000 A 
ATOM      6  C   UNL     1       2.775   6.220  18.020  0.00  0.00    +0.000 A 
ATOM      7  C   UNL     1       2.567   7.599  18.117  0.00  0.00    +0.000 A 
ATOM      8  C   UNL     1       1.922   8.084  19.263  0.00  0.00    +0.000 A 
ATOM      9  N   UNL     1       1.452   9.330  19.648  0.00  0.00    +0.000 N 
ENDROOT
BRANCH   5  10
ATOM     10  S   UNL     1       2.650   3.624  18.890  0.00  0.00    +0.000 S 
ATOM     11  O   UNL     1       4.070   3.378  18.818  0.00  0.00    +0.000 OA
ATOM     12  O   UNL     1       1.781   2.942  19.811  0.00  0.00    +0.000 OA
BRANCH  10  13
ATOM     13  N   UNL     1       2.045   3.380  17.358  0.00  0.00    +0.000 NA
ATOM     14  H   UNL     1       1.109   3.723  17.171  0.00  0.00    +0.000 HD
ATOM     15  H   UNL     1       2.476   2.655  16.793  0.00  0.00    +0.000 HD
ENDBRANCH  10  13
ENDBRANCH   5  10
BRANCH   1  16
ATOM     16  C   UNL     1       0.575  10.378  21.802  0.00  0.00    +0.000 C 
BRANCH  16  17
ATOM     17  C   UNL     1      -0.517   9.962  22.791  0.00  0.00    +0.000 C 
BRANCH  17  19
ATOM     18  C   UNL     1      -0.880  12.441  22.610  0.00  0.00    +0.000 C 
ATOM     19  C   UNL     1      -1.454  11.125  23.109  0.00  0.00    +0.000 C 
ENDBRANCH  17  19
ENDBRANCH  16  17
ENDBRANCH   1  16
BRANCH   9  20
ATOM     20  C   UNL     1       1.367  10.520  18.802  0.00  0.00    +0.000 C 
BRANCH  20  21
ATOM     21  C   UNL     1      -0.070  10.937  18.592  0.00  0.00    +0.000 A 
ATOM     22  C   UNL     1      -0.524  12.214  18.935  0.00  0.00    +0.000 A 
ATOM     23  C   UNL     1      -1.894  12.516  18.908  0.00  0.00    +0.000 A 
ATOM     24  C   UNL     1      -2.858  11.530  18.641  0.00  0.00    +0.000 A 
ATOM     25  C   UNL     1      -2.371  10.281  18.215  0.00  0.00    +0.000 A 
ATOM     26  C   UNL     1      -1.007  10.009  18.138  0.00  0.00    +0.000 A 
BRANCH  24  27
ATOM     27  C   UNL     1      -4.321  11.743  18.815  0.00  0.00    +0.000 A 
ATOM     28  C   UNL     1      -5.191  11.247  17.809  0.00  0.00    +0.000 A 
ATOM     29  C   UNL     1      -6.580  11.370  17.879  0.00  0.00    +0.000 A 
ATOM     30  C   UNL     1      -7.159  12.019  18.956  0.00  0.00    +0.000 A 
ATOM     31  C   UNL     1      -6.344  12.525  19.965  0.00  0.00    +0.000 A 
ATOM     32  C   UNL     1      -4.939  12.382  19.920  0.00  0.00    +0.000 A 
BRANCH  32  33
ATOM     33  C   UNL     1      -4.248  12.970  21.102  0.00  0.00    +0.000 C 
ATOM     34  O   UNL     1      -3.631  14.022  21.027  0.00  0.00    +0.000 OA
BRANCH  33  35
ATOM     35  O   UNL     1      -4.435  12.330  22.272  0.00  0.00    +0.000 OA
ATOM     36  H   UNL     1      -3.742  11.690  22.520  0.00  0.00    +0.000 HD
ENDBRANCH  33  35
ENDBRANCH  32  33
ENDBRANCH  24  27
ENDBRANCH  20  21
ENDBRANCH   9  20
TORSDOF 10
ENDMDL
MODEL 7
REMARK VINA RESULT:      -7.9      4.542      9.054
REMARK  Name = 
REMARK  11 active torsions:
REMARK  status: ('A' for Active; 'I' for Inactive)
REMARK    1  A    between atoms: C_1  and  C_2
REMARK    2  A    between atoms: C_2  and  C_3
REMARK    3  A    between atoms: C_3  and  C_4
REMARK    4  A    between atoms: C_4  and  C_5
REMARK    5  A    between atoms: C_9  and  S_10
REMARK    6  A    between atoms: S_10  and  N_11
REMARK    7  A    between atoms: N_17  and  C_18
REMARK    8  A    between atoms: C_18  and  C_19
REMARK    9  A    between atoms: C_22  and  C_23
REMARK   10  A    between atoms: C_28  and  C_29
REMARK   11  A    between atoms: C_29  and  O_31
REMARK                            x       y       z     vdW  Elec       q    Type
REMARK                         _______ _______ _______ _____ _____    ______ ____
ROOT
ATOM      1  C   UNL     1       1.917   4.336  18.861  0.00  0.00    +0.000 A 
ATOM      2  N   UNL     1       2.329   3.857  17.704  0.00  0.00    +0.000 NA
ATOM      3  C   UNL     1       3.547   4.428  17.463  0.00  0.00    +0.000 A 
ATOM      4  C   UNL     1       4.404   4.251  16.366  0.00  0.00    +0.000 A 
ATOM      5  C   UNL     1       5.610   4.963  16.354  0.00  0.00    +0.000 A 
ATOM      6  C   UNL     1       5.989   5.775  17.422  0.00  0.00    +0.000 A 
ATOM      7  C   UNL     1       5.150   5.928  18.529  0.00  0.00    +0.000 A 
ATOM      8  C   UNL     1       3.908   5.279  18.503  0.00  0.00    +0.000 A 
ATOM      9  N   UNL     1       2.799   5.290  19.335  0.00  0.00    +0.000 N 
ENDROOT
BRANCH   5  10
ATOM     10  S   UNL     1       6.693   4.811  14.955  0.00  0.00    +0.000 S 
ATOM     11  O   UNL     1       6.346   5.830  13.994  0.00  0.00    +0.000 OA
ATOM     12  O   UNL     1       8.034   4.609  15.436  0.00  0.00    +0.000 OA
BRANCH  10  13
ATOM     13  N   UNL     1       6.164   3.362  14.328  0.00  0.00    +0.000 NA
ATOM     14  H   UNL     1       6.173   2.559  14.947  0.00  0.00    +0.000 HD
ATOM     15  H   UNL     1       6.156   3.263  13.317  0.00  0.00    +0.000 HD
ENDBRANCH  10  13
ENDBRANCH   5  10
BRANCH   1  16
ATOM     16  C   UNL     1       0.655   3.925  19.556  0.00  0.00    +0.000 C 
BRANCH  16  17
ATOM     17  C   UNL     1       0.827   2.599  20.300  0.00  0.00    +0.000 C 
BRANCH  17  19
ATOM     18  C   UNL     1       3.028   2.368  21.489  0.00  0.00    +0.000 C 
ATOM     19  C   UNL     1       1.574   2.792  21.619  0.00  0.00    +0.000 C 
ENDBRANCH  17  19
ENDBRANCH  16  17
ENDBRANCH   1  16
BRANCH   9  20
ATOM     20  C   UNL     1       2.576   6.191  20.465  0.00  0.00    +0.000 C 
BRANCH  20  21
ATOM     21  C   UNL     1       1.909   7.470  20.017  0.00  0.00    +0.000 A 
ATOM     22  C   UNL     1       2.124   8.007  18.744  0.00  0.00    +0.000 A 
ATOM     23  C   UNL     1       1.648   9.286  18.418  0.00  0.00    +0.000 A 
ATOM     24  C   UNL     1       1.035  10.107  19.378  0.00  0.00    +0.000 A 
ATOM     25  C   UNL     1       0.754   9.512  20.621  0.00  0.00    +0.000 A 
ATOM     26  C   UNL     1       1.132   8.203  20.913  0.00  0.00    +0.000 A 
BRANCH  24  27
ATOM     27  C   UNL     1       0.713  11.542  19.146  0.00  0.00    +0.000 A 
ATOM     28  C   UNL     1       1.681  12.511  19.517  0.00  0.00    +0.000 A 
ATOM     29  C   UNL     1       1.494  13.882  19.324  0.00  0.00    +0.000 A 
ATOM     30  C   UNL     1       0.313  14.344  18.770  0.00  0.00    +0.000 A 
ATOM     31  C   UNL     1      -0.667  13.429  18.395  0.00  0.00    +0.000 A 
ATOM     32  C   UNL     1      -0.479  12.039  18.558  0.00  0.00    +0.000 A 
BRANCH  32  33
ATOM     33  C   UNL     1      -1.632  11.227  18.077  0.00  0.00    +0.000 C 
ATOM     34  O   UNL     1      -2.713  11.246  18.646  0.00  0.00    +0.000 OA
BRANCH  33  35
ATOM     35  O   UNL     1      -1.442  10.561  16.922  0.00  0.00    +0.000 OA
ATOM     36  H   UNL     1      -0.596  10.733  16.468  0.00  0.00    +0.000 HD
ENDBRANCH  33  35
ENDBRANCH  32  33
ENDBRANCH  24  27
ENDBRANCH  20  21
ENDBRANCH   9  20
TORSDOF 10
ENDMDL
MODEL 8
REMARK VINA RESULT:      -7.9      4.143      9.145
REMARK  Name = 
REMARK  11 active torsions:
REMARK  status: ('A' for Active; 'I' for Inactive)
REMARK    1  A    between atoms: C_1  and  C_2
REMARK    2  A    between atoms: C_2  and  C_3
REMARK    3  A    between atoms: C_3  and  C_4
REMARK    4  A    between atoms: C_4  and  C_5
REMARK    5  A    between atoms: C_9  and  S_10
REMARK    6  A    between atoms: S_10  and  N_11
REMARK    7  A    between atoms: N_17  and  C_18
REMARK    8  A    between atoms: C_18  and  C_19
REMARK    9  A    between atoms: C_22  and  C_23
REMARK   10  A    between atoms: C_28  and  C_29
REMARK   11  A    between atoms: C_29  and  O_31
REMARK                            x       y       z     vdW  Elec       q    Type
REMARK                         _______ _______ _______ _____ _____    ______ ____
ROOT
ATOM      1  C   UNL     1       1.555   8.186  20.661  0.00  0.00    +0.000 A 
ATOM      2  N   UNL     1       1.401   6.906  20.939  0.00  0.00    +0.000 NA
ATOM      3  C   UNL     1       2.024   6.217  19.936  0.00  0.00    +0.000 A 
ATOM      4  C   UNL     1       2.147   4.831  19.762  0.00  0.00    +0.000 A 
ATOM      5  C   UNL     1       2.840   4.370  18.634  0.00  0.00    +0.000 A 
ATOM      6  C   UNL     1       3.449   5.251  17.741  0.00  0.00    +0.000 A 
ATOM      7  C   UNL     1       3.352   6.632  17.931  0.00  0.00    +0.000 A 
ATOM      8  C   UNL     1       2.590   7.092  19.014  0.00  0.00    +0.000 A 
ATOM      9  N   UNL     1       2.182   8.347  19.439  0.00  0.00    +0.000 N 
ENDROOT
BRANCH   5  10
ATOM     10  S   UNL     1       2.966   2.622  18.348  0.00  0.00    +0.000 S 
ATOM     11  O   UNL     1       3.225   1.970  19.609  0.00  0.00    +0.000 OA
ATOM     12  O   UNL     1       1.902   2.227  17.464  0.00  0.00    +0.000 OA
BRANCH  10  13
ATOM     13  N   UNL     1       4.384   2.565  17.479  0.00  0.00    +0.000 NA
ATOM     14  H   UNL     1       5.070   3.288  17.666  0.00  0.00    +0.000 HD
ATOM     15  H   UNL     1       4.384   2.033  16.615  0.00  0.00    +0.000 HD
ENDBRANCH  10  13
ENDBRANCH   5  10
BRANCH   1  16
ATOM     16  C   UNL     1       1.092   9.311  21.535  0.00  0.00    +0.000 C 
BRANCH  16  17
ATOM     17  C   UNL     1      -0.395   9.186  21.874  0.00  0.00    +0.000 C 
BRANCH  17  19
ATOM     18  C   UNL     1      -1.088  11.482  22.621  0.00  0.00    +0.000 C 
ATOM     19  C   UNL     1      -0.772  10.064  23.066  0.00  0.00    +0.000 C 
ENDBRANCH  17  19
ENDBRANCH  16  17
ENDBRANCH   1  16
BRANCH   9  20
ATOM     20  C   UNL     1       2.330   9.600  18.700  0.00  0.00    +0.000 C 
BRANCH  20  21
ATOM     21  C   UNL     1       0.987  10.247  18.453  0.00  0.00    +0.000 A 
ATOM     22  C   UNL     1       0.690  11.530  18.925  0.00  0.00    +0.000 A 
ATOM     23  C   UNL     1      -0.617  12.034  18.849  0.00  0.00    +0.000 A 
ATOM     24  C   UNL     1      -1.685  11.239  18.399  0.00  0.00    +0.000 A 
ATOM     25  C   UNL     1      -1.344   9.989  17.851  0.00  0.00    +0.000 A 
ATOM     26  C   UNL     1      -0.030   9.528  17.827  0.00  0.00    +0.000 A 
BRANCH  24  27
ATOM     27  C   UNL     1      -3.113  11.646  18.504  0.00  0.00    +0.000 A 
ATOM     28  C   UNL     1      -3.547  12.248  19.715  0.00  0.00    +0.000 A 
ATOM     29  C   UNL     1      -4.857  12.688  19.916  0.00  0.00    +0.000 A 
ATOM     30  C   UNL     1      -5.799  12.523  18.915  0.00  0.00    +0.000 A 
ATOM     31  C   UNL     1      -5.419  11.935  17.712  0.00  0.00    +0.000 A 
ATOM     32  C   UNL     1      -4.090  11.511  17.486  0.00  0.00    +0.000 A 
BRANCH  32  33
ATOM     33  C   UNL     1      -3.880  10.927  16.131  0.00  0.00    +0.000 C 
ATOM     34  O   UNL     1      -4.196   9.775  15.871  0.00  0.00    +0.000 OA
BRANCH  33  35
ATOM     35  O   UNL     1      -3.424  11.774  15.189  0.00  0.00    +0.000 OA
ATOM     36  H   UNL     1      -3.523  11.475  14.266  0.00  0.00    +0.000 HD
ENDBRANCH  33  35
ENDBRANCH  32  33
ENDBRANCH  24  27
ENDBRANCH  20  21
ENDBRANCH   9  20
TORSDOF 10
ENDMDL
MODEL 9
REMARK VINA RESULT:      -7.9      2.180      3.204
REMARK  Name = 
REMARK  11 active torsions:
REMARK  status: ('A' for Active; 'I' for Inactive)
REMARK    1  A    between atoms: C_1  and  C_2
REMARK    2  A    between atoms: C_2  and  C_3
REMARK    3  A    between atoms: C_3  and  C_4
REMARK    4  A    between atoms: C_4  and  C_5
REMARK    5  A    between atoms: C_9  and  S_10
REMARK    6  A    between atoms: S_10  and  N_11
REMARK    7  A    between atoms: N_17  and  C_18
REMARK    8  A    between atoms: C_18  and  C_19
REMARK    9  A    between atoms: C_22  and  C_23
REMARK   10  A    between atoms: C_28  and  C_29
REMARK   11  A    between atoms: C_29  and  O_31
REMARK                            x       y       z     vdW  Elec       q    Type
REMARK                         _______ _______ _______ _____ _____    ______ ____
ROOT
ATOM      1  C   UNL     1      -0.113  11.983  21.567  0.00  0.00    +0.000 A 
ATOM      2  N   UNL     1       0.633  13.037  21.835  0.00  0.00    +0.000 NA
ATOM      3  C   UNL     1       1.269  13.365  20.671  0.00  0.00    +0.000 A 
ATOM      4  C   UNL     1       2.173  14.408  20.422  0.00  0.00    +0.000 A 
ATOM      5  C   UNL     1       2.693  14.530  19.127  0.00  0.00    +0.000 A 
ATOM      6  C   UNL     1       2.283  13.690  18.093  0.00  0.00    +0.000 A 
ATOM      7  C   UNL     1       1.359  12.670  18.333  0.00  0.00    +0.000 A 
ATOM      8  C   UNL     1       0.901  12.497  19.647  0.00  0.00    +0.000 A 
ATOM      9  N   UNL     1       0.101  11.553  20.271  0.00  0.00    +0.000 N 
ENDROOT
BRANCH   5  10
ATOM     10  S   UNL     1       3.886  15.801  18.789  0.00  0.00    +0.000 S 
ATOM     11  O   UNL     1       3.488  16.495  17.588  0.00  0.00    +0.000 OA
ATOM     12  O   UNL     1       4.194  16.478  20.021  0.00  0.00    +0.000 OA
BRANCH  10  13
ATOM     13  N   UNL     1       5.206  14.870  18.387  0.00  0.00    +0.000 NA
ATOM     14  H   UNL     1       5.118  14.268  17.576  0.00  0.00    +0.000 HD
ATOM     15  H   UNL     1       5.899  14.702  19.110  0.00  0.00    +0.000 HD
ENDBRANCH  10  13
ENDBRANCH   5  10
BRANCH   1  16
ATOM     16  C   UNL     1      -1.043  11.325  22.540  0.00  0.00    +0.000 C 
BRANCH  16  17
ATOM     17  C   UNL     1      -1.789  12.355  23.392  0.00  0.00    +0.000 C 
BRANCH  17  19
ATOM     18  C   UNL     1      -4.095  12.460  24.383  0.00  0.00    +0.000 C 
ATOM     19  C   UNL     1      -3.288  12.340  23.100  0.00  0.00    +0.000 C 
ENDBRANCH  17  19
ENDBRANCH  16  17
ENDBRANCH   1  16
BRANCH   9  20
ATOM     20  C   UNL     1      -0.373  10.300  19.684  0.00  0.00    +0.000 C 
BRANCH  20  21
ATOM     21  C   UNL     1       0.784   9.422  19.266  0.00  0.00    +0.000 A 
ATOM     22  C   UNL     1       1.246   9.392  17.947  0.00  0.00    +0.000 A 
ATOM     23  C   UNL     1       2.190   8.436  17.542  0.00  0.00    +0.000 A 
ATOM     24  C   UNL     1       2.624   7.421  18.411  0.00  0.00    +0.000 A 
ATOM     25  C   UNL     1       2.212   7.528  19.751  0.00  0.00    +0.000 A 
ATOM     26  C   UNL     1       1.356   8.539  20.181  0.00  0.00    +0.000 A 
BRANCH  24  27
ATOM     27  C   UNL     1       3.450   6.262  17.972  0.00  0.00    +0.000 A 
ATOM     28  C   UNL     1       4.822   6.490  17.692  0.00  0.00    +0.000 A 
ATOM     29  C   UNL     1       5.694   5.473  17.295  0.00  0.00    +0.000 A 
ATOM     30  C   UNL     1       5.219   4.182  17.139  0.00  0.00    +0.000 A 
ATOM     31  C   UNL     1       3.878   3.913  17.399  0.00  0.00    +0.000 A 
ATOM     32  C   UNL     1       2.993   4.927  17.828  0.00  0.00    +0.000 A 
BRANCH  32  33
ATOM     33  C   UNL     1       1.608   4.435  18.074  0.00  0.00    +0.000 C 
ATOM     34  O   UNL     1       0.833   4.211  17.155  0.00  0.00    +0.000 OA
BRANCH  33  35
ATOM     35  O   UNL     1       1.301   4.153  19.354  0.00  0.00    +0.000 OA
ATOM     36  H   UNL     1       0.388   4.361  19.627  0.00  0.00    +0.000 HD
ENDBRANCH  33  35
ENDBRANCH  32  33
ENDBRANCH  24  27
ENDBRANCH  20  21
ENDBRANCH   9  20
TORSDOF 10
ENDMDL
