MODEL 1
REMARK VINA RESULT:      -7.9      0.000      0.000
REMARK  Name = 
REMARK  5 active torsions:
REMARK  status: ('A' for Active; 'I' for Inactive)
REMARK    1  A    between atoms: C_2  and  C_3
REMARK    2  A    between atoms: C_3  and  C_4
REMARK    3  A    between atoms: C_4  and  C_5
REMARK    4  A    between atoms: C_16  and  C_17
REMARK    5  A    between atoms: C_17  and  N_18
REMARK                            x       y       z     vdW  Elec       q    Type
REMARK                         _______ _______ _______ _____ _____    ______ ____
ROOT
ATOM      1  O   UNL     1       4.158   7.150  16.297  0.00  0.00    +0.000 OA
ATOM      2  C   UNL     1       4.267   6.539  17.360  0.00  0.00    +0.000 C 
ATOM      3  N   UNL     1       5.370   5.730  17.629  0.00  0.00    +0.000 N 
ATOM      4  C   UNL     1       5.558   4.942  18.852  0.00  0.00    +0.000 C 
ATOM      5  C   UNL     1       6.709   5.488  19.695  0.00  0.00    +0.000 C 
ATOM      6  C   UNL     1       7.977   5.710  18.871  0.00  0.00    +0.000 C 
ATOM      7  C   UNL     1       7.674   6.522  17.612  0.00  0.00    +0.000 C 
ATOM      8  C   UNL     1       6.572   5.863  16.761  0.00  0.00    +0.000 C 
ENDROOT
BRANCH   2   9
ATOM      9  C   UNL     1       3.203   6.651  18.443  0.00  0.00    +0.000 C 
BRANCH   9  10
ATOM     10  C   UNL     1       2.000   5.754  18.144  0.00  0.00    +0.000 C 
BRANCH  10  11
ATOM     11  C   UNL     1       1.855   4.642  19.156  0.00  0.00    +0.000 A 
ATOM     12  C   UNL     1       1.371   3.386  18.768  0.00  0.00    +0.000 A 
ATOM     13  C   UNL     1       1.239   2.358  19.704  0.00  0.00    +0.000 A 
ATOM     14  C   UNL     1       1.583   2.578  21.036  0.00  0.00    +0.000 A 
ATOM     15  C   UNL     1       2.058   3.826  21.434  0.00  0.00    +0.000 A 
ATOM     16  C   UNL     1       2.192   4.855  20.500  0.00  0.00    +0.000 A 
ENDBRANCH  10  11
ENDBRANCH   9  10
ENDBRANCH   2   9
BRANCH   8  17
ATOM     17  C   UNL     1       6.971   4.523  16.112  0.00  0.00    +0.000 C 
BRANCH  17  18
ATOM     18  N   UNL     1       7.009   4.567  14.663  0.00  0.00    +0.000 N 
ATOM     19  C   UNL     1       6.305   3.783  13.795  0.00  0.00    +0.000 A 
ATOM     20  C   UNL     1       6.685   4.174  12.533  0.00  0.00    +0.000 A 
ATOM     21  C   UNL     1       7.635   5.192  12.744  0.00  0.00    +0.000 A 
ATOM     22  N   UNL     1       7.854   5.416  14.042  0.00  0.00    +0.000 NA
ENDBRANCH  17  18
ENDBRANCH   8  17
TORSDOF 5
ENDMDL
MODEL 2
REMARK VINA RESULT:      -7.4      0.506      1.355
REMARK  Name = 
REMARK  5 active torsions:
REMARK  status: ('A' for Active; 'I' for Inactive)
REMARK    1  A    between atoms: C_2  and  C_3
REMARK    2  A    between atoms: C_3  and  C_4
REMARK    3  A    between atoms: C_4  and  C_5
REMARK    4  A    between atoms: C_16  and  C_17
REMARK    5  A    between atoms: C_17  and  N_18
REMARK                            x       y       z     vdW  Elec       q    Type
REMARK                         _______ _______ _______ _____ _____    ______ ____
ROOT
ATOM      1  O   UNL     1       4.369   7.078  16.099  0.00  0.00    +0.000 OA
ATOM      2  C   UNL     1       4.409   6.451  17.158  0.00  0.00    +0.000 C 
ATOM      3  N   UNL     1       5.533   5.715  17.530  0.00  0.00    +0.000 N 
ATOM      4  C   UNL     1       5.645   4.913  18.754  0.00  0.00    +0.000 C 
ATOM      5  C   UNL     1       6.659   5.517  19.724  0.00  0.00    +0.000 C 
ATOM      6  C   UNL     1       7.988   5.846  19.045  0.00  0.00    +0.000 C 
ATOM      7  C   UNL     1       7.762   6.666  17.773  0.00  0.00    +0.000 C 
ATOM      8  C   UNL     1       6.807   5.952  16.798  0.00  0.00    +0.000 C 
ENDROOT
BRANCH   2   9
ATOM      9  C   UNL     1       3.231   6.463  18.122  0.00  0.00    +0.000 C 
BRANCH   9  10
ATOM     10  C   UNL     1       2.226   5.356  17.795  0.00  0.00    +0.000 C 
BRANCH  10  11
ATOM     11  C   UNL     1       1.932   4.484  18.993  0.00  0.00    +0.000 A 
ATOM     12  C   UNL     1       2.383   4.851  20.268  0.00  0.00    +0.000 A 
ATOM     13  C   UNL     1       2.110   4.045  21.375  0.00  0.00    +0.000 A 
ATOM     14  C   UNL     1       1.390   2.863  21.217  0.00  0.00    +0.000 A 
ATOM     15  C   UNL     1       0.943   2.485  19.952  0.00  0.00    +0.000 A 
ATOM     16  C   UNL     1       1.214   3.289  18.844  0.00  0.00    +0.000 A 
ENDBRANCH  10  11
ENDBRANCH   9  10
ENDBRANCH   2   9
BRANCH   8  17
ATOM     17  C   UNL     1       7.367   4.659  16.174  0.00  0.00    +0.000 C 
BRANCH  17  18
ATOM     18  N   UNL     1       6.961   4.454  14.798  0.00  0.00    +0.000 N 
ATOM     19  C   UNL     1       7.557   4.959  13.677  0.00  0.00    +0.000 A 
ATOM     20  C   UNL     1       6.809   4.512  12.613  0.00  0.00    +0.000 A 
ATOM     21  C   UNL     1       5.773   3.756  13.195  0.00  0.00    +0.000 A 
ATOM     22  N   UNL     1       5.848   3.740  14.528  0.00  0.00    +0.000 NA
ENDBRANCH  17  18
ENDBRANCH   8  17
TORSDOF 5
ENDMDL
MODEL 3
REMARK VINA RESULT:      -7.2      2.253      7.207
REMARK  Name = 
REMARK  5 active torsions:
REMARK  status: ('A' for Active; 'I' for Inactive)
REMARK    1  A    between atoms: C_2  and  C_3
REMARK    2  A    between atoms: C_3  and  C_4
REMARK    3  A    between atoms: C_4  and  C_5
REMARK    4  A    between atoms: C_16  and  C_17
REMARK    5  A    between atoms: C_17  and  N_18
REMARK                            x       y       z     vdW  Elec       q    Type
REMARK                         _______ _______ _______ _____ _____    ______ ____
ROOT
ATOM      1  O   UNL     1       4.738   6.508  16.600  0.00  0.00    +0.000 OA
ATOM      2  C   UNL     1       4.910   5.427  17.163  0.00  0.00    +0.000 C 
ATOM      3  N   UNL     1       4.052   4.983  18.169  0.00  0.00    +0.000 N 
ATOM      4  C   UNL     1       4.208   3.727  18.912  0.00  0.00    +0.000 C 
ATOM      5  C   UNL     1       3.091   2.740  18.576  0.00  0.00    +0.000 C 
ATOM      6  C   UNL     1       1.705   3.377  18.669  0.00  0.00    +0.000 C 
ATOM      7  C   UNL     1       1.652   4.685  17.879  0.00  0.00    +0.000 C 
ATOM      8  C   UNL     1       2.744   5.671  18.337  0.00  0.00    +0.000 C 
ENDROOT
BRANCH   2   9
ATOM      9  C   UNL     1       6.061   4.512  16.772  0.00  0.00    +0.000 C 
BRANCH   9  10
ATOM     10  C   UNL     1       7.059   5.225  15.856  0.00  0.00    +0.000 C 
BRANCH  10  11
ATOM     11  C   UNL     1       6.948   4.760  14.423  0.00  0.00    +0.000 A 
ATOM     12  C   UNL     1       7.779   5.301  13.434  0.00  0.00    +0.000 A 
ATOM     13  C   UNL     1       7.677   4.869  12.110  0.00  0.00    +0.000 A 
ATOM     14  C   UNL     1       6.741   3.898  11.762  0.00  0.00    +0.000 A 
ATOM     15  C   UNL     1       5.905   3.358  12.738  0.00  0.00    +0.000 A 
ATOM     16  C   UNL     1       6.006   3.787  14.062  0.00  0.00    +0.000 A 
ENDBRANCH  10  11
ENDBRANCH   9  10
ENDBRANCH   2   9
BRANCH   8  17
ATOM     17  C   UNL     1       2.558   6.224  19.764  0.00  0.00    +0.000 C 
BRANCH  17  18
ATOM     18  N   UNL     1       1.961   7.545  19.802  0.00  0.00    +0.000 N 
ATOM     19  C   UNL     1       1.329   8.135  20.859  0.00  0.00    +0.000 A 
ATOM     20  C   UNL     1       0.916   9.369  20.416  0.00  0.00    +0.000 A 
ATOM     21  C   UNL     1       1.333   9.426  19.073  0.00  0.00    +0.000 A 
ATOM     22  N   UNL     1       1.947   8.306  18.688  0.00  0.00    +0.000 NA
ENDBRANCH  17  18
ENDBRANCH   8  17
TORSDOF 5
ENDMDL
MODEL 4
REMARK VINA RESULT:      -7.2      2.205      7.083
REMARK  Name = 
REMARK  5 active torsions:
REMARK  status: ('A' for Active; 'I' for Inactive)
REMARK    1  A    between atoms: C_2  and  C_3
REMARK    2  A    between atoms: C_3  and  C_4
REMARK    3  A    between atoms: C_4  and  C_5
REMARK    4  A    between atoms: C_16  and  C_17
REMARK    5  A    between atoms: C_17  and  N_18
REMARK                            x       y       z     vdW  Elec       q    Type
REMARK                         _______ _______ _______ _____ _____    ______ ____
ROOT
ATOM      1  O   UNL     1       4.685   6.425  16.290  0.00  0.00    +0.000 OA
ATOM      2  C   UNL     1       4.900   5.472  17.039  0.00  0.00    +0.000 C 
ATOM      3  N   UNL     1       4.056   5.179  18.109  0.00  0.00    +0.000 N 
ATOM      4  C   UNL     1       4.262   4.087  19.067  0.00  0.00    +0.000 C 
ATOM      5  C   UNL     1       3.194   3.005  18.916  0.00  0.00    +0.000 C 
ATOM      6  C   UNL     1       1.779   3.584  18.893  0.00  0.00    +0.000 C 
ATOM      7  C   UNL     1       1.674   4.725  17.880  0.00  0.00    +0.000 C 
ATOM      8  C   UNL     1       2.717   5.826  18.151  0.00  0.00    +0.000 C 
ENDROOT
BRANCH   2   9
ATOM      9  C   UNL     1       6.095   4.555  16.820  0.00  0.00    +0.000 C 
BRANCH   9  10
ATOM     10  C   UNL     1       7.143   5.206  15.914  0.00  0.00    +0.000 C 
BRANCH  10  11
ATOM     11  C   UNL     1       7.001   4.769  14.475  0.00  0.00    +0.000 A 
ATOM     12  C   UNL     1       6.078   3.776  14.121  0.00  0.00    +0.000 A 
ATOM     13  C   UNL     1       5.945   3.374  12.791  0.00  0.00    +0.000 A 
ATOM     14  C   UNL     1       6.739   3.955  11.804  0.00  0.00    +0.000 A 
ATOM     15  C   UNL     1       7.666   4.938  12.146  0.00  0.00    +0.000 A 
ATOM     16  C   UNL     1       7.799   5.342  13.475  0.00  0.00    +0.000 A 
ENDBRANCH  10  11
ENDBRANCH   9  10
ENDBRANCH   2   9
BRANCH   8  17
ATOM     17  C   UNL     1       2.495   6.619  19.454  0.00  0.00    +0.000 C 
BRANCH  17  18
ATOM     18  N   UNL     1       1.957   7.948  19.242  0.00  0.00    +0.000 N 
ATOM     19  C   UNL     1       2.041   8.701  18.107  0.00  0.00    +0.000 A 
ATOM     20  C   UNL     1       1.405   9.888  18.388  0.00  0.00    +0.000 A 
ATOM     21  C   UNL     1       0.983   9.760  19.725  0.00  0.00    +0.000 A 
ATOM     22  N   UNL     1       1.340   8.590  20.257  0.00  0.00    +0.000 NA
ENDBRANCH  17  18
ENDBRANCH   8  17
TORSDOF 5
ENDMDL
MODEL 5
REMARK VINA RESULT:      -7.2      1.939      6.481
REMARK  Name = 
REMARK  5 active torsions:
REMARK  status: ('A' for Active; 'I' for Inactive)
REMARK    1  A    between atoms: C_2  and  C_3
REMARK    2  A    between atoms: C_3  and  C_4
REMARK    3  A    between atoms: C_4  and  C_5
REMARK    4  A    between atoms: C_16  and  C_17
REMARK    5  A    between atoms: C_17  and  N_18
REMARK                            x       y       z     vdW  Elec       q    Type
REMARK                         _______ _______ _______ _____ _____    ______ ____
ROOT
ATOM      1  O   UNL     1       5.828   3.332  15.853  0.00  0.00    +0.000 OA
ATOM      2  C   UNL     1       5.878   4.560  15.788  0.00  0.00    +0.000 C 
ATOM      3  N   UNL     1       5.993   5.348  16.933  0.00  0.00    +0.000 N 
ATOM      4  C   UNL     1       6.023   6.815  16.944  0.00  0.00    +0.000 C 
ATOM      5  C   UNL     1       7.393   7.341  17.368  0.00  0.00    +0.000 C 
ATOM      6  C   UNL     1       7.900   6.675  18.648  0.00  0.00    +0.000 C 
ATOM      7  C   UNL     1       7.811   5.152  18.542  0.00  0.00    +0.000 C 
ATOM      8  C   UNL     1       6.380   4.688  18.209  0.00  0.00    +0.000 C 
ENDROOT
BRANCH   2   9
ATOM      9  C   UNL     1       5.834   5.278  14.447  0.00  0.00    +0.000 C 
BRANCH   9  10
ATOM     10  C   UNL     1       6.958   4.809  13.521  0.00  0.00    +0.000 C 
BRANCH  10  11
ATOM     11  C   UNL     1       6.506   3.709  12.590  0.00  0.00    +0.000 A 
ATOM     12  C   UNL     1       5.143   3.521  12.320  0.00  0.00    +0.000 A 
ATOM     13  C   UNL     1       4.725   2.506  11.458  0.00  0.00    +0.000 A 
ATOM     14  C   UNL     1       5.664   1.666  10.862  0.00  0.00    +0.000 A 
ATOM     15  C   UNL     1       7.021   1.840  11.128  0.00  0.00    +0.000 A 
ATOM     16  C   UNL     1       7.441   2.855  11.990  0.00  0.00    +0.000 A 
ENDBRANCH  10  11
ENDBRANCH   9  10
ENDBRANCH   2   9
BRANCH   8  17
ATOM     17  C   UNL     1       5.345   4.929  19.325  0.00  0.00    +0.000 C 
BRANCH  17  18
ATOM     18  N   UNL     1       4.002   4.512  18.974  0.00  0.00    +0.000 N 
ATOM     19  C   UNL     1       3.580   3.246  18.684  0.00  0.00    +0.000 A 
ATOM     20  C   UNL     1       2.240   3.349  18.392  0.00  0.00    +0.000 A 
ATOM     21  C   UNL     1       1.949   4.720  18.519  0.00  0.00    +0.000 A 
ATOM     22  N   UNL     1       3.026   5.436  18.848  0.00  0.00    +0.000 NA
ENDBRANCH  17  18
ENDBRANCH   8  17
TORSDOF 5
ENDMDL
MODEL 6
REMARK VINA RESULT:      -7.2      1.882      6.539
REMARK  Name = 
REMARK  5 active torsions:
REMARK  status: ('A' for Active; 'I' for Inactive)
REMARK    1  A    between atoms: C_2  and  C_3
REMARK    2  A    between atoms: C_3  and  C_4
REMARK    3  A    between atoms: C_4  and  C_5
REMARK    4  A    between atoms: C_16  and  C_17
REMARK    5  A    between atoms: C_17  and  N_18
REMARK                            x       y       z     vdW  Elec       q    Type
REMARK                         _______ _______ _______ _____ _____    ______ ____
ROOT
ATOM      1  O   UNL     1       5.626   3.383  16.015  0.00  0.00    +0.000 OA
ATOM      2  C   UNL     1       5.745   4.604  15.908  0.00  0.00    +0.000 C 
ATOM      3  N   UNL     1       5.926   5.420  17.023  0.00  0.00    +0.000 N 
ATOM      4  C   UNL     1       6.039   6.883  16.985  0.00  0.00    +0.000 C 
ATOM      5  C   UNL     1       7.445   7.343  17.367  0.00  0.00    +0.000 C 
ATOM      6  C   UNL     1       7.938   6.692  18.659  0.00  0.00    +0.000 C 
ATOM      7  C   UNL     1       7.760   5.174  18.607  0.00  0.00    +0.000 C 
ATOM      8  C   UNL     1       6.300   4.782  18.314  0.00  0.00    +0.000 C 
ENDROOT
BRANCH   2   9
ATOM      9  C   UNL     1       5.716   5.279  14.545  0.00  0.00    +0.000 C 
BRANCH   9  10
ATOM     10  C   UNL     1       6.871   4.807  13.659  0.00  0.00    +0.000 C 
BRANCH  10  11
ATOM     11  C   UNL     1       6.441   3.735  12.686  0.00  0.00    +0.000 A 
ATOM     12  C   UNL     1       7.393   2.922  12.056  0.00  0.00    +0.000 A 
ATOM     13  C   UNL     1       6.994   1.930  11.158  0.00  0.00    +0.000 A 
ATOM     14  C   UNL     1       5.642   1.746  10.876  0.00  0.00    +0.000 A 
ATOM     15  C   UNL     1       4.688   2.554  11.491  0.00  0.00    +0.000 A 
ATOM     16  C   UNL     1       5.084   3.546  12.391  0.00  0.00    +0.000 A 
ENDBRANCH  10  11
ENDBRANCH   9  10
ENDBRANCH   2   9
BRANCH   8  17
ATOM     17  C   UNL     1       5.302   5.119  19.440  0.00  0.00    +0.000 C 
BRANCH  17  18
ATOM     18  N   UNL     1       3.965   4.607  19.205  0.00  0.00    +0.000 N 
ATOM     19  C   UNL     1       2.825   5.334  19.015  0.00  0.00    +0.000 A 
ATOM     20  C   UNL     1       1.812   4.419  18.854  0.00  0.00    +0.000 A 
ATOM     21  C   UNL     1       2.439   3.164  18.977  0.00  0.00    +0.000 A 
ATOM     22  N   UNL     1       3.747   3.276  19.217  0.00  0.00    +0.000 NA
ENDBRANCH  17  18
ENDBRANCH   8  17
TORSDOF 5
ENDMDL
MODEL 7
REMARK VINA RESULT:      -7.2      1.578      2.790
REMARK  Name = 
REMARK  5 active torsions:
REMARK  status: ('A' for Active; 'I' for Inactive)
REMARK    1  A    between atoms: C_2  and  C_3
REMARK    2  A    between atoms: C_3  and  C_4
REMARK    3  A    between atoms: C_4  and  C_5
REMARK    4  A    between atoms: C_16  and  C_17
REMARK    5  A    between atoms: C_17  and  N_18
REMARK                            x       y       z     vdW  Elec       q    Type
REMARK                         _______ _______ _______ _____ _____    ______ ____
ROOT
ATOM      1  O   UNL     1       2.785   2.908  16.469  0.00  0.00    +0.000 OA
ATOM      2  C   UNL     1       3.397   3.183  17.501  0.00  0.00    +0.000 C 
ATOM      3  N   UNL     1       4.641   3.811  17.468  0.00  0.00    +0.000 N 
ATOM      4  C   UNL     1       5.449   4.138  18.648  0.00  0.00    +0.000 C 
ATOM      5  C   UNL     1       5.542   5.649  18.858  0.00  0.00    +0.000 C 
ATOM      6  C   UNL     1       5.937   6.389  17.580  0.00  0.00    +0.000 C 
ATOM      7  C   UNL     1       5.051   5.966  16.409  0.00  0.00    +0.000 C 
ATOM      8  C   UNL     1       5.082   4.440  16.194  0.00  0.00    +0.000 C 
ENDROOT
BRANCH   2   9
ATOM      9  C   UNL     1       2.812   2.863  18.869  0.00  0.00    +0.000 C 
BRANCH   9  10
ATOM     10  C   UNL     1       1.499   3.612  19.108  0.00  0.00    +0.000 C 
BRANCH  10  11
ATOM     11  C   UNL     1       1.716   5.097  19.283  0.00  0.00    +0.000 A 
ATOM     12  C   UNL     1       1.643   5.681  20.555  0.00  0.00    +0.000 A 
ATOM     13  C   UNL     1       1.845   7.052  20.717  0.00  0.00    +0.000 A 
ATOM     14  C   UNL     1       2.115   7.854  19.610  0.00  0.00    +0.000 A 
ATOM     15  C   UNL     1       2.183   7.284  18.339  0.00  0.00    +0.000 A 
ATOM     16  C   UNL     1       1.982   5.912  18.175  0.00  0.00    +0.000 A 
ENDBRANCH  10  11
ENDBRANCH   9  10
ENDBRANCH   2   9
BRANCH   8  17
ATOM     17  C   UNL     1       6.434   3.883  15.708  0.00  0.00    +0.000 C 
BRANCH  17  18
ATOM     18  N   UNL     1       6.744   4.224  14.333  0.00  0.00    +0.000 N 
ATOM     19  C   UNL     1       6.257   3.627  13.205  0.00  0.00    +0.000 A 
ATOM     20  C   UNL     1       6.849   4.274  12.146  0.00  0.00    +0.000 A 
ATOM     21  C   UNL     1       7.688   5.237  12.737  0.00  0.00    +0.000 A 
ATOM     22  N   UNL     1       7.646   5.192  14.071  0.00  0.00    +0.000 NA
ENDBRANCH  17  18
ENDBRANCH   8  17
TORSDOF 5
ENDMDL
MODEL 8
REMARK VINA RESULT:      -7.1      2.251      7.149
REMARK  Name = 
REMARK  5 active torsions:
REMARK  status: ('A' for Active; 'I' for Inactive)
REMARK    1  A    between atoms: C_2  and  C_3
REMARK    2  A    between atoms: C_3  and  C_4
REMARK    3  A    between atoms: C_4  and  C_5
REMARK    4  A    between atoms: C_16  and  C_17
REMARK    5  A    between atoms: C_17  and  N_18
REMARK                            x       y       z     vdW  Elec       q    Type
REMARK                         _______ _______ _______ _____ _____    ______ ____
ROOT
ATOM      1  O   UNL     1       4.403   6.227  16.749  0.00  0.00    +0.000 OA
ATOM      2  C   UNL     1       4.693   5.188  17.342  0.00  0.00    +0.000 C 
ATOM      3  N   UNL     1       3.915   4.707  18.394  0.00  0.00    +0.000 N 
ATOM      4  C   UNL     1       4.211   3.499  19.174  0.00  0.00    +0.000 C 
ATOM      5  C   UNL     1       3.180   2.402  18.914  0.00  0.00    +0.000 C 
ATOM      6  C   UNL     1       1.744   2.913  19.036  0.00  0.00    +0.000 C 
ATOM      7  C   UNL     1       1.544   4.180  18.204  0.00  0.00    +0.000 C 
ATOM      8  C   UNL     1       2.554   5.278  18.587  0.00  0.00    +0.000 C 
ENDROOT
BRANCH   2   9
ATOM      9  C   UNL     1       5.910   4.368  16.941  0.00  0.00    +0.000 C 
BRANCH   9  10
ATOM     10  C   UNL     1       6.889   5.191  16.100  0.00  0.00    +0.000 C 
BRANCH  10  11
ATOM     11  C   UNL     1       6.863   4.792  14.643  0.00  0.00    +0.000 A 
ATOM     12  C   UNL     1       5.960   3.822  14.188  0.00  0.00    +0.000 A 
ATOM     13  C   UNL     1       5.935   3.454  12.842  0.00  0.00    +0.000 A 
ATOM     14  C   UNL     1       6.815   4.048  11.940  0.00  0.00    +0.000 A 
ATOM     15  C   UNL     1       7.722   5.008  12.383  0.00  0.00    +0.000 A 
ATOM     16  C   UNL     1       7.749   5.378  13.729  0.00  0.00    +0.000 A 
ENDBRANCH  10  11
ENDBRANCH   9  10
ENDBRANCH   2   9
BRANCH   8  17
ATOM     17  C   UNL     1       2.366   5.866  19.999  0.00  0.00    +0.000 C 
BRANCH  17  18
ATOM     18  N   UNL     1       1.903   7.240  20.001  0.00  0.00    +0.000 N 
ATOM     19  C   UNL     1       1.283   7.901  21.022  0.00  0.00    +0.000 A 
ATOM     20  C   UNL     1       1.016   9.165  20.551  0.00  0.00    +0.000 A 
ATOM     21  C   UNL     1       1.500   9.165  19.230  0.00  0.00    +0.000 A 
ATOM     22  N   UNL     1       2.018   7.985  18.882  0.00  0.00    +0.000 NA
ENDBRANCH  17  18
ENDBRANCH   8  17
TORSDOF 5
ENDMDL
MODEL 9
REMARK VINA RESULT:      -7.1      2.848      6.532
REMARK  Name = 
REMARK  5 active torsions:
REMARK  status: ('A' for Active; 'I' for Inactive)
REMARK    1  A    between atoms: C_2  and  C_3
REMARK    2  A    between atoms: C_3  and  C_4
REMARK    3  A    between atoms: C_4  and  C_5
REMARK    4  A    between atoms: C_16  and  C_17
REMARK    5  A    between atoms: C_17  and  N_18
REMARK                            x       y       z     vdW  Elec       q    Type
REMARK                         _______ _______ _______ _____ _____    ______ ____
ROOT
ATOM      1  O   UNL     1       2.350   4.683  17.072  0.00  0.00    +0.000 OA
ATOM      2  C   UNL     1       3.108   4.091  17.841  0.00  0.00    +0.000 C 
ATOM      3  N   UNL     1       2.998   4.229  19.224  0.00  0.00    +0.000 N 
ATOM      4  C   UNL     1       3.882   3.589  20.205  0.00  0.00    +0.000 C 
ATOM      5  C   UNL     1       3.139   2.529  21.016  0.00  0.00    +0.000 C 
ATOM      6  C   UNL     1       1.819   3.050  21.582  0.00  0.00    +0.000 C 
ATOM      7  C   UNL     1       0.981   3.714  20.488  0.00  0.00    +0.000 C 
ATOM      8  C   UNL     1       1.759   4.838  19.778  0.00  0.00    +0.000 C 
ENDROOT
BRANCH   2   9
ATOM      9  C   UNL     1       4.194   3.165  17.315  0.00  0.00    +0.000 C 
BRANCH   9  10
ATOM     10  C   UNL     1       5.093   3.873  16.298  0.00  0.00    +0.000 C 
BRANCH  10  11
ATOM     11  C   UNL     1       5.971   4.917  16.946  0.00  0.00    +0.000 A 
ATOM     12  C   UNL     1       6.921   4.550  17.908  0.00  0.00    +0.000 A 
ATOM     13  C   UNL     1       7.733   5.516  18.506  0.00  0.00    +0.000 A 
ATOM     14  C   UNL     1       7.600   6.857  18.152  0.00  0.00    +0.000 A 
ATOM     15  C   UNL     1       6.653   7.234  17.201  0.00  0.00    +0.000 A 
ATOM     16  C   UNL     1       5.840   6.270  16.602  0.00  0.00    +0.000 A 
ENDBRANCH  10  11
ENDBRANCH   9  10
ENDBRANCH   2   9
BRANCH   8  17
ATOM     17  C   UNL     1       2.058   6.070  20.655  0.00  0.00    +0.000 C 
BRANCH  17  18
ATOM     18  N   UNL     1       1.845   7.333  19.976  0.00  0.00    +0.000 N 
ATOM     19  C   UNL     1       2.297   7.691  18.738  0.00  0.00    +0.000 A 
ATOM     20  C   UNL     1       1.866   8.981  18.533  0.00  0.00    +0.000 A 
ATOM     21  C   UNL     1       1.175   9.319  19.712  0.00  0.00    +0.000 A 
ATOM     22  N   UNL     1       1.182   8.327  20.604  0.00  0.00    +0.000 NA
ENDBRANCH  17  18
ENDBRANCH   8  17
TORSDOF 5
ENDMDL
