MODEL 1
REMARK VINA RESULT:      -6.9      0.000      0.000
REMARK  Name = 
REMARK  14 active torsions:
REMARK  status: ('A' for Active; 'I' for Inactive)
REMARK    1  A    between atoms: C_1  and  O_2
REMARK    2  A    between atoms: O_2  and  C_3
REMARK    3  A    between atoms: C_6  and  C_7
REMARK    4  A    between atoms: C_7  and  C_8
REMARK    5  A    between atoms: C_8  and  N_9
REMARK    6  A    between atoms: C_10  and  C_12
REMARK    7  A    between atoms: C_12  and  O_13
REMARK    8  A    between atoms: O_13  and  C_14
REMARK    9  A    between atoms: C_14  and  C_16
REMARK   10  A    between atoms: C_16  and  C_17
REMARK   11  A    between atoms: C_17  and  C_18
REMARK   12  A    between atoms: C_18  and  C_20
REMARK   13  A    between atoms: C_26  and  O_27
REMARK   14  A    between atoms: O_27  and  C_28
REMARK                            x       y       z     vdW  Elec       q    Type
REMARK                         _______ _______ _______ _____ _____    ______ ____
ROOT
ATOM      1  N   UNL     1       8.269   7.458  18.261  0.00  0.00    +0.000 N 
ATOM      2  C   UNL     1       7.496   6.651  17.444  0.00  0.00    +0.000 C 
ATOM      3  O   UNL     1       6.855   7.086  16.489  0.00  0.00    +0.000 OA
ATOM      4  H   UNL     1       8.508   7.105  19.181  0.00  0.00    +0.000 HD
ENDROOT
BRANCH   1   5
ATOM      5  C   UNL     1       8.212   8.899  18.079  0.00  0.00    +0.000 C 
BRANCH   5   6
ATOM      6  C   UNL     1       9.016   9.695  19.113  0.00  0.00    +0.000 C 
BRANCH   6  10
ATOM      7  C   UNL     1      10.412  13.476  17.525  0.00  0.00    +0.000 A 
ATOM      8  C   UNL     1      11.206  12.322  17.430  0.00  0.00    +0.000 A 
ATOM      9  C   UNL     1      10.767  11.100  17.942  0.00  0.00    +0.000 A 
ATOM     10  C   UNL     1       9.539  11.013  18.596  0.00  0.00    +0.000 A 
ATOM     11  C   UNL     1       8.801  12.187  18.786  0.00  0.00    +0.000 A 
ATOM     12  C   UNL     1       9.221  13.422  18.262  0.00  0.00    +0.000 A 
BRANCH   7  14
ATOM     13  C   UNL     1      11.789  15.389  17.650  0.00  0.00    +0.000 C 
ATOM     14  O   UNL     1      10.801  14.646  16.931  0.00  0.00    +0.000 OA
ENDBRANCH   7  14
BRANCH  12  15
ATOM     15  O   UNL     1       8.333  14.422  18.554  0.00  0.00    +0.000 OA
ATOM     16  C   UNL     1       7.212  14.624  17.710  0.00  0.00    +0.000 C 
ENDBRANCH  12  15
ENDBRANCH   6  10
ENDBRANCH   5   6
ENDBRANCH   1   5
BRANCH   2  17
ATOM     17  C   UNL     1       7.529   5.158  17.792  0.00  0.00    +0.000 C 
BRANCH  17  18
ATOM     18  O   UNL     1       6.703   4.835  18.905  0.00  0.00    +0.000 OA
BRANCH  18  19
ATOM     19  C   UNL     1       5.372   4.840  18.628  0.00  0.00    +0.000 C 
ATOM     20  O   UNL     1       4.795   4.000  17.952  0.00  0.00    +0.000 OA
BRANCH  19  21
ATOM     21  C   UNL     1       4.657   5.980  19.325  0.00  0.00    +0.000 C 
BRANCH  21  22
ATOM     22  C   UNL     1       3.225   6.214  18.849  0.00  0.00    +0.000 C 
BRANCH  22  23
ATOM     23  C   UNL     1       2.195   5.976  19.950  0.00  0.00    +0.000 C 
ATOM     24  O   UNL     1       1.640   6.931  20.491  0.00  0.00    +0.000 OA
BRANCH  23  25
ATOM     25  C   UNL     1       1.914   4.583  20.283  0.00  0.00    +0.000 A 
ATOM     26  C   UNL     1       2.061   3.909  21.482  0.00  0.00    +0.000 A 
ATOM     27  C   UNL     1       1.688   2.535  21.389  0.00  0.00    +0.000 A 
ATOM     28  C   UNL     1       1.260   2.203  20.124  0.00  0.00    +0.000 A 
ATOM     29  S   UNL     1       1.307   3.539  19.062  0.00  0.00    +0.000 S 
ENDBRANCH  23  25
ENDBRANCH  22  23
ENDBRANCH  21  22
ENDBRANCH  19  21
ENDBRANCH  18  19
ENDBRANCH  17  18
ENDBRANCH   2  17
TORSDOF 12
ENDMDL
MODEL 2
REMARK VINA RESULT:      -6.8      1.983      2.628
REMARK  Name = 
REMARK  14 active torsions:
REMARK  status: ('A' for Active; 'I' for Inactive)
REMARK    1  A    between atoms: C_1  and  O_2
REMARK    2  A    between atoms: O_2  and  C_3
REMARK    3  A    between atoms: C_6  and  C_7
REMARK    4  A    between atoms: C_7  and  C_8
REMARK    5  A    between atoms: C_8  and  N_9
REMARK    6  A    between atoms: C_10  and  C_12
REMARK    7  A    between atoms: C_12  and  O_13
REMARK    8  A    between atoms: O_13  and  C_14
REMARK    9  A    between atoms: C_14  and  C_16
REMARK   10  A    between atoms: C_16  and  C_17
REMARK   11  A    between atoms: C_17  and  C_18
REMARK   12  A    between atoms: C_18  and  C_20
REMARK   13  A    between atoms: C_26  and  O_27
REMARK   14  A    between atoms: O_27  and  C_28
REMARK                            x       y       z     vdW  Elec       q    Type
REMARK                         _______ _______ _______ _____ _____    ______ ____
ROOT
ATOM      1  N   UNL     1       7.963   7.013  17.364  0.00  0.00    +0.000 N 
ATOM      2  C   UNL     1       7.526   5.816  17.901  0.00  0.00    +0.000 C 
ATOM      3  O   UNL     1       7.086   5.717  19.046  0.00  0.00    +0.000 OA
ATOM      4  H   UNL     1       8.582   6.972  16.562  0.00  0.00    +0.000 HD
ENDROOT
BRANCH   1   5
ATOM      5  C   UNL     1       8.046   8.180  18.227  0.00  0.00    +0.000 C 
BRANCH   5   6
ATOM      6  C   UNL     1       8.420   9.475  17.499  0.00  0.00    +0.000 C 
BRANCH   6  10
ATOM      7  C   UNL     1      10.326  12.450  20.005  0.00  0.00    +0.000 A 
ATOM      8  C   UNL     1       9.790  11.279  20.565  0.00  0.00    +0.000 A 
ATOM      9  C   UNL     1       9.170  10.317  19.766  0.00  0.00    +0.000 A 
ATOM     10  C   UNL     1       9.038  10.522  18.394  0.00  0.00    +0.000 A 
ATOM     11  C   UNL     1       9.475  11.739  17.857  0.00  0.00    +0.000 A 
ATOM     12  C   UNL     1      10.117  12.711  18.644  0.00  0.00    +0.000 A 
BRANCH   7  14
ATOM     13  C   UNL     1      10.244  14.410  21.317  0.00  0.00    +0.000 C 
ATOM     14  O   UNL     1      11.023  13.341  20.777  0.00  0.00    +0.000 OA
ENDBRANCH   7  14
BRANCH  12  15
ATOM     15  O   UNL     1      10.474  13.805  17.904  0.00  0.00    +0.000 OA
ATOM     16  C   UNL     1      11.246  13.628  16.728  0.00  0.00    +0.000 C 
ENDBRANCH  12  15
ENDBRANCH   6  10
ENDBRANCH   5   6
ENDBRANCH   1   5
BRANCH   2  17
ATOM     17  C   UNL     1       7.590   4.617  16.946  0.00  0.00    +0.000 C 
BRANCH  17  18
ATOM     18  O   UNL     1       6.305   4.078  16.654  0.00  0.00    +0.000 OA
BRANCH  18  19
ATOM     19  C   UNL     1       5.467   4.946  16.029  0.00  0.00    +0.000 C 
ATOM     20  O   UNL     1       5.821   5.833  15.265  0.00  0.00    +0.000 OA
BRANCH  19  21
ATOM     21  C   UNL     1       4.014   4.640  16.330  0.00  0.00    +0.000 C 
BRANCH  21  22
ATOM     22  C   UNL     1       3.800   3.653  17.476  0.00  0.00    +0.000 C 
BRANCH  22  23
ATOM     23  C   UNL     1       2.354   3.628  17.966  0.00  0.00    +0.000 C 
ATOM     24  O   UNL     1       1.436   3.885  17.188  0.00  0.00    +0.000 OA
BRANCH  23  25
ATOM     25  C   UNL     1       2.152   3.269  19.366  0.00  0.00    +0.000 A 
ATOM     26  C   UNL     1       1.006   3.317  20.139  0.00  0.00    +0.000 A 
ATOM     27  C   UNL     1       1.232   2.892  21.482  0.00  0.00    +0.000 A 
ATOM     28  C   UNL     1       2.540   2.526  21.692  0.00  0.00    +0.000 A 
ATOM     29  S   UNL     1       3.486   2.692  20.280  0.00  0.00    +0.000 S 
ENDBRANCH  23  25
ENDBRANCH  22  23
ENDBRANCH  21  22
ENDBRANCH  19  21
ENDBRANCH  18  19
ENDBRANCH  17  18
ENDBRANCH   2  17
TORSDOF 12
ENDMDL
MODEL 3
REMARK VINA RESULT:      -6.8      5.112      7.827
REMARK  Name = 
REMARK  14 active torsions:
REMARK  status: ('A' for Active; 'I' for Inactive)
REMARK    1  A    between atoms: C_1  and  O_2
REMARK    2  A    between atoms: O_2  and  C_3
REMARK    3  A    between atoms: C_6  and  C_7
REMARK    4  A    between atoms: C_7  and  C_8
REMARK    5  A    between atoms: C_8  and  N_9
REMARK    6  A    between atoms: C_10  and  C_12
REMARK    7  A    between atoms: C_12  and  O_13
REMARK    8  A    between atoms: O_13  and  C_14
REMARK    9  A    between atoms: C_14  and  C_16
REMARK   10  A    between atoms: C_16  and  C_17
REMARK   11  A    between atoms: C_17  and  C_18
REMARK   12  A    between atoms: C_18  and  C_20
REMARK   13  A    between atoms: C_26  and  O_27
REMARK   14  A    between atoms: O_27  and  C_28
REMARK                            x       y       z     vdW  Elec       q    Type
REMARK                         _______ _______ _______ _____ _____    ______ ____
ROOT
ATOM      1  N   UNL     1       2.225   5.420  21.221  0.00  0.00    +0.000 N 
ATOM      2  C   UNL     1       1.656   4.205  20.883  0.00  0.00    +0.000 C 
ATOM      3  O   UNL     1       0.587   4.110  20.283  0.00  0.00    +0.000 OA
ATOM      4  H   UNL     1       2.917   5.427  21.962  0.00  0.00    +0.000 HD
ENDROOT
BRANCH   1   5
ATOM      5  C   UNL     1       1.465   6.638  20.989  0.00  0.00    +0.000 C 
BRANCH   5   6
ATOM      6  C   UNL     1       2.007   7.509  19.852  0.00  0.00    +0.000 C 
BRANCH   6  10
ATOM      7  C   UNL     1       0.268  11.476  19.826  0.00  0.00    +0.000 A 
ATOM      8  C   UNL     1       0.870  10.951  18.672  0.00  0.00    +0.000 A 
ATOM      9  C   UNL     1       1.438   9.676  18.672  0.00  0.00    +0.000 A 
ATOM     10  C   UNL     1       1.449   8.911  19.838  0.00  0.00    +0.000 A 
ATOM     11  C   UNL     1       0.945   9.482  21.013  0.00  0.00    +0.000 A 
ATOM     12  C   UNL     1       0.356  10.758  21.027  0.00  0.00    +0.000 A 
BRANCH   7  14
ATOM     13  C   UNL     1      -1.780  12.612  19.528  0.00  0.00    +0.000 C 
ATOM     14  O   UNL     1      -0.377  12.684  19.793  0.00  0.00    +0.000 OA
ENDBRANCH   7  14
BRANCH  12  15
ATOM     15  O   UNL     1      -0.082  11.098  22.278  0.00  0.00    +0.000 OA
ATOM     16  C   UNL     1      -0.531  10.081  23.158  0.00  0.00    +0.000 C 
ENDBRANCH  12  15
ENDBRANCH   6  10
ENDBRANCH   5   6
ENDBRANCH   1   5
BRANCH   2  17
ATOM     17  C   UNL     1       2.482   2.974  21.277  0.00  0.00    +0.000 C 
BRANCH  17  18
ATOM     18  O   UNL     1       2.679   2.074  20.192  0.00  0.00    +0.000 OA
BRANCH  18  19
ATOM     19  C   UNL     1       3.779   2.343  19.440  0.00  0.00    +0.000 C 
ATOM     20  O   UNL     1       4.924   2.397  19.868  0.00  0.00    +0.000 OA
BRANCH  19  21
ATOM     21  C   UNL     1       3.433   2.497  17.973  0.00  0.00    +0.000 C 
BRANCH  21  22
ATOM     22  C   UNL     1       4.411   3.360  17.179  0.00  0.00    +0.000 C 
BRANCH  22  23
ATOM     23  C   UNL     1       4.322   4.839  17.549  0.00  0.00    +0.000 C 
ATOM     24  O   UNL     1       3.224   5.387  17.630  0.00  0.00    +0.000 OA
BRANCH  23  25
ATOM     25  C   UNL     1       5.587   5.517  17.810  0.00  0.00    +0.000 A 
ATOM     26  C   UNL     1       6.548   5.266  18.772  0.00  0.00    +0.000 A 
ATOM     27  C   UNL     1       7.644   6.177  18.705  0.00  0.00    +0.000 A 
ATOM     28  C   UNL     1       7.491   7.091  17.689  0.00  0.00    +0.000 A 
ATOM     29  S   UNL     1       6.039   6.849  16.824  0.00  0.00    +0.000 S 
ENDBRANCH  23  25
ENDBRANCH  22  23
ENDBRANCH  21  22
ENDBRANCH  19  21
ENDBRANCH  18  19
ENDBRANCH  17  18
ENDBRANCH   2  17
TORSDOF 12
ENDMDL
MODEL 4
REMARK VINA RESULT:      -6.7      5.140      8.051
REMARK  Name = 
REMARK  14 active torsions:
REMARK  status: ('A' for Active; 'I' for Inactive)
REMARK    1  A    between atoms: C_1  and  O_2
REMARK    2  A    between atoms: O_2  and  C_3
REMARK    3  A    between atoms: C_6  and  C_7
REMARK    4  A    between atoms: C_7  and  C_8
REMARK    5  A    between atoms: C_8  and  N_9
REMARK    6  A    between atoms: C_10  and  C_12
REMARK    7  A    between atoms: C_12  and  O_13
REMARK    8  A    between atoms: O_13  and  C_14
REMARK    9  A    between atoms: C_14  and  C_16
REMARK   10  A    between atoms: C_16  and  C_17
REMARK   11  A    between atoms: C_17  and  C_18
REMARK   12  A    between atoms: C_18  and  C_20
REMARK   13  A    between atoms: C_26  and  O_27
REMARK   14  A    between atoms: O_27  and  C_28
REMARK                            x       y       z     vdW  Elec       q    Type
REMARK                         _______ _______ _______ _____ _____    ______ ____
ROOT
ATOM      1  N   UNL     1       1.242   4.845  20.445  0.00  0.00    +0.000 N 
ATOM      2  C   UNL     1       1.657   3.678  21.064  0.00  0.00    +0.000 C 
ATOM      3  O   UNL     1       2.365   3.670  22.070  0.00  0.00    +0.000 OA
ATOM      4  H   UNL     1       0.938   4.784  19.480  0.00  0.00    +0.000 HD
ENDROOT
BRANCH   1   5
ATOM      5  C   UNL     1       1.776   6.114  20.911  0.00  0.00    +0.000 C 
BRANCH   5   6
ATOM      6  C   UNL     1       2.203   7.065  19.789  0.00  0.00    +0.000 C 
BRANCH   6  10
ATOM      7  C   UNL     1       0.346  10.964  20.132  0.00  0.00    +0.000 A 
ATOM      8  C   UNL     1       0.790  10.489  18.887  0.00  0.00    +0.000 A 
ATOM      9  C   UNL     1       1.393   9.236  18.767  0.00  0.00    +0.000 A 
ATOM     10  C   UNL     1       1.602   8.445  19.896  0.00  0.00    +0.000 A 
ATOM     11  C   UNL     1       1.259   8.969  21.149  0.00  0.00    +0.000 A 
ATOM     12  C   UNL     1       0.635  10.221  21.285  0.00  0.00    +0.000 A 
BRANCH   7  14
ATOM     13  C   UNL     1      -1.293  12.377  19.192  0.00  0.00    +0.000 C 
ATOM     14  O   UNL     1      -0.337  12.147  20.228  0.00  0.00    +0.000 OA
ENDBRANCH   7  14
BRANCH  12  15
ATOM     15  O   UNL     1       0.375  10.516  22.596  0.00  0.00    +0.000 OA
ATOM     16  C   UNL     1      -0.943  10.367  23.094  0.00  0.00    +0.000 C 
ENDBRANCH  12  15
ENDBRANCH   6  10
ENDBRANCH   5   6
ENDBRANCH   1   5
BRANCH   2  17
ATOM     17  C   UNL     1       1.133   2.386  20.425  0.00  0.00    +0.000 C 
BRANCH  17  18
ATOM     18  O   UNL     1       1.981   1.903  19.389  0.00  0.00    +0.000 OA
BRANCH  18  19
ATOM     19  C   UNL     1       1.953   2.650  18.254  0.00  0.00    +0.000 C 
ATOM     20  O   UNL     1       0.951   3.171  17.784  0.00  0.00    +0.000 OA
BRANCH  19  21
ATOM     21  C   UNL     1       3.337   2.831  17.665  0.00  0.00    +0.000 C 
BRANCH  21  22
ATOM     22  C   UNL     1       3.883   4.254  17.759  0.00  0.00    +0.000 C 
BRANCH  22  23
ATOM     23  C   UNL     1       5.160   4.448  16.945  0.00  0.00    +0.000 C 
ATOM     24  O   UNL     1       5.270   3.919  15.839  0.00  0.00    +0.000 OA
BRANCH  23  25
ATOM     25  C   UNL     1       6.188   5.291  17.545  0.00  0.00    +0.000 A 
ATOM     26  C   UNL     1       6.946   5.093  18.685  0.00  0.00    +0.000 A 
ATOM     27  C   UNL     1       7.841   6.174  18.944  0.00  0.00    +0.000 A 
ATOM     28  C   UNL     1       7.745   7.160  17.991  0.00  0.00    +0.000 A 
ATOM     29  S   UNL     1       6.588   6.783  16.794  0.00  0.00    +0.000 S 
ENDBRANCH  23  25
ENDBRANCH  22  23
ENDBRANCH  21  22
ENDBRANCH  19  21
ENDBRANCH  18  19
ENDBRANCH  17  18
ENDBRANCH   2  17
TORSDOF 12
ENDMDL
MODEL 5
REMARK VINA RESULT:      -6.7      2.017      3.096
REMARK  Name = 
REMARK  14 active torsions:
REMARK  status: ('A' for Active; 'I' for Inactive)
REMARK    1  A    between atoms: C_1  and  O_2
REMARK    2  A    between atoms: O_2  and  C_3
REMARK    3  A    between atoms: C_6  and  C_7
REMARK    4  A    between atoms: C_7  and  C_8
REMARK    5  A    between atoms: C_8  and  N_9
REMARK    6  A    between atoms: C_10  and  C_12
REMARK    7  A    between atoms: C_12  and  O_13
REMARK    8  A    between atoms: O_13  and  C_14
REMARK    9  A    between atoms: C_14  and  C_16
REMARK   10  A    between atoms: C_16  and  C_17
REMARK   11  A    between atoms: C_17  and  C_18
REMARK   12  A    between atoms: C_18  and  C_20
REMARK   13  A    between atoms: C_26  and  O_27
REMARK   14  A    between atoms: O_27  and  C_28
REMARK                            x       y       z     vdW  Elec       q    Type
REMARK                         _______ _______ _______ _____ _____    ______ ____
ROOT
ATOM      1  N   UNL     1       6.438   6.583  17.779  0.00  0.00    +0.000 N 
ATOM      2  C   UNL     1       6.719   5.233  17.663  0.00  0.00    +0.000 C 
ATOM      3  O   UNL     1       7.831   4.806  17.352  0.00  0.00    +0.000 OA
ATOM      4  H   UNL     1       5.466   6.868  17.729  0.00  0.00    +0.000 HD
ENDROOT
BRANCH   1   5
ATOM      5  C   UNL     1       7.450   7.547  17.379  0.00  0.00    +0.000 C 
BRANCH   5   6
ATOM      6  C   UNL     1       8.355   8.018  18.522  0.00  0.00    +0.000 C 
BRANCH   6  10
ATOM      7  C   UNL     1       9.161  12.274  18.560  0.00  0.00    +0.000 A 
ATOM      8  C   UNL     1       8.304  11.716  17.598  0.00  0.00    +0.000 A 
ATOM      9  C   UNL     1       8.042  10.345  17.575  0.00  0.00    +0.000 A 
ATOM     10  C   UNL     1       8.661   9.495  18.491  0.00  0.00    +0.000 A 
ATOM     11  C   UNL     1       9.598  10.040  19.377  0.00  0.00    +0.000 A 
ATOM     12  C   UNL     1       9.861  11.420  19.424  0.00  0.00    +0.000 A 
BRANCH   7  14
ATOM     13  C   UNL     1       8.212  14.408  18.224  0.00  0.00    +0.000 C 
ATOM     14  O   UNL     1       9.334  13.629  18.643  0.00  0.00    +0.000 OA
ENDBRANCH   7  14
BRANCH  12  15
ATOM     15  O   UNL     1      10.794  11.724  20.379  0.00  0.00    +0.000 OA
ATOM     16  C   UNL     1      12.119  12.035  19.981  0.00  0.00    +0.000 C 
ENDBRANCH  12  15
ENDBRANCH   6  10
ENDBRANCH   5   6
ENDBRANCH   1   5
BRANCH   2  17
ATOM     17  C   UNL     1       5.549   4.299  17.992  0.00  0.00    +0.000 C 
BRANCH  17  18
ATOM     18  O   UNL     1       5.565   3.853  19.344  0.00  0.00    +0.000 OA
BRANCH  18  19
ATOM     19  C   UNL     1       4.805   2.749  19.574  0.00  0.00    +0.000 C 
ATOM     20  O   UNL     1       4.829   2.085  20.601  0.00  0.00    +0.000 OA
BRANCH  19  21
ATOM     21  C   UNL     1       3.855   2.472  18.427  0.00  0.00    +0.000 C 
BRANCH  21  22
ATOM     22  C   UNL     1       2.376   2.623  18.780  0.00  0.00    +0.000 C 
BRANCH  22  23
ATOM     23  C   UNL     1       1.768   3.906  18.219  0.00  0.00    +0.000 C 
ATOM     24  O   UNL     1       1.222   3.897  17.116  0.00  0.00    +0.000 OA
BRANCH  23  25
ATOM     25  C   UNL     1       1.862   5.090  19.066  0.00  0.00    +0.000 A 
ATOM     26  C   UNL     1       1.523   5.260  20.396  0.00  0.00    +0.000 A 
ATOM     27  C   UNL     1       1.752   6.591  20.855  0.00  0.00    +0.000 A 
ATOM     28  C   UNL     1       2.266   7.396  19.866  0.00  0.00    +0.000 A 
ATOM     29  S   UNL     1       2.471   6.550  18.397  0.00  0.00    +0.000 S 
ENDBRANCH  23  25
ENDBRANCH  22  23
ENDBRANCH  21  22
ENDBRANCH  19  21
ENDBRANCH  18  19
ENDBRANCH  17  18
ENDBRANCH   2  17
TORSDOF 12
ENDMDL
MODEL 6
REMARK VINA RESULT:      -6.7      4.914      8.358
REMARK  Name = 
REMARK  14 active torsions:
REMARK  status: ('A' for Active; 'I' for Inactive)
REMARK    1  A    between atoms: C_1  and  O_2
REMARK    2  A    between atoms: O_2  and  C_3
REMARK    3  A    between atoms: C_6  and  C_7
REMARK    4  A    between atoms: C_7  and  C_8
REMARK    5  A    between atoms: C_8  and  N_9
REMARK    6  A    between atoms: C_10  and  C_12
REMARK    7  A    between atoms: C_12  and  O_13
REMARK    8  A    between atoms: O_13  and  C_14
REMARK    9  A    between atoms: C_14  and  C_16
REMARK   10  A    between atoms: C_16  and  C_17
REMARK   11  A    between atoms: C_17  and  C_18
REMARK   12  A    between atoms: C_18  and  C_20
REMARK   13  A    between atoms: C_26  and  O_27
REMARK   14  A    between atoms: O_27  and  C_28
REMARK                            x       y       z     vdW  Elec       q    Type
REMARK                         _______ _______ _______ _____ _____    ______ ____
ROOT
ATOM      1  N   UNL     1       1.592   5.306  20.052  0.00  0.00    +0.000 N 
ATOM      2  C   UNL     1       1.838   4.038  20.549  0.00  0.00    +0.000 C 
ATOM      3  O   UNL     1       2.125   3.825  21.726  0.00  0.00    +0.000 OA
ATOM      4  H   UNL     1       1.670   5.443  19.051  0.00  0.00    +0.000 HD
ENDROOT
BRANCH   1   5
ATOM      5  C   UNL     1       1.821   6.453  20.915  0.00  0.00    +0.000 C 
BRANCH   5   6
ATOM      6  C   UNL     1       1.777   7.803  20.191  0.00  0.00    +0.000 C 
BRANCH   6  10
ATOM      7  C   UNL     1      -0.328  10.931  22.323  0.00  0.00    +0.000 A 
ATOM      8  C   UNL     1      -0.197   9.648  22.879  0.00  0.00    +0.000 A 
ATOM      9  C   UNL     1       0.475   8.632  22.198  0.00  0.00    +0.000 A 
ATOM     10  C   UNL     1       0.999   8.866  20.927  0.00  0.00    +0.000 A 
ATOM     11  C   UNL     1       0.771  10.112  20.332  0.00  0.00    +0.000 A 
ATOM     12  C   UNL     1       0.111  11.151  21.011  0.00  0.00    +0.000 A 
BRANCH   7  14
ATOM     13  C   UNL     1      -2.310  11.841  23.226  0.00  0.00    +0.000 C 
ATOM     14  O   UNL     1      -0.897  11.950  23.038  0.00  0.00    +0.000 OA
ENDBRANCH   7  14
BRANCH  12  15
ATOM     15  O   UNL     1       0.021  12.280  20.242  0.00  0.00    +0.000 OA
ATOM     16  C   UNL     1       1.055  12.575  19.318  0.00  0.00    +0.000 C 
ENDBRANCH  12  15
ENDBRANCH   6  10
ENDBRANCH   5   6
ENDBRANCH   1   5
BRANCH   2  17
ATOM     17  C   UNL     1       1.685   2.903  19.528  0.00  0.00    +0.000 C 
BRANCH  17  18
ATOM     18  O   UNL     1       2.796   2.014  19.524  0.00  0.00    +0.000 OA
BRANCH  18  19
ATOM     19  C   UNL     1       3.955   2.577  19.089  0.00  0.00    +0.000 C 
ATOM     20  O   UNL     1       4.958   2.729  19.774  0.00  0.00    +0.000 OA
BRANCH  19  21
ATOM     21  C   UNL     1       3.892   2.930  17.617  0.00  0.00    +0.000 C 
BRANCH  21  22
ATOM     22  C   UNL     1       4.280   4.372  17.296  0.00  0.00    +0.000 C 
BRANCH  22  23
ATOM     23  C   UNL     1       5.692   4.486  16.726  0.00  0.00    +0.000 C 
ATOM     24  O   UNL     1       6.075   3.692  15.868  0.00  0.00    +0.000 OA
BRANCH  23  25
ATOM     25  C   UNL     1       6.511   5.578  17.242  0.00  0.00    +0.000 A 
ATOM     26  C   UNL     1       6.633   6.883  16.799  0.00  0.00    +0.000 A 
ATOM     27  C   UNL     1       7.562   7.641  17.573  0.00  0.00    +0.000 A 
ATOM     28  C   UNL     1       8.115   6.895  18.588  0.00  0.00    +0.000 A 
ATOM     29  S   UNL     1       7.516   5.296  18.605  0.00  0.00    +0.000 S 
ENDBRANCH  23  25
ENDBRANCH  22  23
ENDBRANCH  21  22
ENDBRANCH  19  21
ENDBRANCH  18  19
ENDBRANCH  17  18
ENDBRANCH   2  17
TORSDOF 12
ENDMDL
MODEL 7
REMARK VINA RESULT:      -6.6      5.121      7.906
REMARK  Name = 
REMARK  14 active torsions:
REMARK  status: ('A' for Active; 'I' for Inactive)
REMARK    1  A    between atoms: C_1  and  O_2
REMARK    2  A    between atoms: O_2  and  C_3
REMARK    3  A    between atoms: C_6  and  C_7
REMARK    4  A    between atoms: C_7  and  C_8
REMARK    5  A    between atoms: C_8  and  N_9
REMARK    6  A    between atoms: C_10  and  C_12
REMARK    7  A    between atoms: C_12  and  O_13
REMARK    8  A    between atoms: O_13  and  C_14
REMARK    9  A    between atoms: C_14  and  C_16
REMARK   10  A    between atoms: C_16  and  C_17
REMARK   11  A    between atoms: C_17  and  C_18
REMARK   12  A    between atoms: C_18  and  C_20
REMARK   13  A    between atoms: C_26  and  O_27
REMARK   14  A    between atoms: O_27  and  C_28
REMARK                            x       y       z     vdW  Elec       q    Type
REMARK                         _______ _______ _______ _____ _____    ______ ____
ROOT
ATOM      1  N   UNL     1       1.246   4.553  20.037  0.00  0.00    +0.000 N 
ATOM      2  C   UNL     1       1.750   3.369  20.547  0.00  0.00    +0.000 C 
ATOM      3  O   UNL     1       2.255   3.284  21.665  0.00  0.00    +0.000 OA
ATOM      4  H   UNL     1       1.137   4.625  19.031  0.00  0.00    +0.000 HD
ENDROOT
BRANCH   1   5
ATOM      5  C   UNL     1       1.446   5.781  20.788  0.00  0.00    +0.000 C 
BRANCH   5   6
ATOM      6  C   UNL     1       2.283   6.836  20.057  0.00  0.00    +0.000 C 
BRANCH   6  10
ATOM      7  C   UNL     1       0.466  10.764  20.244  0.00  0.00    +0.000 A 
ATOM      8  C   UNL     1       0.928  10.246  19.024  0.00  0.00    +0.000 A 
ATOM      9  C   UNL     1       1.519   8.983  18.954  0.00  0.00    +0.000 A 
ATOM     10  C   UNL     1       1.696   8.226  20.110  0.00  0.00    +0.000 A 
ATOM     11  C   UNL     1       1.334   8.791  21.339  0.00  0.00    +0.000 A 
ATOM     12  C   UNL     1       0.723  10.054  21.425  0.00  0.00    +0.000 A 
BRANCH   7  14
ATOM     13  C   UNL     1       0.197  12.914  19.308  0.00  0.00    +0.000 C 
ATOM     14  O   UNL     1      -0.204  11.957  20.291  0.00  0.00    +0.000 OA
ENDBRANCH   7  14
BRANCH  12  15
ATOM     15  O   UNL     1       0.441  10.391  22.721  0.00  0.00    +0.000 OA
ATOM     16  C   UNL     1      -0.890  10.275  23.196  0.00  0.00    +0.000 C 
ENDBRANCH  12  15
ENDBRANCH   6  10
ENDBRANCH   5   6
ENDBRANCH   1   5
BRANCH   2  17
ATOM     17  C   UNL     1       1.596   2.152  19.626  0.00  0.00    +0.000 C 
BRANCH  17  18
ATOM     18  O   UNL     1       2.839   1.520  19.338  0.00  0.00    +0.000 OA
BRANCH  18  19
ATOM     19  C   UNL     1       3.817   2.374  18.935  0.00  0.00    +0.000 C 
ATOM     20  O   UNL     1       4.845   2.603  19.557  0.00  0.00    +0.000 OA
BRANCH  19  21
ATOM     21  C   UNL     1       3.521   2.964  17.571  0.00  0.00    +0.000 C 
BRANCH  21  22
ATOM     22  C   UNL     1       3.857   4.448  17.438  0.00  0.00    +0.000 C 
BRANCH  22  23
ATOM     23  C   UNL     1       5.154   4.689  16.668  0.00  0.00    +0.000 C 
ATOM     24  O   UNL     1       5.254   4.316  15.500  0.00  0.00    +0.000 OA
BRANCH  23  25
ATOM     25  C   UNL     1       6.213   5.386  17.389  0.00  0.00    +0.000 A 
ATOM     26  C   UNL     1       7.086   4.920  18.356  0.00  0.00    +0.000 A 
ATOM     27  C   UNL     1       7.972   5.932  18.830  0.00  0.00    +0.000 A 
ATOM     28  C   UNL     1       7.755   7.139  18.206  0.00  0.00    +0.000 A 
ATOM     29  S   UNL     1       6.495   7.048  17.058  0.00  0.00    +0.000 S 
ENDBRANCH  23  25
ENDBRANCH  22  23
ENDBRANCH  21  22
ENDBRANCH  19  21
ENDBRANCH  18  19
ENDBRANCH  17  18
ENDBRANCH   2  17
TORSDOF 12
ENDMDL
MODEL 8
REMARK VINA RESULT:      -6.6      4.488      7.865
REMARK  Name = 
REMARK  14 active torsions:
REMARK  status: ('A' for Active; 'I' for Inactive)
REMARK    1  A    between atoms: C_1  and  O_2
REMARK    2  A    between atoms: O_2  and  C_3
REMARK    3  A    between atoms: C_6  and  C_7
REMARK    4  A    between atoms: C_7  and  C_8
REMARK    5  A    between atoms: C_8  and  N_9
REMARK    6  A    between atoms: C_10  and  C_12
REMARK    7  A    between atoms: C_12  and  O_13
REMARK    8  A    between atoms: O_13  and  C_14
REMARK    9  A    between atoms: C_14  and  C_16
REMARK   10  A    between atoms: C_16  and  C_17
REMARK   11  A    between atoms: C_17  and  C_18
REMARK   12  A    between atoms: C_18  and  C_20
REMARK   13  A    between atoms: C_26  and  O_27
REMARK   14  A    between atoms: O_27  and  C_28
REMARK                            x       y       z     vdW  Elec       q    Type
REMARK                         _______ _______ _______ _____ _____    ______ ____
ROOT
ATOM      1  N   UNL     1       2.260   5.377  18.888  0.00  0.00    +0.000 N 
ATOM      2  C   UNL     1       1.640   5.251  20.119  0.00  0.00    +0.000 C 
ATOM      3  O   UNL     1       1.023   4.242  20.457  0.00  0.00    +0.000 OA
ATOM      4  H   UNL     1       2.471   6.312  18.560  0.00  0.00    +0.000 HD
ENDROOT
BRANCH   1   5
ATOM      5  C   UNL     1       2.059   4.337  17.892  0.00  0.00    +0.000 C 
BRANCH   5   6
ATOM      6  C   UNL     1       3.323   3.544  17.548  0.00  0.00    +0.000 C 
BRANCH   6  10
ATOM      7  C   UNL     1       6.749   6.097  16.837  0.00  0.00    +0.000 A 
ATOM      8  C   UNL     1       5.614   6.177  16.015  0.00  0.00    +0.000 A 
ATOM      9  C   UNL     1       4.507   5.355  16.233  0.00  0.00    +0.000 A 
ATOM     10  C   UNL     1       4.526   4.408  17.256  0.00  0.00    +0.000 A 
ATOM     11  C   UNL     1       5.701   4.257  18.002  0.00  0.00    +0.000 A 
ATOM     12  C   UNL     1       6.818   5.087  17.806  0.00  0.00    +0.000 A 
BRANCH   7  14
ATOM     13  C   UNL     1       7.743   8.121  17.536  0.00  0.00    +0.000 C 
ATOM     14  O   UNL     1       7.789   6.975  16.683  0.00  0.00    +0.000 OA
ENDBRANCH   7  14
BRANCH  12  15
ATOM     15  O   UNL     1       7.839   4.770  18.660  0.00  0.00    +0.000 OA
ATOM     16  C   UNL     1       7.987   5.498  19.868  0.00  0.00    +0.000 C 
ENDBRANCH  12  15
ENDBRANCH   6  10
ENDBRANCH   5   6
ENDBRANCH   1   5
BRANCH   2  17
ATOM     17  C   UNL     1       1.812   6.454  21.055  0.00  0.00    +0.000 C 
BRANCH  17  18
ATOM     18  O   UNL     1       1.428   7.682  20.448  0.00  0.00    +0.000 OA
BRANCH  18  19
ATOM     19  C   UNL     1       1.091   8.658  21.333  0.00  0.00    +0.000 C 
ATOM     20  O   UNL     1       1.713   8.921  22.353  0.00  0.00    +0.000 OA
BRANCH  19  21
ATOM     21  C   UNL     1      -0.116   9.446  20.869  0.00  0.00    +0.000 C 
BRANCH  21  22
ATOM     22  C   UNL     1       0.207  10.594  19.914  0.00  0.00    +0.000 C 
BRANCH  22  23
ATOM     23  C   UNL     1      -0.010  10.219  18.450  0.00  0.00    +0.000 C 
ATOM     24  O   UNL     1       0.920   9.760  17.788  0.00  0.00    +0.000 OA
BRANCH  23  25
ATOM     25  C   UNL     1      -1.357  10.417  17.925  0.00  0.00    +0.000 A 
ATOM     26  C   UNL     1      -2.030   9.738  16.925  0.00  0.00    +0.000 A 
ATOM     27  C   UNL     1      -3.340  10.255  16.696  0.00  0.00    +0.000 A 
ATOM     28  C   UNL     1      -3.631  11.307  17.532  0.00  0.00    +0.000 A 
ATOM     29  S   UNL     1      -2.335  11.665  18.585  0.00  0.00    +0.000 S 
ENDBRANCH  23  25
ENDBRANCH  22  23
ENDBRANCH  21  22
ENDBRANCH  19  21
ENDBRANCH  18  19
ENDBRANCH  17  18
ENDBRANCH   2  17
TORSDOF 12
ENDMDL
MODEL 9
REMARK VINA RESULT:      -6.5      5.849      8.052
REMARK  Name = 
REMARK  14 active torsions:
REMARK  status: ('A' for Active; 'I' for Inactive)
REMARK    1  A    between atoms: C_1  and  O_2
REMARK    2  A    between atoms: O_2  and  C_3
REMARK    3  A    between atoms: C_6  and  C_7
REMARK    4  A    between atoms: C_7  and  C_8
REMARK    5  A    between atoms: C_8  and  N_9
REMARK    6  A    between atoms: C_10  and  C_12
REMARK    7  A    between atoms: C_12  and  O_13
REMARK    8  A    between atoms: O_13  and  C_14
REMARK    9  A    between atoms: C_14  and  C_16
REMARK   10  A    between atoms: C_16  and  C_17
REMARK   11  A    between atoms: C_17  and  C_18
REMARK   12  A    between atoms: C_18  and  C_20
REMARK   13  A    between atoms: C_26  and  O_27
REMARK   14  A    between atoms: O_27  and  C_28
REMARK                            x       y       z     vdW  Elec       q    Type
REMARK                         _______ _______ _______ _____ _____    ______ ____
ROOT
ATOM      1  N   UNL     1       2.325   7.096  19.967  0.00  0.00    +0.000 N 
ATOM      2  C   UNL     1       2.428   7.691  18.722  0.00  0.00    +0.000 C 
ATOM      3  O   UNL     1       1.723   8.637  18.372  0.00  0.00    +0.000 OA
ATOM      4  H   UNL     1       2.697   6.159  20.073  0.00  0.00    +0.000 HD
ENDROOT
BRANCH   1   5
ATOM      5  C   UNL     1       1.246   7.504  20.852  0.00  0.00    +0.000 C 
BRANCH   5   6
ATOM      6  C   UNL     1       1.593   8.688  21.761  0.00  0.00    +0.000 C 
BRANCH   6  10
ATOM      7  C   UNL     1      -1.522  11.662  22.220  0.00  0.00    +0.000 A 
ATOM      8  C   UNL     1      -1.275  10.722  23.233  0.00  0.00    +0.000 A 
ATOM      9  C   UNL     1      -0.276   9.757  23.092  0.00  0.00    +0.000 A 
ATOM     10  C   UNL     1       0.472   9.686  21.918  0.00  0.00    +0.000 A 
ATOM     11  C   UNL     1       0.148  10.554  20.869  0.00  0.00    +0.000 A 
ATOM     12  C   UNL     1      -0.843  11.542  21.000  0.00  0.00    +0.000 A 
BRANCH   7  14
ATOM     13  C   UNL     1      -3.307  12.495  23.520  0.00  0.00    +0.000 C 
ATOM     14  O   UNL     1      -2.431  12.669  22.405  0.00  0.00    +0.000 OA
ENDBRANCH   7  14
BRANCH  12  15
ATOM     15  O   UNL     1      -0.971  12.283  19.856  0.00  0.00    +0.000 OA
ATOM     16  C   UNL     1      -1.884  11.865  18.856  0.00  0.00    +0.000 C 
ENDBRANCH  12  15
ENDBRANCH   6  10
ENDBRANCH   5   6
ENDBRANCH   1   5
BRANCH   2  17
ATOM     17  C   UNL     1       3.520   7.109  17.816  0.00  0.00    +0.000 C 
BRANCH  17  18
ATOM     18  O   UNL     1       3.856   5.768  18.152  0.00  0.00    +0.000 OA
BRANCH  18  19
ATOM     19  C   UNL     1       4.968   5.300  17.525  0.00  0.00    +0.000 C 
ATOM     20  O   UNL     1       6.081   5.798  17.612  0.00  0.00    +0.000 OA
BRANCH  19  21
ATOM     21  C   UNL     1       4.685   4.026  16.755  0.00  0.00    +0.000 C 
BRANCH  21  22
ATOM     22  C   UNL     1       3.308   3.420  17.018  0.00  0.00    +0.000 C 
BRANCH  22  23
ATOM     23  C   UNL     1       3.335   2.350  18.106  0.00  0.00    +0.000 C 
ATOM     24  O   UNL     1       3.860   1.260  17.884  0.00  0.00    +0.000 OA
BRANCH  23  25
ATOM     25  C   UNL     1       2.734   2.713  19.385  0.00  0.00    +0.000 A 
ATOM     26  C   UNL     1       3.215   2.550  20.671  0.00  0.00    +0.000 A 
ATOM     27  C   UNL     1       2.306   3.026  21.662  0.00  0.00    +0.000 A 
ATOM     28  C   UNL     1       1.162   3.546  21.103  0.00  0.00    +0.000 A 
ATOM     29  S   UNL     1       1.187   3.460  19.398  0.00  0.00    +0.000 S 
ENDBRANCH  23  25
ENDBRANCH  22  23
ENDBRANCH  21  22
ENDBRANCH  19  21
ENDBRANCH  18  19
ENDBRANCH  17  18
ENDBRANCH   2  17
TORSDOF 12
ENDMDL
