MODEL 1
REMARK VINA RESULT:      -8.5      0.000      0.000
REMARK  Name = 
REMARK  7 active torsions:
REMARK  status: ('A' for Active; 'I' for Inactive)
REMARK    1  A    between atoms: C_2  and  O_3
REMARK    2  A    between atoms: C_2  and  C_4
REMARK    3  A    between atoms: C_5  and  C_6
REMARK    4  A    between atoms: C_12  and  C_13
REMARK    5  A    between atoms: C_13  and  C_14
REMARK    6  A    between atoms: C_14  and  C_15
REMARK    7  A    between atoms: N_22  and  C_23
REMARK                            x       y       z     vdW  Elec       q    Type
REMARK                         _______ _______ _______ _____ _____    ______ ____
ROOT
ATOM      1  C   UNL     1       4.330   6.111  17.487  0.00  0.00    +0.000 A 
ATOM      2  C   UNL     1       4.051   7.403  17.056  0.00  0.00    +0.000 A 
ATOM      3  C   UNL     1       3.126   8.204  17.735  0.00  0.00    +0.000 A 
ATOM      4  C   UNL     1       2.454   7.676  18.857  0.00  0.00    +0.000 A 
ATOM      5  C   UNL     1       2.742   6.384  19.321  0.00  0.00    +0.000 A 
ATOM      6  C   UNL     1       3.679   5.594  18.614  0.00  0.00    +0.000 A 
ATOM      7  C   UNL     1       1.982   6.163  20.510  0.00  0.00    +0.000 A 
ATOM      8  C   UNL     1       1.301   7.336  20.757  0.00  0.00    +0.000 A 
ATOM      9  N   UNL     1       1.521   8.235  19.731  0.00  0.00    +0.000 N 
ENDROOT
BRANCH   9  10
ATOM     10  C   UNL     1       0.880   9.505  19.635  0.00  0.00    +0.000 A 
ATOM     11  C   UNL     1       0.900  10.380  20.732  0.00  0.00    +0.000 A 
ATOM     12  C   UNL     1       0.273  11.626  20.647  0.00  0.00    +0.000 A 
ATOM     13  C   UNL     1      -0.389  11.997  19.478  0.00  0.00    +0.000 A 
ATOM     14  C   UNL     1      -0.431  11.121  18.395  0.00  0.00    +0.000 A 
ATOM     15  C   UNL     1       0.198   9.877  18.471  0.00  0.00    +0.000 A 
ENDBRANCH   9  10
BRANCH   1  17
ATOM     16  C   UNL     1       5.609   5.556  15.489  0.00  0.00    +0.000 C 
ATOM     17  C   UNL     1       5.319   5.302  16.773  0.00  0.00    +0.000 C 
BRANCH  16  19
ATOM     18  O   UNL     1       7.647   5.385  14.320  0.00  0.00    +0.000 OA
ATOM     19  C   UNL     1       6.610   4.848  14.672  0.00  0.00    +0.000 C 
BRANCH  19  20
ATOM     20  O   UNL     1       6.277   3.593  14.320  0.00  0.00    +0.000 OA
ATOM     21  H   UNL     1       5.329   3.455  14.145  0.00  0.00    +0.000 HD
ENDBRANCH  19  20
ENDBRANCH  16  19
ENDBRANCH   1  17
BRANCH   7  22
ATOM     22  C   UNL     1       1.979   4.919  21.346  0.00  0.00    +0.000 C 
BRANCH  22  23
ATOM     23  C   UNL     1       1.164   3.762  20.755  0.00  0.00    +0.000 C 
BRANCH  23  24
ATOM     24  C   UNL     1       2.009   2.949  19.804  0.00  0.00    +0.000 A 
ATOM     25  C   UNL     1       3.258   2.459  20.209  0.00  0.00    +0.000 A 
ATOM     26  C   UNL     1       4.074   1.778  19.308  0.00  0.00    +0.000 A 
ATOM     27  C   UNL     1       3.650   1.580  17.995  0.00  0.00    +0.000 A 
ATOM     28  C   UNL     1       2.405   2.054  17.585  0.00  0.00    +0.000 A 
ATOM     29  C   UNL     1       1.586   2.735  18.485  0.00  0.00    +0.000 A 
ENDBRANCH  23  24
ENDBRANCH  22  23
ENDBRANCH   7  22
TORSDOF 7
ENDMDL
MODEL 2
REMARK VINA RESULT:      -8.5      0.891      1.309
REMARK  Name = 
REMARK  7 active torsions:
REMARK  status: ('A' for Active; 'I' for Inactive)
REMARK    1  A    between atoms: C_2  and  O_3
REMARK    2  A    between atoms: C_2  and  C_4
REMARK    3  A    between atoms: C_5  and  C_6
REMARK    4  A    between atoms: C_12  and  C_13
REMARK    5  A    between atoms: C_13  and  C_14
REMARK    6  A    between atoms: C_14  and  C_15
REMARK    7  A    between atoms: N_22  and  C_23
REMARK                            x       y       z     vdW  Elec       q    Type
REMARK                         _______ _______ _______ _____ _____    ______ ____
ROOT
ATOM      1  C   UNL     1       4.026   6.613  17.469  0.00  0.00    +0.000 A 
ATOM      2  C   UNL     1       3.672   7.918  17.147  0.00  0.00    +0.000 A 
ATOM      3  C   UNL     1       2.748   8.625  17.923  0.00  0.00    +0.000 A 
ATOM      4  C   UNL     1       2.154   7.989  19.033  0.00  0.00    +0.000 A 
ATOM      5  C   UNL     1       2.519   6.682  19.388  0.00  0.00    +0.000 A 
ATOM      6  C   UNL     1       3.453   5.988  18.584  0.00  0.00    +0.000 A 
ATOM      7  C   UNL     1       1.827   6.343  20.591  0.00  0.00    +0.000 A 
ATOM      8  C   UNL     1       1.110   7.463  20.954  0.00  0.00    +0.000 A 
ATOM      9  N   UNL     1       1.241   8.441  19.987  0.00  0.00    +0.000 N 
ENDROOT
BRANCH   9  10
ATOM     10  C   UNL     1       0.544   9.685  20.013  0.00  0.00    +0.000 A 
ATOM     11  C   UNL     1      -0.490   9.923  19.095  0.00  0.00    +0.000 A 
ATOM     12  C   UNL     1      -1.177  11.139  19.112  0.00  0.00    +0.000 A 
ATOM     13  C   UNL     1      -0.826  12.127  20.030  0.00  0.00    +0.000 A 
ATOM     14  C   UNL     1       0.216  11.903  20.928  0.00  0.00    +0.000 A 
ATOM     15  C   UNL     1       0.902  10.688  20.920  0.00  0.00    +0.000 A 
ENDBRANCH   9  10
BRANCH   1  17
ATOM     16  C   UNL     1       6.200   5.553  17.170  0.00  0.00    +0.000 C 
ATOM     17  C   UNL     1       5.013   5.902  16.653  0.00  0.00    +0.000 C 
BRANCH  16  19
ATOM     18  O   UNL     1       7.350   4.803  15.256  0.00  0.00    +0.000 OA
ATOM     19  C   UNL     1       7.258   4.802  16.472  0.00  0.00    +0.000 C 
BRANCH  19  20
ATOM     20  O   UNL     1       8.080   4.095  17.269  0.00  0.00    +0.000 OA
ATOM     21  H   UNL     1       7.974   4.267  18.221  0.00  0.00    +0.000 HD
ENDBRANCH  19  20
ENDBRANCH  16  19
ENDBRANCH   1  17
BRANCH   7  22
ATOM     22  C   UNL     1       1.918   5.044  21.334  0.00  0.00    +0.000 C 
BRANCH  22  23
ATOM     23  C   UNL     1       1.110   3.901  20.707  0.00  0.00    +0.000 C 
BRANCH  23  24
ATOM     24  C   UNL     1       1.972   3.097  19.764  0.00  0.00    +0.000 A 
ATOM     25  C   UNL     1       3.229   2.635  20.174  0.00  0.00    +0.000 A 
ATOM     26  C   UNL     1       4.060   1.962  19.278  0.00  0.00    +0.000 A 
ATOM     27  C   UNL     1       3.641   1.745  17.967  0.00  0.00    +0.000 A 
ATOM     28  C   UNL     1       2.386   2.191  17.553  0.00  0.00    +0.000 A 
ATOM     29  C   UNL     1       1.554   2.863  18.447  0.00  0.00    +0.000 A 
ENDBRANCH  23  24
ENDBRANCH  22  23
ENDBRANCH   7  22
TORSDOF 7
ENDMDL
MODEL 3
REMARK VINA RESULT:      -8.2      0.829      1.304
REMARK  Name = 
REMARK  7 active torsions:
REMARK  status: ('A' for Active; 'I' for Inactive)
REMARK    1  A    between atoms: C_2  and  O_3
REMARK    2  A    between atoms: C_2  and  C_4
REMARK    3  A    between atoms: C_5  and  C_6
REMARK    4  A    between atoms: C_12  and  C_13
REMARK    5  A    between atoms: C_13  and  C_14
REMARK    6  A    between atoms: C_14  and  C_15
REMARK    7  A    between atoms: N_22  and  C_23
REMARK                            x       y       z     vdW  Elec       q    Type
REMARK                         _______ _______ _______ _____ _____    ______ ____
ROOT
ATOM      1  C   UNL     1       4.043   6.526  17.480  0.00  0.00    +0.000 A 
ATOM      2  C   UNL     1       3.707   7.828  17.124  0.00  0.00    +0.000 A 
ATOM      3  C   UNL     1       2.787   8.564  17.877  0.00  0.00    +0.000 A 
ATOM      4  C   UNL     1       2.177   7.961  18.997  0.00  0.00    +0.000 A 
ATOM      5  C   UNL     1       2.523   6.658  19.385  0.00  0.00    +0.000 A 
ATOM      6  C   UNL     1       3.454   5.934  18.604  0.00  0.00    +0.000 A 
ATOM      7  C   UNL     1       1.819   6.356  20.591  0.00  0.00    +0.000 A 
ATOM      8  C   UNL     1       1.113   7.492  20.922  0.00  0.00    +0.000 A 
ATOM      9  N   UNL     1       1.263   8.446  19.934  0.00  0.00    +0.000 N 
ENDROOT
BRANCH   9  10
ATOM     10  C   UNL     1       0.581   9.699  19.926  0.00  0.00    +0.000 A 
ATOM     11  C   UNL     1       0.715  10.572  21.016  0.00  0.00    +0.000 A 
ATOM     12  C   UNL     1       0.049  11.800  21.017  0.00  0.00    +0.000 A 
ATOM     13  C   UNL     1      -0.767  12.153  19.943  0.00  0.00    +0.000 A 
ATOM     14  C   UNL     1      -0.921  11.278  18.870  0.00  0.00    +0.000 A 
ATOM     15  C   UNL     1      -0.253  10.053  18.860  0.00  0.00    +0.000 A 
ENDBRANCH   9  10
BRANCH   1  17
ATOM     16  C   UNL     1       6.271   5.596  17.150  0.00  0.00    +0.000 C 
ATOM     17  C   UNL     1       5.026   5.784  16.688  0.00  0.00    +0.000 C 
BRANCH  16  19
ATOM     18  O   UNL     1       8.125   4.144  17.097  0.00  0.00    +0.000 OA
ATOM     19  C   UNL     1       7.337   4.836  16.474  0.00  0.00    +0.000 C 
BRANCH  19  20
ATOM     20  O   UNL     1       7.394   4.992  15.139  0.00  0.00    +0.000 OA
ATOM     21  H   UNL     1       8.003   4.385  14.682  0.00  0.00    +0.000 HD
ENDBRANCH  19  20
ENDBRANCH  16  19
ENDBRANCH   1  17
BRANCH   7  22
ATOM     22  C   UNL     1       1.888   5.073  21.364  0.00  0.00    +0.000 C 
BRANCH  22  23
ATOM     23  C   UNL     1       1.137   3.904  20.716  0.00  0.00    +0.000 C 
BRANCH  23  24
ATOM     24  C   UNL     1       2.041   3.152  19.769  0.00  0.00    +0.000 A 
ATOM     25  C   UNL     1       1.615   2.859  18.467  0.00  0.00    +0.000 A 
ATOM     26  C   UNL     1       2.416   2.095  17.619  0.00  0.00    +0.000 A 
ATOM     27  C   UNL     1       3.648   1.620  18.063  0.00  0.00    +0.000 A 
ATOM     28  C   UNL     1       4.085   1.916  19.353  0.00  0.00    +0.000 A 
ATOM     29  C   UNL     1       3.287   2.680  20.203  0.00  0.00    +0.000 A 
ENDBRANCH  23  24
ENDBRANCH  22  23
ENDBRANCH   7  22
TORSDOF 7
ENDMDL
MODEL 4
REMARK VINA RESULT:      -8.2      0.840      1.554
REMARK  Name = 
REMARK  7 active torsions:
REMARK  status: ('A' for Active; 'I' for Inactive)
REMARK    1  A    between atoms: C_2  and  O_3
REMARK    2  A    between atoms: C_2  and  C_4
REMARK    3  A    between atoms: C_5  and  C_6
REMARK    4  A    between atoms: C_12  and  C_13
REMARK    5  A    between atoms: C_13  and  C_14
REMARK    6  A    between atoms: C_14  and  C_15
REMARK    7  A    between atoms: N_22  and  C_23
REMARK                            x       y       z     vdW  Elec       q    Type
REMARK                         _______ _______ _______ _____ _____    ______ ____
ROOT
ATOM      1  C   UNL     1       3.925   6.890  17.509  0.00  0.00    +0.000 A 
ATOM      2  C   UNL     1       3.515   8.193  17.248  0.00  0.00    +0.000 A 
ATOM      3  C   UNL     1       2.576   8.829  18.066  0.00  0.00    +0.000 A 
ATOM      4  C   UNL     1       2.023   8.122  19.154  0.00  0.00    +0.000 A 
ATOM      5  C   UNL     1       2.444   6.817  19.448  0.00  0.00    +0.000 A 
ATOM      6  C   UNL     1       3.393   6.195  18.602  0.00  0.00    +0.000 A 
ATOM      7  C   UNL     1       1.784   6.399  20.644  0.00  0.00    +0.000 A 
ATOM      8  C   UNL     1       1.029   7.473  21.064  0.00  0.00    +0.000 A 
ATOM      9  N   UNL     1       1.108   8.496  20.140  0.00  0.00    +0.000 N 
ENDROOT
BRANCH   9  10
ATOM     10  C   UNL     1       0.362   9.709  20.229  0.00  0.00    +0.000 A 
ATOM     11  C   UNL     1      -0.602  10.007  19.254  0.00  0.00    +0.000 A 
ATOM     12  C   UNL     1      -1.335  11.193  19.333  0.00  0.00    +0.000 A 
ATOM     13  C   UNL     1      -1.098  12.094  20.370  0.00  0.00    +0.000 A 
ATOM     14  C   UNL     1      -0.125  11.812  21.326  0.00  0.00    +0.000 A 
ATOM     15  C   UNL     1       0.606  10.626  21.257  0.00  0.00    +0.000 A 
ENDBRANCH   9  10
BRANCH   1  17
ATOM     16  C   UNL     1       5.341   5.004  16.897  0.00  0.00    +0.000 C 
ATOM     17  C   UNL     1       4.926   6.255  16.650  0.00  0.00    +0.000 C 
BRANCH  16  19
ATOM     18  O   UNL     1       7.378   4.715  15.749  0.00  0.00    +0.000 OA
ATOM     19  C   UNL     1       6.307   4.239  16.089  0.00  0.00    +0.000 C 
BRANCH  19  20
ATOM     20  O   UNL     1       5.906   3.006  15.731  0.00  0.00    +0.000 OA
ATOM     21  H   UNL     1       4.963   2.935  15.497  0.00  0.00    +0.000 HD
ENDBRANCH  19  20
ENDBRANCH  16  19
ENDBRANCH   1  17
BRANCH   7  22
ATOM     22  C   UNL     1       1.936   5.074  21.328  0.00  0.00    +0.000 C 
BRANCH  22  23
ATOM     23  C   UNL     1       1.170   3.926  20.659  0.00  0.00    +0.000 C 
BRANCH  23  24
ATOM     24  C   UNL     1       2.068   3.170  19.710  0.00  0.00    +0.000 A 
ATOM     25  C   UNL     1       1.675   2.957  18.383  0.00  0.00    +0.000 A 
ATOM     26  C   UNL     1       2.466   2.190  17.528  0.00  0.00    +0.000 A 
ATOM     27  C   UNL     1       3.656   1.632  17.991  0.00  0.00    +0.000 A 
ATOM     28  C   UNL     1       4.061   1.849  19.307  0.00  0.00    +0.000 A 
ATOM     29  C   UNL     1       3.273   2.615  20.164  0.00  0.00    +0.000 A 
ENDBRANCH  23  24
ENDBRANCH  22  23
ENDBRANCH   7  22
TORSDOF 7
ENDMDL
MODEL 5
REMARK VINA RESULT:      -8.1      0.504      1.074
REMARK  Name = 
REMARK  7 active torsions:
REMARK  status: ('A' for Active; 'I' for Inactive)
REMARK    1  A    between atoms: C_2  and  O_3
REMARK    2  A    between atoms: C_2  and  C_4
REMARK    3  A    between atoms: C_5  and  C_6
REMARK    4  A    between atoms: C_12  and  C_13
REMARK    5  A    between atoms: C_13  and  C_14
REMARK    6  A    between atoms: C_14  and  C_15
REMARK    7  A    between atoms: N_22  and  C_23
REMARK                            x       y       z     vdW  Elec       q    Type
REMARK                         _______ _______ _______ _____ _____    ______ ____
ROOT
ATOM      1  C   UNL     1       4.292   6.327  17.377  0.00  0.00    +0.000 A 
ATOM      2  C   UNL     1       4.020   7.605  16.902  0.00  0.00    +0.000 A 
ATOM      3  C   UNL     1       3.078   8.422  17.536  0.00  0.00    +0.000 A 
ATOM      4  C   UNL     1       2.383   7.926  18.658  0.00  0.00    +0.000 A 
ATOM      5  C   UNL     1       2.663   6.649  19.166  0.00  0.00    +0.000 A 
ATOM      6  C   UNL     1       3.617   5.841  18.504  0.00  0.00    +0.000 A 
ATOM      7  C   UNL     1       1.877   6.461  20.344  0.00  0.00    +0.000 A 
ATOM      8  C   UNL     1       1.188   7.639  20.542  0.00  0.00    +0.000 A 
ATOM      9  N   UNL     1       1.429   8.507  19.495  0.00  0.00    +0.000 N 
ENDROOT
BRANCH   9  10
ATOM     10  C   UNL     1       0.788   9.773  19.347  0.00  0.00    +0.000 A 
ATOM     11  C   UNL     1      -0.518   9.837  18.837  0.00  0.00    +0.000 A 
ATOM     12  C   UNL     1      -1.152  11.072  18.687  0.00  0.00    +0.000 A 
ATOM     13  C   UNL     1      -0.484  12.247  19.027  0.00  0.00    +0.000 A 
ATOM     14  C   UNL     1       0.821  12.189  19.513  0.00  0.00    +0.000 A 
ATOM     15  C   UNL     1       1.458  10.958  19.671  0.00  0.00    +0.000 A 
ENDBRANCH   9  10
BRANCH   1  17
ATOM     16  C   UNL     1       5.471   5.576  15.381  0.00  0.00    +0.000 C 
ATOM     17  C   UNL     1       5.299   5.500  16.709  0.00  0.00    +0.000 C 
BRANCH  16  19
ATOM     18  O   UNL     1       6.203   3.777  14.048  0.00  0.00    +0.000 OA
ATOM     19  C   UNL     1       6.473   4.833  14.597  0.00  0.00    +0.000 C 
BRANCH  19  20
ATOM     20  O   UNL     1       7.699   5.385  14.563  0.00  0.00    +0.000 OA
ATOM     21  H   UNL     1       8.258   5.094  13.822  0.00  0.00    +0.000 HD
ENDBRANCH  19  20
ENDBRANCH  16  19
ENDBRANCH   1  17
BRANCH   7  22
ATOM     22  C   UNL     1       1.859   5.242  21.217  0.00  0.00    +0.000 C 
BRANCH  22  23
ATOM     23  C   UNL     1       1.047   4.072  20.650  0.00  0.00    +0.000 C 
BRANCH  23  24
ATOM     24  C   UNL     1       1.913   3.200  19.774  0.00  0.00    +0.000 A 
ATOM     25  C   UNL     1       3.134   2.706  20.253  0.00  0.00    +0.000 A 
ATOM     26  C   UNL     1       3.972   1.969  19.418  0.00  0.00    +0.000 A 
ATOM     27  C   UNL     1       3.598   1.716  18.099  0.00  0.00    +0.000 A 
ATOM     28  C   UNL     1       2.380   2.194  17.617  0.00  0.00    +0.000 A 
ATOM     29  C   UNL     1       1.539   2.931  18.450  0.00  0.00    +0.000 A 
ENDBRANCH  23  24
ENDBRANCH  22  23
ENDBRANCH   7  22
TORSDOF 7
ENDMDL
MODEL 6
REMARK VINA RESULT:      -7.9      4.086      6.489
REMARK  Name = 
REMARK  7 active torsions:
REMARK  status: ('A' for Active; 'I' for Inactive)
REMARK    1  A    between atoms: C_2  and  O_3
REMARK    2  A    between atoms: C_2  and  C_4
REMARK    3  A    between atoms: C_5  and  C_6
REMARK    4  A    between atoms: C_12  and  C_13
REMARK    5  A    between atoms: C_13  and  C_14
REMARK    6  A    between atoms: C_14  and  C_15
REMARK    7  A    between atoms: N_22  and  C_23
REMARK                            x       y       z     vdW  Elec       q    Type
REMARK                         _______ _______ _______ _____ _____    ______ ____
ROOT
ATOM      1  C   UNL     1      -2.540  10.112  16.732  0.00  0.00    +0.000 A 
ATOM      2  C   UNL     1      -3.163  11.053  17.543  0.00  0.00    +0.000 A 
ATOM      3  C   UNL     1      -2.527  11.553  18.684  0.00  0.00    +0.000 A 
ATOM      4  C   UNL     1      -1.245  11.071  19.022  0.00  0.00    +0.000 A 
ATOM      5  C   UNL     1      -0.591  10.141  18.202  0.00  0.00    +0.000 A 
ATOM      6  C   UNL     1      -1.258   9.648  17.055  0.00  0.00    +0.000 A 
ATOM      7  C   UNL     1       0.710   9.912  18.745  0.00  0.00    +0.000 A 
ATOM      8  C   UNL     1       0.824  10.742  19.839  0.00  0.00    +0.000 A 
ATOM      9  N   UNL     1      -0.372  11.397  20.062  0.00  0.00    +0.000 N 
ENDROOT
BRANCH   9  10
ATOM     10  C   UNL     1      -0.616  12.253  21.176  0.00  0.00    +0.000 A 
ATOM     11  C   UNL     1      -1.468  11.828  22.207  0.00  0.00    +0.000 A 
ATOM     12  C   UNL     1      -1.714  12.660  23.301  0.00  0.00    +0.000 A 
ATOM     13  C   UNL     1      -1.128  13.924  23.364  0.00  0.00    +0.000 A 
ATOM     14  C   UNL     1      -0.300  14.358  22.331  0.00  0.00    +0.000 A 
ATOM     15  C   UNL     1      -0.045  13.528  21.238  0.00  0.00    +0.000 A 
ENDBRANCH   9  10
BRANCH   1  17
ATOM     16  C   UNL     1      -3.033  10.226  14.348  0.00  0.00    +0.000 C 
ATOM     17  C   UNL     1      -3.218   9.621  15.530  0.00  0.00    +0.000 C 
BRANCH  16  19
ATOM     18  O   UNL     1      -4.827   9.722  12.907  0.00  0.00    +0.000 OA
ATOM     19  C   UNL     1      -3.620   9.808  13.063  0.00  0.00    +0.000 C 
BRANCH  19  20
ATOM     20  O   UNL     1      -2.732   9.499  12.101  0.00  0.00    +0.000 OA
ATOM     21  H   UNL     1      -1.854   9.904  12.210  0.00  0.00    +0.000 HD
ENDBRANCH  19  20
ENDBRANCH  16  19
ENDBRANCH   1  17
BRANCH   7  22
ATOM     22  C   UNL     1       1.757   8.993  18.191  0.00  0.00    +0.000 C 
BRANCH  22  23
ATOM     23  C   UNL     1       2.138   7.835  19.122  0.00  0.00    +0.000 C 
BRANCH  23  24
ATOM     24  C   UNL     1       2.880   6.764  18.360  0.00  0.00    +0.000 A 
ATOM     25  C   UNL     1       4.001   7.093  17.587  0.00  0.00    +0.000 A 
ATOM     26  C   UNL     1       4.639   6.119  16.820  0.00  0.00    +0.000 A 
ATOM     27  C   UNL     1       4.163   4.809  16.820  0.00  0.00    +0.000 A 
ATOM     28  C   UNL     1       3.055   4.470  17.595  0.00  0.00    +0.000 A 
ATOM     29  C   UNL     1       2.416   5.441  18.364  0.00  0.00    +0.000 A 
ENDBRANCH  23  24
ENDBRANCH  22  23
ENDBRANCH   7  22
TORSDOF 7
ENDMDL
MODEL 7
REMARK VINA RESULT:      -7.8      3.995      6.371
REMARK  Name = 
REMARK  7 active torsions:
REMARK  status: ('A' for Active; 'I' for Inactive)
REMARK    1  A    between atoms: C_2  and  O_3
REMARK    2  A    between atoms: C_2  and  C_4
REMARK    3  A    between atoms: C_5  and  C_6
REMARK    4  A    between atoms: C_12  and  C_13
REMARK    5  A    between atoms: C_13  and  C_14
REMARK    6  A    between atoms: C_14  and  C_15
REMARK    7  A    between atoms: N_22  and  C_23
REMARK                            x       y       z     vdW  Elec       q    Type
REMARK                         _______ _______ _______ _____ _____    ______ ____
ROOT
ATOM      1  C   UNL     1      -2.364  10.289  17.178  0.00  0.00    +0.000 A 
ATOM      2  C   UNL     1      -2.919  11.382  17.834  0.00  0.00    +0.000 A 
ATOM      3  C   UNL     1      -2.314  11.919  18.975  0.00  0.00    +0.000 A 
ATOM      4  C   UNL     1      -1.137  11.323  19.473  0.00  0.00    +0.000 A 
ATOM      5  C   UNL     1      -0.550  10.236  18.809  0.00  0.00    +0.000 A 
ATOM      6  C   UNL     1      -1.184   9.709  17.660  0.00  0.00    +0.000 A 
ATOM      7  C   UNL     1       0.664   9.909  19.488  0.00  0.00    +0.000 A 
ATOM      8  C   UNL     1       0.801  10.831  20.503  0.00  0.00    +0.000 A 
ATOM      9  N   UNL     1      -0.312  11.648  20.551  0.00  0.00    +0.000 N 
ENDROOT
BRANCH   9  10
ATOM     10  C   UNL     1      -0.528  12.642  21.551  0.00  0.00    +0.000 A 
ATOM     11  C   UNL     1      -1.475  12.420  22.561  0.00  0.00    +0.000 A 
ATOM     12  C   UNL     1      -1.694  13.389  23.543  0.00  0.00    +0.000 A 
ATOM     13  C   UNL     1      -0.984  14.588  23.513  0.00  0.00    +0.000 A 
ATOM     14  C   UNL     1      -0.058  14.821  22.498  0.00  0.00    +0.000 A 
ATOM     15  C   UNL     1       0.169  13.855  21.517  0.00  0.00    +0.000 A 
ENDBRANCH   9  10
BRANCH   1  17
ATOM     16  C   UNL     1      -2.770  10.315  14.775  0.00  0.00    +0.000 C 
ATOM     17  C   UNL     1      -3.006   9.760  15.973  0.00  0.00    +0.000 C 
BRANCH  16  19
ATOM     18  O   UNL     1      -4.516   9.725  13.308  0.00  0.00    +0.000 OA
ATOM     19  C   UNL     1      -3.316   9.854  13.487  0.00  0.00    +0.000 C 
BRANCH  19  20
ATOM     20  O   UNL     1      -2.399   9.556  12.549  0.00  0.00    +0.000 OA
ATOM     21  H   UNL     1      -1.857   8.771  12.743  0.00  0.00    +0.000 HD
ENDBRANCH  19  20
ENDBRANCH  16  19
ENDBRANCH   1  17
BRANCH   7  22
ATOM     22  C   UNL     1       1.621   8.814  19.123  0.00  0.00    +0.000 C 
BRANCH  22  23
ATOM     23  C   UNL     1       1.910   7.824  20.257  0.00  0.00    +0.000 C 
BRANCH  23  24
ATOM     24  C   UNL     1       1.993   6.414  19.724  0.00  0.00    +0.000 A 
ATOM     25  C   UNL     1       2.331   6.183  18.384  0.00  0.00    +0.000 A 
ATOM     26  C   UNL     1       2.329   4.887  17.869  0.00  0.00    +0.000 A 
ATOM     27  C   UNL     1       1.991   3.812  18.689  0.00  0.00    +0.000 A 
ATOM     28  C   UNL     1       1.665   4.031  20.027  0.00  0.00    +0.000 A 
ATOM     29  C   UNL     1       1.666   5.325  20.544  0.00  0.00    +0.000 A 
ENDBRANCH  23  24
ENDBRANCH  22  23
ENDBRANCH   7  22
TORSDOF 7
ENDMDL
MODEL 8
REMARK VINA RESULT:      -7.7      4.245      6.835
REMARK  Name = 
REMARK  7 active torsions:
REMARK  status: ('A' for Active; 'I' for Inactive)
REMARK    1  A    between atoms: C_2  and  O_3
REMARK    2  A    between atoms: C_2  and  C_4
REMARK    3  A    between atoms: C_5  and  C_6
REMARK    4  A    between atoms: C_12  and  C_13
REMARK    5  A    between atoms: C_13  and  C_14
REMARK    6  A    between atoms: C_14  and  C_15
REMARK    7  A    between atoms: N_22  and  C_23
REMARK                            x       y       z     vdW  Elec       q    Type
REMARK                         _______ _______ _______ _____ _____    ______ ____
ROOT
ATOM      1  C   UNL     1      -3.135  10.540  16.413  0.00  0.00    +0.000 A 
ATOM      2  C   UNL     1      -3.632  11.468  17.321  0.00  0.00    +0.000 A 
ATOM      3  C   UNL     1      -2.907  11.812  18.467  0.00  0.00    +0.000 A 
ATOM      4  C   UNL     1      -1.666  11.186  18.708  0.00  0.00    +0.000 A 
ATOM      5  C   UNL     1      -1.138  10.267  17.789  0.00  0.00    +0.000 A 
ATOM      6  C   UNL     1      -1.893   9.934  16.641  0.00  0.00    +0.000 A 
ATOM      7  C   UNL     1       0.155   9.875  18.253  0.00  0.00    +0.000 A 
ATOM      8  C   UNL     1       0.391  10.599  19.401  0.00  0.00    +0.000 A 
ATOM      9  N   UNL     1      -0.726  11.343  19.728  0.00  0.00    +0.000 N 
ENDROOT
BRANCH   9  10
ATOM     10  C   UNL     1      -0.843  12.125  20.915  0.00  0.00    +0.000 A 
ATOM     11  C   UNL     1      -0.311  13.423  20.949  0.00  0.00    +0.000 A 
ATOM     12  C   UNL     1      -0.420  14.195  22.109  0.00  0.00    +0.000 A 
ATOM     13  C   UNL     1      -1.041  13.671  23.242  0.00  0.00    +0.000 A 
ATOM     14  C   UNL     1      -1.549  12.374  23.218  0.00  0.00    +0.000 A 
ATOM     15  C   UNL     1      -1.450  11.600  22.061  0.00  0.00    +0.000 A 
ENDBRANCH   9  10
BRANCH   1  17
ATOM     16  C   UNL     1      -3.295  10.113  14.019  0.00  0.00    +0.000 C 
ATOM     17  C   UNL     1      -3.903  10.214  15.210  0.00  0.00    +0.000 C 
BRANCH  16  19
ATOM     18  O   UNL     1      -5.145   9.561  12.670  0.00  0.00    +0.000 OA
ATOM     19  C   UNL     1      -3.942   9.751  12.746  0.00  0.00    +0.000 C 
BRANCH  19  20
ATOM     20  O   UNL     1      -3.110   9.614  11.698  0.00  0.00    +0.000 OA
ATOM     21  H   UNL     1      -2.721   8.727  11.599  0.00  0.00    +0.000 HD
ENDBRANCH  19  20
ENDBRANCH  16  19
ENDBRANCH   1  17
BRANCH   7  22
ATOM     22  C   UNL     1       1.086   8.909  17.582  0.00  0.00    +0.000 C 
BRANCH  22  23
ATOM     23  C   UNL     1       2.444   8.754  18.278  0.00  0.00    +0.000 C 
BRANCH  23  24
ATOM     24  C   UNL     1       3.039   7.398  17.986  0.00  0.00    +0.000 A 
ATOM     25  C   UNL     1       4.204   7.288  17.216  0.00  0.00    +0.000 A 
ATOM     26  C   UNL     1       4.709   6.033  16.877  0.00  0.00    +0.000 A 
ATOM     27  C   UNL     1       4.055   4.879  17.306  0.00  0.00    +0.000 A 
ATOM     28  C   UNL     1       2.902   4.979  18.083  0.00  0.00    +0.000 A 
ATOM     29  C   UNL     1       2.395   6.232  18.423  0.00  0.00    +0.000 A 
ENDBRANCH  23  24
ENDBRANCH  22  23
ENDBRANCH   7  22
TORSDOF 7
ENDMDL
MODEL 9
REMARK VINA RESULT:      -7.7      5.052      7.992
REMARK  Name = 
REMARK  7 active torsions:
REMARK  status: ('A' for Active; 'I' for Inactive)
REMARK    1  A    between atoms: C_2  and  O_3
REMARK    2  A    between atoms: C_2  and  C_4
REMARK    3  A    between atoms: C_5  and  C_6
REMARK    4  A    between atoms: C_12  and  C_13
REMARK    5  A    between atoms: C_13  and  C_14
REMARK    6  A    between atoms: C_14  and  C_15
REMARK    7  A    between atoms: N_22  and  C_23
REMARK                            x       y       z     vdW  Elec       q    Type
REMARK                         _______ _______ _______ _____ _____    ______ ____
ROOT
ATOM      1  C   UNL     1      -3.107  10.610  16.250  0.00  0.00    +0.000 A 
ATOM      2  C   UNL     1      -4.406  11.029  16.518  0.00  0.00    +0.000 A 
ATOM      3  C   UNL     1      -4.728  11.641  17.733  0.00  0.00    +0.000 A 
ATOM      4  C   UNL     1      -3.721  11.810  18.705  0.00  0.00    +0.000 A 
ATOM      5  C   UNL     1      -2.400  11.417  18.443  0.00  0.00    +0.000 A 
ATOM      6  C   UNL     1      -2.101  10.797  17.207  0.00  0.00    +0.000 A 
ATOM      7  C   UNL     1      -1.598  11.792  19.564  0.00  0.00    +0.000 A 
ATOM      8  C   UNL     1      -2.438  12.440  20.442  0.00  0.00    +0.000 A 
ATOM      9  N   UNL     1      -3.736  12.399  19.971  0.00  0.00    +0.000 N 
ENDROOT
BRANCH   9  10
ATOM     10  C   UNL     1      -4.862  12.893  20.694  0.00  0.00    +0.000 A 
ATOM     11  C   UNL     1      -6.154  12.470  20.346  0.00  0.00    +0.000 A 
ATOM     12  C   UNL     1      -7.262  12.951  21.048  0.00  0.00    +0.000 A 
ATOM     13  C   UNL     1      -7.090  13.866  22.085  0.00  0.00    +0.000 A 
ATOM     14  C   UNL     1      -5.810  14.305  22.418  0.00  0.00    +0.000 A 
ATOM     15  C   UNL     1      -4.698  13.824  21.725  0.00  0.00    +0.000 A 
ENDBRANCH   9  10
BRANCH   1  17
ATOM     16  C   UNL     1      -3.568  10.213  13.891  0.00  0.00    +0.000 C 
ATOM     17  C   UNL     1      -2.791   9.992  14.961  0.00  0.00    +0.000 C 
BRANCH  16  19
ATOM     18  O   UNL     1      -4.262   9.448  11.773  0.00  0.00    +0.000 OA
ATOM     19  C   UNL     1      -3.338   9.688  12.534  0.00  0.00    +0.000 C 
BRANCH  19  20
ATOM     20  O   UNL     1      -2.050   9.463  12.217  0.00  0.00    +0.000 OA
ATOM     21  H   UNL     1      -1.736   9.934  11.425  0.00  0.00    +0.000 HD
ENDBRANCH  19  20
ENDBRANCH  16  19
ENDBRANCH   1  17
BRANCH   7  22
ATOM     22  C   UNL     1      -0.122  11.570  19.716  0.00  0.00    +0.000 C 
BRANCH  22  23
ATOM     23  C   UNL     1       0.248  10.367  20.592  0.00  0.00    +0.000 C 
BRANCH  23  24
ATOM     24  C   UNL     1       0.998   9.334  19.787  0.00  0.00    +0.000 A 
ATOM     25  C   UNL     1       1.516   8.191  20.410  0.00  0.00    +0.000 A 
ATOM     26  C   UNL     1       2.277   7.277  19.683  0.00  0.00    +0.000 A 
ATOM     27  C   UNL     1       2.526   7.495  18.329  0.00  0.00    +0.000 A 
ATOM     28  C   UNL     1       2.005   8.624  17.698  0.00  0.00    +0.000 A 
ATOM     29  C   UNL     1       1.243   9.540  18.422  0.00  0.00    +0.000 A 
ENDBRANCH  23  24
ENDBRANCH  22  23
ENDBRANCH   7  22
TORSDOF 7
ENDMDL
