MODEL 1
REMARK VINA RESULT:      -9.0      0.000      0.000
REMARK  Name = 
REMARK  10 active torsions:
REMARK  status: ('A' for Active; 'I' for Inactive)
REMARK    1  A    between atoms: C_1  and  C_2
REMARK    2  A    between atoms: C_2  and  C_3
REMARK    3  A    between atoms: N_10  and  C_11
REMARK    4  A    between atoms: C_15  and  O_16
REMARK    5  A    between atoms: O_16  and  C_17
REMARK    6  A    between atoms: C_17  and  C_18
REMARK    7  A    between atoms: C_18  and  O_19
REMARK    8  A    between atoms: O_19  and  C_20
REMARK    9  A    between atoms: C_23  and  N_24
REMARK   10  A    between atoms: C_25  and  C_27
REMARK                            x       y       z     vdW  Elec       q    Type
REMARK                         _______ _______ _______ _____ _____    ______ ____
ROOT
ATOM      1  C   UNL     1       4.649   4.572  17.960  0.00  0.00    +0.000 A 
ATOM      2  C   UNL     1       4.518   3.947  16.710  0.00  0.00    +0.000 A 
ATOM      3  C   UNL     1       5.320   4.299  15.620  0.00  0.00    +0.000 A 
ATOM      4  C   UNL     1       6.205   5.363  15.727  0.00  0.00    +0.000 A 
ATOM      5  C   UNL     1       6.304   6.067  16.923  0.00  0.00    +0.000 A 
ATOM      6  C   UNL     1       5.576   5.631  18.037  0.00  0.00    +0.000 A 
ENDROOT
BRANCH   1  16
ATOM      7  C   UNL     1       1.646   4.158  17.924  0.00  0.00    +0.000 C 
ATOM      8  C   UNL     1       2.447   4.693  19.130  0.00  0.00    +0.000 C 
ATOM      9  C   UNL     1       2.339   6.229  19.163  0.00  0.00    +0.000 C 
ATOM     10  N   UNL     1       1.687   4.287  20.318  0.00  0.00    +0.000 NA
ATOM     11  C   UNL     1       2.124   3.298  21.005  0.00  0.00    +0.000 C 
ATOM     12  N   UNL     1       1.431   2.913  22.103  0.00  0.00    +0.000 N 
ATOM     13  N   UNL     1       3.225   2.574  20.705  0.00  0.00    +0.000 NA
ATOM     14  C   UNL     1       4.034   3.041  19.810  0.00  0.00    +0.000 C 
ATOM     15  N   UNL     1       5.171   2.316  19.619  0.00  0.00    +0.000 N 
ATOM     16  N   UNL     1       3.849   4.195  19.076  0.00  0.00    +0.000 N 
ATOM     17  H   UNL     1       0.469   3.220  22.081  0.00  0.00    +0.000 HD
ATOM     18  H   UNL     1       1.563   1.934  22.319  0.00  0.00    +0.000 HD
ATOM     19  H   UNL     1       5.277   1.608  20.338  0.00  0.00    +0.000 HD
ATOM     20  H   UNL     1       6.006   2.878  19.508  0.00  0.00    +0.000 HD
ENDBRANCH   1  16
BRANCH   5  21
ATOM     21  O   UNL     1       7.125   7.159  16.870  0.00  0.00    +0.000 OA
BRANCH  21  22
ATOM     22  C   UNL     1       7.750   7.591  18.079  0.00  0.00    +0.000 C 
BRANCH  22  23
ATOM     23  C   UNL     1       8.224   9.030  17.921  0.00  0.00    +0.000 C 
BRANCH  23  24
ATOM     24  O   UNL     1       9.038   9.387  19.033  0.00  0.00    +0.000 OA
BRANCH  24  25
ATOM     25  C   UNL     1       9.445  10.692  19.057  0.00  0.00    +0.000 A 
ATOM     26  C   UNL     1       8.960  11.477  18.015  0.00  0.00    +0.000 A 
ATOM     27  C   UNL     1       9.289  12.833  17.934  0.00  0.00    +0.000 A 
ATOM     28  C   UNL     1      10.090  13.429  18.908  0.00  0.00    +0.000 A 
ATOM     29  C   UNL     1      10.570  12.641  19.958  0.00  0.00    +0.000 A 
ATOM     30  C   UNL     1      10.248  11.278  20.033  0.00  0.00    +0.000 A 
BRANCH  28  31
ATOM     31  N   UNL     1      10.436  14.793  18.906  0.00  0.00    +0.000 N 
ATOM     32  C   UNL     1      10.105  15.746  19.859  0.00  0.00    +0.000 C 
ATOM     33  O   UNL     1       9.460  15.550  20.890  0.00  0.00    +0.000 OA
ATOM     34  H   UNL     1      10.949  15.126  18.095  0.00  0.00    +0.000 HD
BRANCH  32  35
ATOM     35  C   UNL     1      10.694  17.110  19.587  0.00  0.00    +0.000 C 
ATOM     36 BR   UNL     1      12.332  16.896  18.566  0.00  0.00    +0.000 Br
ENDBRANCH  32  35
ENDBRANCH  28  31
ENDBRANCH  24  25
ENDBRANCH  23  24
ENDBRANCH  22  23
ENDBRANCH  21  22
ENDBRANCH   5  21
TORSDOF 8
ENDMDL
MODEL 2
REMARK VINA RESULT:      -8.8      1.196      1.196
REMARK  Name = 
REMARK  10 active torsions:
REMARK  status: ('A' for Active; 'I' for Inactive)
REMARK    1  A    between atoms: C_1  and  C_2
REMARK    2  A    between atoms: C_2  and  C_3
REMARK    3  A    between atoms: N_10  and  C_11
REMARK    4  A    between atoms: C_15  and  O_16
REMARK    5  A    between atoms: O_16  and  C_17
REMARK    6  A    between atoms: C_17  and  C_18
REMARK    7  A    between atoms: C_18  and  O_19
REMARK    8  A    between atoms: O_19  and  C_20
REMARK    9  A    between atoms: C_23  and  N_24
REMARK   10  A    between atoms: C_25  and  C_27
REMARK                            x       y       z     vdW  Elec       q    Type
REMARK                         _______ _______ _______ _____ _____    ______ ____
ROOT
ATOM      1  C   UNL     1       4.730   4.359  18.066  0.00  0.00    +0.000 A 
ATOM      2  C   UNL     1       4.432   3.983  16.747  0.00  0.00    +0.000 A 
ATOM      3  C   UNL     1       5.279   4.297  15.680  0.00  0.00    +0.000 A 
ATOM      4  C   UNL     1       6.399   5.089  15.895  0.00  0.00    +0.000 A 
ATOM      5  C   UNL     1       6.684   5.556  17.174  0.00  0.00    +0.000 A 
ATOM      6  C   UNL     1       5.888   5.140  18.249  0.00  0.00    +0.000 A 
ENDROOT
BRANCH   1  16
ATOM      7  C   UNL     1       1.703   4.206  17.965  0.00  0.00    +0.000 C 
ATOM      8  C   UNL     1       2.523   4.631  19.202  0.00  0.00    +0.000 C 
ATOM      9  C   UNL     1       2.546   6.169  19.284  0.00  0.00    +0.000 C 
ATOM     10  N   UNL     1       1.708   4.254  20.363  0.00  0.00    +0.000 NA
ATOM     11  C   UNL     1       2.045   3.211  21.023  0.00  0.00    +0.000 C 
ATOM     12  N   UNL     1       1.300   2.852  22.097  0.00  0.00    +0.000 N 
ATOM     13  N   UNL     1       3.086   2.405  20.719  0.00  0.00    +0.000 NA
ATOM     14  C   UNL     1       3.949   2.828  19.854  0.00  0.00    +0.000 C 
ATOM     15  N   UNL     1       5.024   2.014  19.658  0.00  0.00    +0.000 N 
ATOM     16  N   UNL     1       3.878   4.017  19.155  0.00  0.00    +0.000 N 
ATOM     17  H   UNL     1       0.368   3.241  22.068  0.00  0.00    +0.000 HD
ATOM     18  H   UNL     1       1.344   1.859  22.281  0.00  0.00    +0.000 HD
ATOM     19  H   UNL     1       5.055   1.278  20.355  0.00  0.00    +0.000 HD
ATOM     20  H   UNL     1       5.906   2.506  19.580  0.00  0.00    +0.000 HD
ENDBRANCH   1  16
BRANCH   5  21
ATOM     21  O   UNL     1       7.746   6.415  17.239  0.00  0.00    +0.000 OA
BRANCH  21  22
ATOM     22  C   UNL     1       7.895   7.214  18.413  0.00  0.00    +0.000 C 
BRANCH  22  23
ATOM     23  C   UNL     1       8.200   8.652  18.015  0.00  0.00    +0.000 C 
BRANCH  23  24
ATOM     24  O   UNL     1       9.224   9.171  18.855  0.00  0.00    +0.000 OA
BRANCH  24  25
ATOM     25  C   UNL     1       9.238  10.533  18.976  0.00  0.00    +0.000 A 
ATOM     26  C   UNL     1       8.820  11.227  17.844  0.00  0.00    +0.000 A 
ATOM     27  C   UNL     1       8.774  12.624  17.844  0.00  0.00    +0.000 A 
ATOM     28  C   UNL     1       9.123  13.347  18.984  0.00  0.00    +0.000 A 
ATOM     29  C   UNL     1       9.535  12.648  20.123  0.00  0.00    +0.000 A 
ATOM     30  C   UNL     1       9.591  11.247  20.119  0.00  0.00    +0.000 A 
BRANCH  28  31
ATOM     31  N   UNL     1       9.072  14.751  19.064  0.00  0.00    +0.000 N 
ATOM     32  C   UNL     1       9.969  15.658  18.518  0.00  0.00    +0.000 C 
ATOM     33  O   UNL     1      10.963  15.382  17.845  0.00  0.00    +0.000 OA
ATOM     34  H   UNL     1       8.318  15.143  19.621  0.00  0.00    +0.000 HD
BRANCH  32  35
ATOM     35  C   UNL     1       9.584  17.102  18.734  0.00  0.00    +0.000 C 
ATOM     36 BR   UNL     1       7.883  17.166  19.670  0.00  0.00    +0.000 Br
ENDBRANCH  32  35
ENDBRANCH  28  31
ENDBRANCH  24  25
ENDBRANCH  23  24
ENDBRANCH  22  23
ENDBRANCH  21  22
ENDBRANCH   5  21
TORSDOF 8
ENDMDL
MODEL 3
REMARK VINA RESULT:      -8.7      7.303      9.835
REMARK  Name = 
REMARK  10 active torsions:
REMARK  status: ('A' for Active; 'I' for Inactive)
REMARK    1  A    between atoms: C_1  and  C_2
REMARK    2  A    between atoms: C_2  and  C_3
REMARK    3  A    between atoms: N_10  and  C_11
REMARK    4  A    between atoms: C_15  and  O_16
REMARK    5  A    between atoms: O_16  and  C_17
REMARK    6  A    between atoms: C_17  and  C_18
REMARK    7  A    between atoms: C_18  and  O_19
REMARK    8  A    between atoms: O_19  and  C_20
REMARK    9  A    between atoms: C_23  and  N_24
REMARK   10  A    between atoms: C_25  and  C_27
REMARK                            x       y       z     vdW  Elec       q    Type
REMARK                         _______ _______ _______ _____ _____    ______ ____
ROOT
ATOM      1  C   UNL     1       2.787   6.516  19.216  0.00  0.00    +0.000 A 
ATOM      2  C   UNL     1       2.859   7.090  17.937  0.00  0.00    +0.000 A 
ATOM      3  C   UNL     1       2.339   8.360  17.667  0.00  0.00    +0.000 A 
ATOM      4  C   UNL     1       1.638   9.044  18.650  0.00  0.00    +0.000 A 
ATOM      5  C   UNL     1       1.467   8.473  19.907  0.00  0.00    +0.000 A 
ATOM      6  C   UNL     1       2.089   7.252  20.194  0.00  0.00    +0.000 A 
ENDROOT
BRANCH   1  16
ATOM      7  C   UNL     1       1.868   3.892  18.006  0.00  0.00    +0.000 C 
ATOM      8  C   UNL     1       2.433   4.054  19.433  0.00  0.00    +0.000 C 
ATOM      9  C   UNL     1       1.261   4.123  20.431  0.00  0.00    +0.000 C 
ATOM     10  N   UNL     1       3.061   2.768  19.756  0.00  0.00    +0.000 NA
ATOM     11  C   UNL     1       4.339   2.693  19.715  0.00  0.00    +0.000 C 
ATOM     12  N   UNL     1       4.931   1.511  20.010  0.00  0.00    +0.000 N 
ATOM     13  N   UNL     1       5.162   3.707  19.368  0.00  0.00    +0.000 NA
ATOM     14  C   UNL     1       4.664   4.899  19.302  0.00  0.00    +0.000 C 
ATOM     15  N   UNL     1       5.561   5.891  19.041  0.00  0.00    +0.000 N 
ATOM     16  N   UNL     1       3.339   5.234  19.496  0.00  0.00    +0.000 N 
ATOM     17  H   UNL     1       4.304   0.727  19.903  0.00  0.00    +0.000 HD
ATOM     18  H   UNL     1       5.828   1.406  19.557  0.00  0.00    +0.000 HD
ATOM     19  H   UNL     1       6.512   5.547  19.105  0.00  0.00    +0.000 HD
ATOM     20  H   UNL     1       5.418   6.731  19.587  0.00  0.00    +0.000 HD
ENDBRANCH   1  16
BRANCH   5  21
ATOM     21  O   UNL     1       0.666   9.192  20.751  0.00  0.00    +0.000 OA
BRANCH  21  22
ATOM     22  C   UNL     1       0.991   9.202  22.141  0.00  0.00    +0.000 C 
BRANCH  22  23
ATOM     23  C   UNL     1      -0.247   9.566  22.950  0.00  0.00    +0.000 C 
BRANCH  23  24
ATOM     24  O   UNL     1      -0.278  10.973  23.165  0.00  0.00    +0.000 OA
BRANCH  24  25
ATOM     25  C   UNL     1      -1.424  11.595  22.754  0.00  0.00    +0.000 A 
ATOM     26  C   UNL     1      -1.487  11.870  21.391  0.00  0.00    +0.000 A 
ATOM     27  C   UNL     1      -2.614  12.489  20.842  0.00  0.00    +0.000 A 
ATOM     28  C   UNL     1      -3.703  12.823  21.646  0.00  0.00    +0.000 A 
ATOM     29  C   UNL     1      -3.642  12.540  23.014  0.00  0.00    +0.000 A 
ATOM     30  C   UNL     1      -2.508  11.927  23.565  0.00  0.00    +0.000 A 
BRANCH  28  31
ATOM     31  N   UNL     1      -4.880  13.421  21.156  0.00  0.00    +0.000 N 
ATOM     32  C   UNL     1      -6.099  12.804  20.916  0.00  0.00    +0.000 C 
ATOM     33  O   UNL     1      -6.365  11.617  21.113  0.00  0.00    +0.000 OA
ATOM     34  H   UNL     1      -4.816  14.405  20.911  0.00  0.00    +0.000 HD
BRANCH  32  35
ATOM     35  C   UNL     1      -7.180  13.751  20.453  0.00  0.00    +0.000 C 
ATOM     36 BR   UNL     1      -6.351  15.278  19.585  0.00  0.00    +0.000 Br
ENDBRANCH  32  35
ENDBRANCH  28  31
ENDBRANCH  24  25
ENDBRANCH  23  24
ENDBRANCH  22  23
ENDBRANCH  21  22
ENDBRANCH   5  21
TORSDOF 8
ENDMDL
MODEL 4
REMARK VINA RESULT:      -8.6      7.469      9.876
REMARK  Name = 
REMARK  10 active torsions:
REMARK  status: ('A' for Active; 'I' for Inactive)
REMARK    1  A    between atoms: C_1  and  C_2
REMARK    2  A    between atoms: C_2  and  C_3
REMARK    3  A    between atoms: N_10  and  C_11
REMARK    4  A    between atoms: C_15  and  O_16
REMARK    5  A    between atoms: O_16  and  C_17
REMARK    6  A    between atoms: C_17  and  C_18
REMARK    7  A    between atoms: C_18  and  O_19
REMARK    8  A    between atoms: O_19  and  C_20
REMARK    9  A    between atoms: C_23  and  N_24
REMARK   10  A    between atoms: C_25  and  C_27
REMARK                            x       y       z     vdW  Elec       q    Type
REMARK                         _______ _______ _______ _____ _____    ______ ____
ROOT
ATOM      1  C   UNL     1       2.874   6.548  19.108  0.00  0.00    +0.000 A 
ATOM      2  C   UNL     1       3.025   7.117  17.833  0.00  0.00    +0.000 A 
ATOM      3  C   UNL     1       2.515   8.382  17.524  0.00  0.00    +0.000 A 
ATOM      4  C   UNL     1       1.748   9.066  18.456  0.00  0.00    +0.000 A 
ATOM      5  C   UNL     1       1.501   8.500  19.703  0.00  0.00    +0.000 A 
ATOM      6  C   UNL     1       2.111   7.284  20.036  0.00  0.00    +0.000 A 
ENDROOT
BRANCH   1  16
ATOM      7  C   UNL     1       1.915   3.892  18.004  0.00  0.00    +0.000 C 
ATOM      8  C   UNL     1       2.496   4.100  19.418  0.00  0.00    +0.000 C 
ATOM      9  C   UNL     1       1.336   4.218  20.424  0.00  0.00    +0.000 C 
ATOM     10  N   UNL     1       3.114   2.819  19.781  0.00  0.00    +0.000 NA
ATOM     11  C   UNL     1       4.391   2.729  19.730  0.00  0.00    +0.000 C 
ATOM     12  N   UNL     1       4.973   1.552  20.062  0.00  0.00    +0.000 N 
ATOM     13  N   UNL     1       5.221   3.720  19.338  0.00  0.00    +0.000 NA
ATOM     14  C   UNL     1       4.735   4.915  19.234  0.00  0.00    +0.000 C 
ATOM     15  N   UNL     1       5.639   5.886  18.927  0.00  0.00    +0.000 N 
ATOM     16  N   UNL     1       3.416   5.271  19.428  0.00  0.00    +0.000 N 
ATOM     17  H   UNL     1       4.337   0.771  19.990  0.00  0.00    +0.000 HD
ATOM     18  H   UNL     1       5.865   1.421  19.604  0.00  0.00    +0.000 HD
ATOM     19  H   UNL     1       6.588   5.535  18.995  0.00  0.00    +0.000 HD
ATOM     20  H   UNL     1       5.511   6.748  19.443  0.00  0.00    +0.000 HD
ENDBRANCH   1  16
BRANCH   5  21
ATOM     21  O   UNL     1       0.643   9.217  20.490  0.00  0.00    +0.000 OA
BRANCH  21  22
ATOM     22  C   UNL     1       0.142   8.599  21.676  0.00  0.00    +0.000 C 
BRANCH  22  23
ATOM     23  C   UNL     1       0.158   9.605  22.819  0.00  0.00    +0.000 C 
BRANCH  23  24
ATOM     24  O   UNL     1       0.157  10.926  22.290  0.00  0.00    +0.000 OA
BRANCH  24  25
ATOM     25  C   UNL     1      -1.051  11.565  22.330  0.00  0.00    +0.000 A 
ATOM     26  C   UNL     1      -1.418  12.201  21.148  0.00  0.00    +0.000 A 
ATOM     27  C   UNL     1      -2.638  12.877  21.053  0.00  0.00    +0.000 A 
ATOM     28  C   UNL     1      -3.519  12.907  22.133  0.00  0.00    +0.000 A 
ATOM     29  C   UNL     1      -3.153  12.261  23.318  0.00  0.00    +0.000 A 
ATOM     30  C   UNL     1      -1.925  11.592  23.416  0.00  0.00    +0.000 A 
BRANCH  28  31
ATOM     31  N   UNL     1      -4.775  13.542  22.099  0.00  0.00    +0.000 N 
ATOM     32  C   UNL     1      -6.009  12.951  21.871  0.00  0.00    +0.000 C 
ATOM     33  O   UNL     1      -6.218  11.753  21.679  0.00  0.00    +0.000 OA
ATOM     34  H   UNL     1      -4.771  14.552  22.210  0.00  0.00    +0.000 HD
BRANCH  32  35
ATOM     35  C   UNL     1      -7.171  13.912  21.968  0.00  0.00    +0.000 C 
ATOM     36 BR   UNL     1      -7.846  13.903  23.789  0.00  0.00    +0.000 Br
ENDBRANCH  32  35
ENDBRANCH  28  31
ENDBRANCH  24  25
ENDBRANCH  23  24
ENDBRANCH  22  23
ENDBRANCH  21  22
ENDBRANCH   5  21
TORSDOF 8
ENDMDL
MODEL 5
REMARK VINA RESULT:      -8.6      1.303      1.354
REMARK  Name = 
REMARK  10 active torsions:
REMARK  status: ('A' for Active; 'I' for Inactive)
REMARK    1  A    between atoms: C_1  and  C_2
REMARK    2  A    between atoms: C_2  and  C_3
REMARK    3  A    between atoms: N_10  and  C_11
REMARK    4  A    between atoms: C_15  and  O_16
REMARK    5  A    between atoms: O_16  and  C_17
REMARK    6  A    between atoms: C_17  and  C_18
REMARK    7  A    between atoms: C_18  and  O_19
REMARK    8  A    between atoms: O_19  and  C_20
REMARK    9  A    between atoms: C_23  and  N_24
REMARK   10  A    between atoms: C_25  and  C_27
REMARK                            x       y       z     vdW  Elec       q    Type
REMARK                         _______ _______ _______ _____ _____    ______ ____
ROOT
ATOM      1  C   UNL     1       5.009   4.696  18.545  0.00  0.00    +0.000 A 
ATOM      2  C   UNL     1       4.938   4.398  17.175  0.00  0.00    +0.000 A 
ATOM      3  C   UNL     1       5.914   4.835  16.273  0.00  0.00    +0.000 A 
ATOM      4  C   UNL     1       6.932   5.673  16.706  0.00  0.00    +0.000 A 
ATOM      5  C   UNL     1       6.990   6.064  18.040  0.00  0.00    +0.000 A 
ATOM      6  C   UNL     1       6.070   5.528  18.951  0.00  0.00    +0.000 A 
ENDROOT
BRANCH   1  16
ATOM      7  C   UNL     1       2.019   4.595  18.046  0.00  0.00    +0.000 C 
ATOM      8  C   UNL     1       2.675   4.850  19.420  0.00  0.00    +0.000 C 
ATOM      9  C   UNL     1       2.682   6.365  19.698  0.00  0.00    +0.000 C 
ATOM     10  N   UNL     1       1.722   4.340  20.412  0.00  0.00    +0.000 NA
ATOM     11  C   UNL     1       1.977   3.217  20.972  0.00  0.00    +0.000 C 
ATOM     12  N   UNL     1       1.104   2.735  21.889  0.00  0.00    +0.000 N 
ATOM     13  N   UNL     1       3.051   2.443  20.701  0.00  0.00    +0.000 NA
ATOM     14  C   UNL     1       4.015   2.962  20.011  0.00  0.00    +0.000 C 
ATOM     15  N   UNL     1       5.109   2.166  19.851  0.00  0.00    +0.000 N 
ATOM     16  N   UNL     1       4.028   4.230  19.466  0.00  0.00    +0.000 N 
ATOM     17  H   UNL     1       0.182   3.135  21.794  0.00  0.00    +0.000 HD
ATOM     18  H   UNL     1       1.128   1.726  21.950  0.00  0.00    +0.000 HD
ATOM     19  H   UNL     1       5.055   1.348  20.447  0.00  0.00    +0.000 HD
ATOM     20  H   UNL     1       5.991   2.653  19.947  0.00  0.00    +0.000 HD
ENDBRANCH   1  16
BRANCH   5  21
ATOM     21  O   UNL     1       7.969   6.976  18.320  0.00  0.00    +0.000 OA
BRANCH  21  22
ATOM     22  C   UNL     1       7.854   8.282  17.755  0.00  0.00    +0.000 C 
BRANCH  22  23
ATOM     23  C   UNL     1       8.614   9.280  18.618  0.00  0.00    +0.000 C 
BRANCH  23  24
ATOM     24  O   UNL     1       9.240  10.250  17.787  0.00  0.00    +0.000 OA
BRANCH  24  25
ATOM     25  C   UNL     1       9.783  11.316  18.448  0.00  0.00    +0.000 A 
ATOM     26  C   UNL     1       9.741  12.522  17.754  0.00  0.00    +0.000 A 
ATOM     27  C   UNL     1      10.250  13.690  18.328  0.00  0.00    +0.000 A 
ATOM     28  C   UNL     1      10.788  13.674  19.614  0.00  0.00    +0.000 A 
ATOM     29  C   UNL     1      10.823  12.464  20.314  0.00  0.00    +0.000 A 
ATOM     30  C   UNL     1      10.321  11.290  19.734  0.00  0.00    +0.000 A 
BRANCH  28  31
ATOM     31  N   UNL     1      11.291  14.817  20.264  0.00  0.00    +0.000 N 
ATOM     32  C   UNL     1      10.598  15.682  21.099  0.00  0.00    +0.000 C 
ATOM     33  O   UNL     1       9.416  15.582  21.431  0.00  0.00    +0.000 OA
ATOM     34  H   UNL     1      12.257  15.059  20.066  0.00  0.00    +0.000 HD
BRANCH  32  35
ATOM     35  C   UNL     1      11.455  16.777  21.688  0.00  0.00    +0.000 C 
ATOM     36 BR   UNL     1      11.255  16.763  23.620  0.00  0.00    +0.000 Br
ENDBRANCH  32  35
ENDBRANCH  28  31
ENDBRANCH  24  25
ENDBRANCH  23  24
ENDBRANCH  22  23
ENDBRANCH  21  22
ENDBRANCH   5  21
TORSDOF 8
ENDMDL
MODEL 6
REMARK VINA RESULT:      -8.4      1.238      1.272
REMARK  Name = 
REMARK  10 active torsions:
REMARK  status: ('A' for Active; 'I' for Inactive)
REMARK    1  A    between atoms: C_1  and  C_2
REMARK    2  A    between atoms: C_2  and  C_3
REMARK    3  A    between atoms: N_10  and  C_11
REMARK    4  A    between atoms: C_15  and  O_16
REMARK    5  A    between atoms: O_16  and  C_17
REMARK    6  A    between atoms: C_17  and  C_18
REMARK    7  A    between atoms: C_18  and  O_19
REMARK    8  A    between atoms: O_19  and  C_20
REMARK    9  A    between atoms: C_23  and  N_24
REMARK   10  A    between atoms: C_25  and  C_27
REMARK                            x       y       z     vdW  Elec       q    Type
REMARK                         _______ _______ _______ _____ _____    ______ ____
ROOT
ATOM      1  C   UNL     1       5.089   4.573  18.433  0.00  0.00    +0.000 A 
ATOM      2  C   UNL     1       5.126   4.150  17.095  0.00  0.00    +0.000 A 
ATOM      3  C   UNL     1       6.155   4.533  16.228  0.00  0.00    +0.000 A 
ATOM      4  C   UNL     1       7.118   5.437  16.654  0.00  0.00    +0.000 A 
ATOM      5  C   UNL     1       7.069   5.948  17.946  0.00  0.00    +0.000 A 
ATOM      6  C   UNL     1       6.098   5.470  18.835  0.00  0.00    +0.000 A 
ENDROOT
BRANCH   1  16
ATOM      7  C   UNL     1       2.134   4.434  17.765  0.00  0.00    +0.000 C 
ATOM      8  C   UNL     1       2.708   4.775  19.157  0.00  0.00    +0.000 C 
ATOM      9  C   UNL     1       2.700   6.305  19.341  0.00  0.00    +0.000 C 
ATOM     10  N   UNL     1       1.696   4.325  20.120  0.00  0.00    +0.000 NA
ATOM     11  C   UNL     1       1.916   3.240  20.763  0.00  0.00    +0.000 C 
ATOM     12  N   UNL     1       0.990   2.813  21.655  0.00  0.00    +0.000 N 
ATOM     13  N   UNL     1       3.003   2.453  20.605  0.00  0.00    +0.000 NA
ATOM     14  C   UNL     1       4.007   2.931  19.943  0.00  0.00    +0.000 C 
ATOM     15  N   UNL     1       5.107   2.129  19.897  0.00  0.00    +0.000 N 
ATOM     16  N   UNL     1       4.054   4.162  19.321  0.00  0.00    +0.000 N 
ATOM     17  H   UNL     1       0.075   3.205  21.480  0.00  0.00    +0.000 HD
ATOM     18  H   UNL     1       1.008   1.811  21.780  0.00  0.00    +0.000 HD
ATOM     19  H   UNL     1       5.017   1.349  20.538  0.00  0.00    +0.000 HD
ATOM     20  H   UNL     1       5.984   2.623  20.015  0.00  0.00    +0.000 HD
ENDBRANCH   1  16
BRANCH   5  21
ATOM     21  O   UNL     1       8.003   6.911  18.210  0.00  0.00    +0.000 OA
BRANCH  21  22
ATOM     22  C   UNL     1       7.708   8.257  17.834  0.00  0.00    +0.000 C 
BRANCH  22  23
ATOM     23  C   UNL     1       8.591   9.212  18.625  0.00  0.00    +0.000 C 
BRANCH  23  24
ATOM     24  O   UNL     1       9.136  10.192  17.749  0.00  0.00    +0.000 OA
BRANCH  24  25
ATOM     25  C   UNL     1       9.720  11.262  18.369  0.00  0.00    +0.000 A 
ATOM     26  C   UNL     1       8.923  12.401  18.448  0.00  0.00    +0.000 A 
ATOM     27  C   UNL     1       9.398  13.558  19.072  0.00  0.00    +0.000 A 
ATOM     28  C   UNL     1      10.668  13.585  19.647  0.00  0.00    +0.000 A 
ATOM     29  C   UNL     1      11.464  12.438  19.575  0.00  0.00    +0.000 A 
ATOM     30  C   UNL     1      10.991  11.281  18.940  0.00  0.00    +0.000 A 
BRANCH  28  31
ATOM     31  N   UNL     1      11.198  14.704  20.317  0.00  0.00    +0.000 N 
ATOM     32  C   UNL     1      11.982  15.713  19.776  0.00  0.00    +0.000 C 
ATOM     33  O   UNL     1      12.333  15.811  18.600  0.00  0.00    +0.000 OA
ATOM     34  H   UNL     1      11.023  14.755  21.316  0.00  0.00    +0.000 HD
BRANCH  32  35
ATOM     35  C   UNL     1      12.330  16.806  20.759  0.00  0.00    +0.000 C 
ATOM     36 BR   UNL     1      11.810  18.519  20.005  0.00  0.00    +0.000 Br
ENDBRANCH  32  35
ENDBRANCH  28  31
ENDBRANCH  24  25
ENDBRANCH  23  24
ENDBRANCH  22  23
ENDBRANCH  21  22
ENDBRANCH   5  21
TORSDOF 8
ENDMDL
MODEL 7
REMARK VINA RESULT:      -8.4      1.314      1.556
REMARK  Name = 
REMARK  10 active torsions:
REMARK  status: ('A' for Active; 'I' for Inactive)
REMARK    1  A    between atoms: C_1  and  C_2
REMARK    2  A    between atoms: C_2  and  C_3
REMARK    3  A    between atoms: N_10  and  C_11
REMARK    4  A    between atoms: C_15  and  O_16
REMARK    5  A    between atoms: O_16  and  C_17
REMARK    6  A    between atoms: C_17  and  C_18
REMARK    7  A    between atoms: C_18  and  O_19
REMARK    8  A    between atoms: O_19  and  C_20
REMARK    9  A    between atoms: C_23  and  N_24
REMARK   10  A    between atoms: C_25  and  C_27
REMARK                            x       y       z     vdW  Elec       q    Type
REMARK                         _______ _______ _______ _____ _____    ______ ____
ROOT
ATOM      1  C   UNL     1       4.793   4.493  17.709  0.00  0.00    +0.000 A 
ATOM      2  C   UNL     1       4.667   3.904  16.441  0.00  0.00    +0.000 A 
ATOM      3  C   UNL     1       5.560   4.189  15.403  0.00  0.00    +0.000 A 
ATOM      4  C   UNL     1       6.541   5.155  15.579  0.00  0.00    +0.000 A 
ATOM      5  C   UNL     1       6.646   5.826  16.793  0.00  0.00    +0.000 A 
ATOM      6  C   UNL     1       5.817   5.449  17.857  0.00  0.00    +0.000 A 
ENDROOT
BRANCH   1  16
ATOM      7  C   UNL     1       1.818   3.976  17.426  0.00  0.00    +0.000 C 
ATOM      8  C   UNL     1       2.486   4.636  18.652  0.00  0.00    +0.000 C 
ATOM      9  C   UNL     1       2.335   6.165  18.543  0.00  0.00    +0.000 C 
ATOM     10  N   UNL     1       1.626   4.303  19.794  0.00  0.00    +0.000 NA
ATOM     11  C   UNL     1       2.019   3.390  20.601  0.00  0.00    +0.000 C 
ATOM     12  N   UNL     1       1.234   3.074  21.658  0.00  0.00    +0.000 N 
ATOM     13  N   UNL     1       3.162   2.682  20.469  0.00  0.00    +0.000 NA
ATOM     14  C   UNL     1       4.041   3.100  19.617  0.00  0.00    +0.000 C 
ATOM     15  N   UNL     1       5.210   2.400  19.597  0.00  0.00    +0.000 N 
ATOM     16  N   UNL     1       3.899   4.182  18.773  0.00  0.00    +0.000 N 
ATOM     17  H   UNL     1       0.270   3.345  21.519  0.00  0.00    +0.000 HD
ATOM     18  H   UNL     1       1.369   2.122  21.968  0.00  0.00    +0.000 HD
ATOM     19  H   UNL     1       5.264   1.759  20.380  0.00  0.00    +0.000 HD
ATOM     20  H   UNL     1       6.037   2.979  19.517  0.00  0.00    +0.000 HD
ENDBRANCH   1  16
BRANCH   5  21
ATOM     21  O   UNL     1       7.575   6.829  16.806  0.00  0.00    +0.000 OA
BRANCH  21  22
ATOM     22  C   UNL     1       7.206   8.080  17.388  0.00  0.00    +0.000 C 
BRANCH  22  23
ATOM     23  C   UNL     1       8.342   8.587  18.267  0.00  0.00    +0.000 C 
BRANCH  23  24
ATOM     24  O   UNL     1       8.981   9.688  17.631  0.00  0.00    +0.000 OA
BRANCH  24  25
ATOM     25  C   UNL     1       9.231  10.759  18.442  0.00  0.00    +0.000 A 
ATOM     26  C   UNL     1       9.478  10.442  19.775  0.00  0.00    +0.000 A 
ATOM     27  C   UNL     1       9.764  11.446  20.704  0.00  0.00    +0.000 A 
ATOM     28  C   UNL     1       9.829  12.782  20.309  0.00  0.00    +0.000 A 
ATOM     29  C   UNL     1       9.588  13.099  18.968  0.00  0.00    +0.000 A 
ATOM     30  C   UNL     1       9.292  12.092  18.039  0.00  0.00    +0.000 A 
BRANCH  28  31
ATOM     31  N   UNL     1      10.139  13.840  21.183  0.00  0.00    +0.000 N 
ATOM     32  C   UNL     1       9.248  14.661  21.859  0.00  0.00    +0.000 C 
ATOM     33  O   UNL     1       8.019  14.586  21.824  0.00  0.00    +0.000 OA
ATOM     34  H   UNL     1      11.125  14.055  21.296  0.00  0.00    +0.000 HD
BRANCH  32  35
ATOM     35  C   UNL     1       9.915  15.662  22.773  0.00  0.00    +0.000 C 
ATOM     36 BR   UNL     1      10.219  17.308  21.790  0.00  0.00    +0.000 Br
ENDBRANCH  32  35
ENDBRANCH  28  31
ENDBRANCH  24  25
ENDBRANCH  23  24
ENDBRANCH  22  23
ENDBRANCH  21  22
ENDBRANCH   5  21
TORSDOF 8
ENDMDL
MODEL 8
REMARK VINA RESULT:      -8.4      7.328      9.623
REMARK  Name = 
REMARK  10 active torsions:
REMARK  status: ('A' for Active; 'I' for Inactive)
REMARK    1  A    between atoms: C_1  and  C_2
REMARK    2  A    between atoms: C_2  and  C_3
REMARK    3  A    between atoms: N_10  and  C_11
REMARK    4  A    between atoms: C_15  and  O_16
REMARK    5  A    between atoms: O_16  and  C_17
REMARK    6  A    between atoms: C_17  and  C_18
REMARK    7  A    between atoms: C_18  and  O_19
REMARK    8  A    between atoms: O_19  and  C_20
REMARK    9  A    between atoms: C_23  and  N_24
REMARK   10  A    between atoms: C_25  and  C_27
REMARK                            x       y       z     vdW  Elec       q    Type
REMARK                         _______ _______ _______ _____ _____    ______ ____
ROOT
ATOM      1  C   UNL     1       2.818   6.460  19.247  0.00  0.00    +0.000 A 
ATOM      2  C   UNL     1       2.939   7.102  18.005  0.00  0.00    +0.000 A 
ATOM      3  C   UNL     1       2.415   8.378  17.779  0.00  0.00    +0.000 A 
ATOM      4  C   UNL     1       1.661   9.002  18.764  0.00  0.00    +0.000 A 
ATOM      5  C   UNL     1       1.443   8.363  19.980  0.00  0.00    +0.000 A 
ATOM      6  C   UNL     1       2.068   7.135  20.231  0.00  0.00    +0.000 A 
ENDROOT
BRANCH   1  16
ATOM      7  C   UNL     1       1.930   3.880  17.924  0.00  0.00    +0.000 C 
ATOM      8  C   UNL     1       2.475   3.989  19.364  0.00  0.00    +0.000 C 
ATOM      9  C   UNL     1       1.291   4.012  20.348  0.00  0.00    +0.000 C 
ATOM     10  N   UNL     1       3.108   2.695  19.644  0.00  0.00    +0.000 NA
ATOM     11  C   UNL     1       4.386   2.629  19.616  0.00  0.00    +0.000 C 
ATOM     12  N   UNL     1       4.982   1.440  19.872  0.00  0.00    +0.000 N 
ATOM     13  N   UNL     1       5.208   3.660  19.319  0.00  0.00    +0.000 NA
ATOM     14  C   UNL     1       4.703   4.851  19.293  0.00  0.00    +0.000 C 
ATOM     15  N   UNL     1       5.597   5.857  19.082  0.00  0.00    +0.000 N 
ATOM     16  N   UNL     1       3.374   5.170  19.484  0.00  0.00    +0.000 N 
ATOM     17  H   UNL     1       4.361   0.656  19.726  0.00  0.00    +0.000 HD
ATOM     18  H   UNL     1       5.885   1.357  19.426  0.00  0.00    +0.000 HD
ATOM     19  H   UNL     1       6.550   5.517  19.145  0.00  0.00    +0.000 HD
ATOM     20  H   UNL     1       5.442   6.675  19.659  0.00  0.00    +0.000 HD
ENDBRANCH   1  16
BRANCH   5  21
ATOM     21  O   UNL     1       0.596   9.027  20.824  0.00  0.00    +0.000 OA
BRANCH  21  22
ATOM     22  C   UNL     1       1.020   9.244  22.170  0.00  0.00    +0.000 C 
BRANCH  22  23
ATOM     23  C   UNL     1      -0.165   9.702  23.010  0.00  0.00    +0.000 C 
BRANCH  23  24
ATOM     24  O   UNL     1      -0.223  11.124  23.014  0.00  0.00    +0.000 OA
BRANCH  24  25
ATOM     25  C   UNL     1      -1.320  11.660  22.399  0.00  0.00    +0.000 A 
ATOM     26  C   UNL     1      -2.381  11.962  23.248  0.00  0.00    +0.000 A 
ATOM     27  C   UNL     1      -3.555  12.530  22.745  0.00  0.00    +0.000 A 
ATOM     28  C   UNL     1      -3.676  12.826  21.388  0.00  0.00    +0.000 A 
ATOM     29  C   UNL     1      -2.607  12.529  20.537  0.00  0.00    +0.000 A 
ATOM     30  C   UNL     1      -1.433  11.951  21.041  0.00  0.00    +0.000 A 
BRANCH  28  31
ATOM     31  N   UNL     1      -4.816  13.424  20.819  0.00  0.00    +0.000 N 
ATOM     32  C   UNL     1      -5.033  14.777  20.597  0.00  0.00    +0.000 C 
ATOM     33  O   UNL     1      -4.246  15.691  20.847  0.00  0.00    +0.000 OA
ATOM     34  H   UNL     1      -5.582  12.800  20.584  0.00  0.00    +0.000 HD
BRANCH  32  35
ATOM     35  C   UNL     1      -6.341  15.078  19.904  0.00  0.00    +0.000 C 
ATOM     36 BR   UNL     1      -7.156  13.407  19.345  0.00  0.00    +0.000 Br
ENDBRANCH  32  35
ENDBRANCH  28  31
ENDBRANCH  24  25
ENDBRANCH  23  24
ENDBRANCH  22  23
ENDBRANCH  21  22
ENDBRANCH   5  21
TORSDOF 8
ENDMDL
MODEL 9
REMARK VINA RESULT:      -8.2      1.251      1.282
REMARK  Name = 
REMARK  10 active torsions:
REMARK  status: ('A' for Active; 'I' for Inactive)
REMARK    1  A    between atoms: C_1  and  C_2
REMARK    2  A    between atoms: C_2  and  C_3
REMARK    3  A    between atoms: N_10  and  C_11
REMARK    4  A    between atoms: C_15  and  O_16
REMARK    5  A    between atoms: O_16  and  C_17
REMARK    6  A    between atoms: C_17  and  C_18
REMARK    7  A    between atoms: C_18  and  O_19
REMARK    8  A    between atoms: O_19  and  C_20
REMARK    9  A    between atoms: C_23  and  N_24
REMARK   10  A    between atoms: C_25  and  C_27
REMARK                            x       y       z     vdW  Elec       q    Type
REMARK                         _______ _______ _______ _____ _____    ______ ____
ROOT
ATOM      1  C   UNL     1       4.446   4.659  18.034  0.00  0.00    +0.000 A 
ATOM      2  C   UNL     1       4.447   4.050  16.770  0.00  0.00    +0.000 A 
ATOM      3  C   UNL     1       5.241   4.525  15.722  0.00  0.00    +0.000 A 
ATOM      4  C   UNL     1       5.977   5.690  15.884  0.00  0.00    +0.000 A 
ATOM      5  C   UNL     1       5.937   6.375  17.095  0.00  0.00    +0.000 A 
ATOM      6  C   UNL     1       5.225   5.824  18.169  0.00  0.00    +0.000 A 
ENDROOT
BRANCH   1  16
ATOM      7  C   UNL     1       1.464   4.120  17.936  0.00  0.00    +0.000 C 
ATOM      8  C   UNL     1       2.233   4.589  19.189  0.00  0.00    +0.000 C 
ATOM      9  C   UNL     1       2.058   6.111  19.344  0.00  0.00    +0.000 C 
ATOM     10  N   UNL     1       1.485   4.055  20.332  0.00  0.00    +0.000 NA
ATOM     11  C   UNL     1       1.960   3.034  20.941  0.00  0.00    +0.000 C 
ATOM     12  N   UNL     1       1.278   2.532  21.998  0.00  0.00    +0.000 N 
ATOM     13  N   UNL     1       3.093   2.385  20.595  0.00  0.00    +0.000 NA
ATOM     14  C   UNL     1       3.887   2.957  19.749  0.00  0.00    +0.000 C 
ATOM     15  N   UNL     1       5.056   2.300  19.511  0.00  0.00    +0.000 N 
ATOM     16  N   UNL     1       3.656   4.158  19.108  0.00  0.00    +0.000 N 
ATOM     17  H   UNL     1       0.303   2.798  21.992  0.00  0.00    +0.000 HD
ATOM     18  H   UNL     1       1.451   1.546  22.135  0.00  0.00    +0.000 HD
ATOM     19  H   UNL     1       5.188   1.542  20.171  0.00  0.00    +0.000 HD
ATOM     20  H   UNL     1       5.866   2.905  19.454  0.00  0.00    +0.000 HD
ENDBRANCH   1  16
BRANCH   5  21
ATOM     21  O   UNL     1       6.612   7.564  17.096  0.00  0.00    +0.000 OA
BRANCH  21  22
ATOM     22  C   UNL     1       8.035   7.529  17.216  0.00  0.00    +0.000 C 
BRANCH  22  23
ATOM     23  C   UNL     1       8.489   8.604  18.194  0.00  0.00    +0.000 C 
BRANCH  23  24
ATOM     24  O   UNL     1       7.850   9.836  17.879  0.00  0.00    +0.000 OA
BRANCH  24  25
ATOM     25  C   UNL     1       8.605  10.953  18.101  0.00  0.00    +0.000 A 
ATOM     26  C   UNL     1       8.128  12.114  17.498  0.00  0.00    +0.000 A 
ATOM     27  C   UNL     1       8.801  13.328  17.661  0.00  0.00    +0.000 A 
ATOM     28  C   UNL     1       9.949  13.403  18.448  0.00  0.00    +0.000 A 
ATOM     29  C   UNL     1      10.424  12.238  19.060  0.00  0.00    +0.000 A 
ATOM     30  C   UNL     1       9.753  11.019  18.888  0.00  0.00    +0.000 A 
BRANCH  28  31
ATOM     31  N   UNL     1      10.660  14.596  18.680  0.00  0.00    +0.000 N 
ATOM     32  C   UNL     1      11.779  15.053  17.999  0.00  0.00    +0.000 C 
ATOM     33  O   UNL     1      12.333  14.495  17.051  0.00  0.00    +0.000 OA
ATOM     34  H   UNL     1      10.344  15.163  19.461  0.00  0.00    +0.000 HD
BRANCH  32  35
ATOM     35  C   UNL     1      12.259  16.410  18.457  0.00  0.00    +0.000 C 
ATOM     36 BR   UNL     1      10.843  17.268  19.474  0.00  0.00    +0.000 Br
ENDBRANCH  32  35
ENDBRANCH  28  31
ENDBRANCH  24  25
ENDBRANCH  23  24
ENDBRANCH  22  23
ENDBRANCH  21  22
ENDBRANCH   5  21
TORSDOF 8
ENDMDL
