MODEL 1
REMARK VINA RESULT:      -7.6      0.000      0.000
REMARK  Name = 
REMARK  5 active torsions:
REMARK  status: ('A' for Active; 'I' for Inactive)
REMARK    1  A    between atoms: C_1  and  C_2
REMARK    2  A    between atoms: N_5  and  C_6
REMARK    3  A    between atoms: C_6  and  C_8
REMARK    4  A    between atoms: N_13  and  C_14
REMARK    5  A    between atoms: C_15  and  C_16
REMARK                            x       y       z     vdW  Elec       q    Type
REMARK                         _______ _______ _______ _____ _____    ______ ____
ROOT
ATOM      1  C   UNL     1       2.593   7.155  18.437  0.00  0.00    +0.000 C 
ATOM      2  C   UNL     1       3.464   6.075  17.893  0.00  0.00    +0.000 A 
ATOM      3  S   UNL     1       4.665   6.420  16.663  0.00  0.00    +0.000 S 
ATOM      4  C   UNL     1       5.229   4.724  16.648  0.00  0.00    +0.000 A 
ATOM      5  N   UNL     1       6.193   4.236  15.940  0.00  0.00    +0.000 NA
ATOM      6  N   UNL     1       4.427   3.999  17.532  0.00  0.00    +0.000 N 
ATOM      7  C   UNL     1       4.605   2.570  17.718  0.00  0.00    +0.000 C 
ATOM      8  C   UNL     1       3.479   4.767  18.222  0.00  0.00    +0.000 A 
ENDROOT
BRANCH   8   9
ATOM      9  C   UNL     1       2.580   4.178  19.223  0.00  0.00    +0.000 A 
ATOM     10  C   UNL     1       2.926   4.193  20.581  0.00  0.00    +0.000 A 
ATOM     11  C   UNL     1       2.099   3.585  21.529  0.00  0.00    +0.000 A 
ATOM     12  C   UNL     1       0.920   2.960  21.129  0.00  0.00    +0.000 A 
ATOM     13  C   UNL     1       0.561   2.950  19.781  0.00  0.00    +0.000 A 
ATOM     14  C   UNL     1       1.387   3.555  18.831  0.00  0.00    +0.000 A 
ENDBRANCH   8   9
BRANCH   5  15
ATOM     15  C   UNL     1       6.964   5.012  15.113  0.00  0.00    +0.000 C 
ATOM     16  O   UNL     1       7.712   5.920  15.460  0.00  0.00    +0.000 OA
BRANCH  15  17
ATOM     17  C   UNL     1       6.893   4.539  13.736  0.00  0.00    +0.000 A 
ATOM     18  C   UNL     1       7.648   4.876  12.624  0.00  0.00    +0.000 A 
ATOM     19  C   UNL     1       7.188   4.072  11.551  0.00  0.00    +0.000 A 
ATOM     20  C   UNL     1       6.171   3.302  12.062  0.00  0.00    +0.000 A 
ATOM     21  O   UNL     1       5.979   3.577  13.376  0.00  0.00    +0.000 OA
ENDBRANCH  15  17
ENDBRANCH   5  15
TORSDOF 3
ENDMDL
MODEL 2
REMARK VINA RESULT:      -7.4      0.062      1.056
REMARK  Name = 
REMARK  5 active torsions:
REMARK  status: ('A' for Active; 'I' for Inactive)
REMARK    1  A    between atoms: C_1  and  C_2
REMARK    2  A    between atoms: N_5  and  C_6
REMARK    3  A    between atoms: C_6  and  C_8
REMARK    4  A    between atoms: N_13  and  C_14
REMARK    5  A    between atoms: C_15  and  C_16
REMARK                            x       y       z     vdW  Elec       q    Type
REMARK                         _______ _______ _______ _____ _____    ______ ____
ROOT
ATOM      1  C   UNL     1       2.595   7.105  18.489  0.00  0.00    +0.000 C 
ATOM      2  C   UNL     1       3.477   6.038  17.937  0.00  0.00    +0.000 A 
ATOM      3  S   UNL     1       4.667   6.405  16.702  0.00  0.00    +0.000 S 
ATOM      4  C   UNL     1       5.254   4.716  16.677  0.00  0.00    +0.000 A 
ATOM      5  N   UNL     1       6.220   4.245  15.962  0.00  0.00    +0.000 NA
ATOM      6  N   UNL     1       4.466   3.978  17.563  0.00  0.00    +0.000 N 
ATOM      7  C   UNL     1       4.665   2.550  17.742  0.00  0.00    +0.000 C 
ATOM      8  C   UNL     1       3.512   4.730  18.261  0.00  0.00    +0.000 A 
ENDROOT
BRANCH   8   9
ATOM      9  C   UNL     1       2.625   4.124  19.263  0.00  0.00    +0.000 A 
ATOM     10  C   UNL     1       1.409   3.546  18.874  0.00  0.00    +0.000 A 
ATOM     11  C   UNL     1       0.539   3.018  19.831  0.00  0.00    +0.000 A 
ATOM     12  C   UNL     1       0.876   3.061  21.182  0.00  0.00    +0.000 A 
ATOM     13  C   UNL     1       2.090   3.624  21.578  0.00  0.00    +0.000 A 
ATOM     14  C   UNL     1       2.961   4.155  20.623  0.00  0.00    +0.000 A 
ENDBRANCH   8   9
BRANCH   5  15
ATOM     15  C   UNL     1       6.976   5.035  15.134  0.00  0.00    +0.000 C 
ATOM     16  O   UNL     1       7.714   5.951  15.481  0.00  0.00    +0.000 OA
BRANCH  15  17
ATOM     17  C   UNL     1       6.904   4.567  13.755  0.00  0.00    +0.000 A 
ATOM     18  C   UNL     1       7.628   4.939  12.634  0.00  0.00    +0.000 A 
ATOM     19  C   UNL     1       7.186   4.123  11.564  0.00  0.00    +0.000 A 
ATOM     20  C   UNL     1       6.209   3.309  12.085  0.00  0.00    +0.000 A 
ATOM     21  O   UNL     1       6.025   3.570  13.403  0.00  0.00    +0.000 OA
ENDBRANCH  15  17
ENDBRANCH   5  15
TORSDOF 3
ENDMDL
MODEL 3
REMARK VINA RESULT:      -6.5      1.632      2.070
REMARK  Name = 
REMARK  5 active torsions:
REMARK  status: ('A' for Active; 'I' for Inactive)
REMARK    1  A    between atoms: C_1  and  C_2
REMARK    2  A    between atoms: N_5  and  C_6
REMARK    3  A    between atoms: C_6  and  C_8
REMARK    4  A    between atoms: N_13  and  C_14
REMARK    5  A    between atoms: C_15  and  C_16
REMARK                            x       y       z     vdW  Elec       q    Type
REMARK                         _______ _______ _______ _____ _____    ______ ____
ROOT
ATOM      1  C   UNL     1       6.777   5.345  19.651  0.00  0.00    +0.000 C 
ATOM      2  C   UNL     1       6.077   4.954  18.394  0.00  0.00    +0.000 A 
ATOM      3  S   UNL     1       6.860   5.131  16.836  0.00  0.00    +0.000 S 
ATOM      4  C   UNL     1       5.453   4.435  15.979  0.00  0.00    +0.000 A 
ATOM      5  N   UNL     1       5.349   4.222  14.710  0.00  0.00    +0.000 NA
ATOM      6  N   UNL     1       4.463   4.173  16.929  0.00  0.00    +0.000 N 
ATOM      7  C   UNL     1       3.169   3.636  16.544  0.00  0.00    +0.000 C 
ATOM      8  C   UNL     1       4.836   4.445  18.251  0.00  0.00    +0.000 A 
ENDROOT
BRANCH   8   9
ATOM      9  C   UNL     1       3.935   4.189  19.383  0.00  0.00    +0.000 A 
ATOM     10  C   UNL     1       3.897   2.924  19.985  0.00  0.00    +0.000 A 
ATOM     11  C   UNL     1       3.003   2.661  21.025  0.00  0.00    +0.000 A 
ATOM     12  C   UNL     1       2.141   3.660  21.474  0.00  0.00    +0.000 A 
ATOM     13  C   UNL     1       2.179   4.925  20.889  0.00  0.00    +0.000 A 
ATOM     14  C   UNL     1       3.071   5.190  19.847  0.00  0.00    +0.000 A 
ENDBRANCH   8   9
BRANCH   5  15
ATOM     15  C   UNL     1       6.375   4.473  13.835  0.00  0.00    +0.000 C 
ATOM     16  O   UNL     1       7.263   5.307  13.980  0.00  0.00    +0.000 OA
BRANCH  15  17
ATOM     17  C   UNL     1       6.371   3.516  12.736  0.00  0.00    +0.000 A 
ATOM     18  C   UNL     1       7.397   3.076  11.915  0.00  0.00    +0.000 A 
ATOM     19  C   UNL     1       6.846   2.100  11.049  0.00  0.00    +0.000 A 
ATOM     20  C   UNL     1       5.515   2.009  11.376  0.00  0.00    +0.000 A 
ATOM     21  O   UNL     1       5.214   2.861  12.387  0.00  0.00    +0.000 OA
ENDBRANCH  15  17
ENDBRANCH   5  15
TORSDOF 3
ENDMDL
MODEL 4
REMARK VINA RESULT:      -6.4      4.552      7.308
REMARK  Name = 
REMARK  5 active torsions:
REMARK  status: ('A' for Active; 'I' for Inactive)
REMARK    1  A    between atoms: C_1  and  C_2
REMARK    2  A    between atoms: N_5  and  C_6
REMARK    3  A    between atoms: C_6  and  C_8
REMARK    4  A    between atoms: N_13  and  C_14
REMARK    5  A    between atoms: C_15  and  C_16
REMARK                            x       y       z     vdW  Elec       q    Type
REMARK                         _______ _______ _______ _____ _____    ______ ____
ROOT
ATOM      1  C   UNL     1       0.007   9.170  22.338  0.00  0.00    +0.000 C 
ATOM      2  C   UNL     1       0.771   8.763  21.124  0.00  0.00    +0.000 A 
ATOM      3  S   UNL     1       1.729   7.295  21.116  0.00  0.00    +0.000 S 
ATOM      4  C   UNL     1       2.204   7.539  19.409  0.00  0.00    +0.000 A 
ATOM      5  N   UNL     1       2.938   6.756  18.692  0.00  0.00    +0.000 NA
ATOM      6  N   UNL     1       1.652   8.750  18.983  0.00  0.00    +0.000 N 
ATOM      7  C   UNL     1       1.889   9.259  17.643  0.00  0.00    +0.000 C 
ATOM      8  C   UNL     1       0.850   9.393  19.935  0.00  0.00    +0.000 A 
ENDROOT
BRANCH   8   9
ATOM      9  C   UNL     1       0.156  10.654  19.643  0.00  0.00    +0.000 A 
ATOM     10  C   UNL     1       0.767  11.881  19.937  0.00  0.00    +0.000 A 
ATOM     11  C   UNL     1       0.089  13.082  19.712  0.00  0.00    +0.000 A 
ATOM     12  C   UNL     1      -1.202  13.067  19.190  0.00  0.00    +0.000 A 
ATOM     13  C   UNL     1      -1.814  11.852  18.882  0.00  0.00    +0.000 A 
ATOM     14  C   UNL     1      -1.139  10.650  19.109  0.00  0.00    +0.000 A 
ENDBRANCH   8   9
BRANCH   5  15
ATOM     15  C   UNL     1       3.422   5.564  19.165  0.00  0.00    +0.000 C 
ATOM     16  O   UNL     1       4.524   5.378  19.669  0.00  0.00    +0.000 OA
BRANCH  15  17
ATOM     17  C   UNL     1       2.397   4.529  19.120  0.00  0.00    +0.000 A 
ATOM     18  C   UNL     1       1.678   4.012  18.054  0.00  0.00    +0.000 A 
ATOM     19  C   UNL     1       0.851   2.984  18.570  0.00  0.00    +0.000 A 
ATOM     20  C   UNL     1       1.098   2.940  19.921  0.00  0.00    +0.000 A 
ATOM     21  O   UNL     1       2.023   3.869  20.267  0.00  0.00    +0.000 OA
ENDBRANCH  15  17
ENDBRANCH   5  15
TORSDOF 3
ENDMDL
MODEL 5
REMARK VINA RESULT:      -6.4      4.530      7.319
REMARK  Name = 
REMARK  5 active torsions:
REMARK  status: ('A' for Active; 'I' for Inactive)
REMARK    1  A    between atoms: C_1  and  C_2
REMARK    2  A    between atoms: N_5  and  C_6
REMARK    3  A    between atoms: C_6  and  C_8
REMARK    4  A    between atoms: N_13  and  C_14
REMARK    5  A    between atoms: C_15  and  C_16
REMARK                            x       y       z     vdW  Elec       q    Type
REMARK                         _______ _______ _______ _____ _____    ______ ____
ROOT
ATOM      1  C   UNL     1      -0.069   9.152  22.155  0.00  0.00    +0.000 C 
ATOM      2  C   UNL     1       0.753   8.737  20.983  0.00  0.00    +0.000 A 
ATOM      3  S   UNL     1       1.714   7.271  21.032  0.00  0.00    +0.000 S 
ATOM      4  C   UNL     1       2.270   7.504  19.349  0.00  0.00    +0.000 A 
ATOM      5  N   UNL     1       3.040   6.717  18.674  0.00  0.00    +0.000 NA
ATOM      6  N   UNL     1       1.738   8.710  18.887  0.00  0.00    +0.000 N 
ATOM      7  C   UNL     1       2.039   9.210  17.557  0.00  0.00    +0.000 C 
ATOM      8  C   UNL     1       0.890   9.358  19.794  0.00  0.00    +0.000 A 
ENDROOT
BRANCH   8   9
ATOM      9  C   UNL     1       0.209  10.616  19.460  0.00  0.00    +0.000 A 
ATOM     10  C   UNL     1      -1.045  10.597  18.834  0.00  0.00    +0.000 A 
ATOM     11  C   UNL     1      -1.671  11.790  18.466  0.00  0.00    +0.000 A 
ATOM     12  C   UNL     1      -1.051  13.012  18.721  0.00  0.00    +0.000 A 
ATOM     13  C   UNL     1       0.191  13.042  19.354  0.00  0.00    +0.000 A 
ATOM     14  C   UNL     1       0.821  11.850  19.721  0.00  0.00    +0.000 A 
ENDBRANCH   8   9
BRANCH   5  15
ATOM     15  C   UNL     1       3.502   5.529  19.178  0.00  0.00    +0.000 C 
ATOM     16  O   UNL     1       4.585   5.345  19.723  0.00  0.00    +0.000 OA
BRANCH  15  17
ATOM     17  C   UNL     1       2.475   4.497  19.111  0.00  0.00    +0.000 A 
ATOM     18  C   UNL     1       1.695   4.064  18.051  0.00  0.00    +0.000 A 
ATOM     19  C   UNL     1       0.898   2.995  18.531  0.00  0.00    +0.000 A 
ATOM     20  C   UNL     1       1.223   2.845  19.857  0.00  0.00    +0.000 A 
ATOM     21  O   UNL     1       2.168   3.747  20.222  0.00  0.00    +0.000 OA
ENDBRANCH  15  17
ENDBRANCH   5  15
TORSDOF 3
ENDMDL
MODEL 6
REMARK VINA RESULT:      -6.4      1.637      2.077
REMARK  Name = 
REMARK  5 active torsions:
REMARK  status: ('A' for Active; 'I' for Inactive)
REMARK    1  A    between atoms: C_1  and  C_2
REMARK    2  A    between atoms: N_5  and  C_6
REMARK    3  A    between atoms: C_6  and  C_8
REMARK    4  A    between atoms: N_13  and  C_14
REMARK    5  A    between atoms: C_15  and  C_16
REMARK                            x       y       z     vdW  Elec       q    Type
REMARK                         _______ _______ _______ _____ _____    ______ ____
ROOT
ATOM      1  C   UNL     1       6.729   5.265  19.661  0.00  0.00    +0.000 C 
ATOM      2  C   UNL     1       6.039   4.888  18.395  0.00  0.00    +0.000 A 
ATOM      3  S   UNL     1       6.836   5.080  16.845  0.00  0.00    +0.000 S 
ATOM      4  C   UNL     1       5.436   4.396  15.969  0.00  0.00    +0.000 A 
ATOM      5  N   UNL     1       5.343   4.196  14.696  0.00  0.00    +0.000 NA
ATOM      6  N   UNL     1       4.436   4.126  16.907  0.00  0.00    +0.000 N 
ATOM      7  C   UNL     1       3.145   3.596  16.505  0.00  0.00    +0.000 C 
ATOM      8  C   UNL     1       4.799   4.384  18.236  0.00  0.00    +0.000 A 
ENDROOT
BRANCH   8   9
ATOM      9  C   UNL     1       3.887   4.119  19.356  0.00  0.00    +0.000 A 
ATOM     10  C   UNL     1       3.041   5.129  19.833  0.00  0.00    +0.000 A 
ATOM     11  C   UNL     1       2.212   4.897  20.933  0.00  0.00    +0.000 A 
ATOM     12  C   UNL     1       2.219   3.655  21.564  0.00  0.00    +0.000 A 
ATOM     13  C   UNL     1       3.048   2.639  21.089  0.00  0.00    +0.000 A 
ATOM     14  C   UNL     1       3.881   2.869  19.991  0.00  0.00    +0.000 A 
ENDBRANCH   8   9
BRANCH   5  15
ATOM     15  C   UNL     1       6.377   4.453  13.834  0.00  0.00    +0.000 C 
ATOM     16  O   UNL     1       7.265   5.284  13.994  0.00  0.00    +0.000 OA
BRANCH  15  17
ATOM     17  C   UNL     1       6.382   3.508  12.725  0.00  0.00    +0.000 A 
ATOM     18  C   UNL     1       7.409   3.094  11.892  0.00  0.00    +0.000 A 
ATOM     19  C   UNL     1       6.868   2.117  11.020  0.00  0.00    +0.000 A 
ATOM     20  C   UNL     1       5.542   1.998  11.358  0.00  0.00    +0.000 A 
ATOM     21  O   UNL     1       5.233   2.835  12.380  0.00  0.00    +0.000 OA
ENDBRANCH  15  17
ENDBRANCH   5  15
TORSDOF 3
ENDMDL
MODEL 7
REMARK VINA RESULT:      -6.4      1.965      3.616
REMARK  Name = 
REMARK  5 active torsions:
REMARK  status: ('A' for Active; 'I' for Inactive)
REMARK    1  A    between atoms: C_1  and  C_2
REMARK    2  A    between atoms: N_5  and  C_6
REMARK    3  A    between atoms: C_6  and  C_8
REMARK    4  A    between atoms: N_13  and  C_14
REMARK    5  A    between atoms: C_15  and  C_16
REMARK                            x       y       z     vdW  Elec       q    Type
REMARK                         _______ _______ _______ _____ _____    ______ ____
ROOT
ATOM      1  C   UNL     1       1.877   4.535  18.323  0.00  0.00    +0.000 C 
ATOM      2  C   UNL     1       3.142   5.236  17.961  0.00  0.00    +0.000 A 
ATOM      3  S   UNL     1       4.522   4.343  17.352  0.00  0.00    +0.000 S 
ATOM      4  C   UNL     1       5.479   5.839  17.145  0.00  0.00    +0.000 A 
ATOM      5  N   UNL     1       6.676   5.932  16.670  0.00  0.00    +0.000 NA
ATOM      6  N   UNL     1       4.707   6.906  17.610  0.00  0.00    +0.000 N 
ATOM      7  C   UNL     1       5.220   8.265  17.616  0.00  0.00    +0.000 C 
ATOM      8  C   UNL     1       3.418   6.554  18.032  0.00  0.00    +0.000 A 
ENDROOT
BRANCH   8   9
ATOM      9  C   UNL     1       2.455   7.554  18.511  0.00  0.00    +0.000 A 
ATOM     10  C   UNL     1       1.922   8.502  17.627  0.00  0.00    +0.000 A 
ATOM     11  C   UNL     1       1.048   9.489  18.090  0.00  0.00    +0.000 A 
ATOM     12  C   UNL     1       0.698   9.535  19.438  0.00  0.00    +0.000 A 
ATOM     13  C   UNL     1       1.213   8.588  20.322  0.00  0.00    +0.000 A 
ATOM     14  C   UNL     1       2.090   7.602  19.863  0.00  0.00    +0.000 A 
ENDBRANCH   8   9
BRANCH   5  15
ATOM     15  C   UNL     1       7.367   4.844  16.200  0.00  0.00    +0.000 C 
ATOM     16  O   UNL     1       8.006   4.045  16.876  0.00  0.00    +0.000 OA
BRANCH  15  17
ATOM     17  C   UNL     1       7.145   4.661  14.771  0.00  0.00    +0.000 A 
ATOM     18  C   UNL     1       6.261   3.840  14.091  0.00  0.00    +0.000 A 
ATOM     19  C   UNL     1       6.430   4.102  12.709  0.00  0.00    +0.000 A 
ATOM     20  C   UNL     1       7.416   5.054  12.621  0.00  0.00    +0.000 A 
ATOM     21  O   UNL     1       7.860   5.396  13.856  0.00  0.00    +0.000 OA
ENDBRANCH  15  17
ENDBRANCH   5  15
TORSDOF 3
ENDMDL
MODEL 8
REMARK VINA RESULT:      -6.2      5.139      8.308
REMARK  Name = 
REMARK  5 active torsions:
REMARK  status: ('A' for Active; 'I' for Inactive)
REMARK    1  A    between atoms: C_1  and  C_2
REMARK    2  A    between atoms: N_5  and  C_6
REMARK    3  A    between atoms: C_6  and  C_8
REMARK    4  A    between atoms: N_13  and  C_14
REMARK    5  A    between atoms: C_15  and  C_16
REMARK                            x       y       z     vdW  Elec       q    Type
REMARK                         _______ _______ _______ _____ _____    ______ ____
ROOT
ATOM      1  C   UNL     1       1.959   5.045  21.161  0.00  0.00    +0.000 C 
ATOM      2  C   UNL     1       1.885   6.339  20.424  0.00  0.00    +0.000 A 
ATOM      3  S   UNL     1       1.057   7.721  21.115  0.00  0.00    +0.000 S 
ATOM      4  C   UNL     1       1.473   8.751  19.713  0.00  0.00    +0.000 A 
ATOM      5  N   UNL     1       1.184  10.000  19.559  0.00  0.00    +0.000 NA
ATOM      6  N   UNL     1       2.159   7.958  18.790  0.00  0.00    +0.000 N 
ATOM      7  C   UNL     1       2.603   8.493  17.515  0.00  0.00    +0.000 C 
ATOM      8  C   UNL     1       2.393   6.642  19.212  0.00  0.00    +0.000 A 
ENDROOT
BRANCH   8   9
ATOM      9  C   UNL     1       3.137   5.681  18.387  0.00  0.00    +0.000 A 
ATOM     10  C   UNL     1       2.461   4.650  17.720  0.00  0.00    +0.000 A 
ATOM     11  C   UNL     1       3.171   3.703  16.978  0.00  0.00    +0.000 A 
ATOM     12  C   UNL     1       4.559   3.777  16.895  0.00  0.00    +0.000 A 
ATOM     13  C   UNL     1       5.240   4.807  17.546  0.00  0.00    +0.000 A 
ATOM     14  C   UNL     1       4.533   5.754  18.290  0.00  0.00    +0.000 A 
ENDBRANCH   8   9
BRANCH   5  15
ATOM     15  C   UNL     1       0.535  10.729  20.522  0.00  0.00    +0.000 C 
ATOM     16  O   UNL     1       0.980  11.036  21.622  0.00  0.00    +0.000 OA
BRANCH  15  17
ATOM     17  C   UNL     1      -0.742  11.229  20.027  0.00  0.00    +0.000 A 
ATOM     18  C   UNL     1      -1.616  12.162  20.560  0.00  0.00    +0.000 A 
ATOM     19  C   UNL     1      -2.680  12.310  19.635  0.00  0.00    +0.000 A 
ATOM     20  C   UNL     1      -2.405  11.450  18.599  0.00  0.00    +0.000 A 
ATOM     21  O   UNL     1      -1.243  10.788  18.825  0.00  0.00    +0.000 OA
ENDBRANCH  15  17
ENDBRANCH   5  15
TORSDOF 3
ENDMDL
MODEL 9
REMARK VINA RESULT:      -6.1      5.191      8.246
REMARK  Name = 
REMARK  5 active torsions:
REMARK  status: ('A' for Active; 'I' for Inactive)
REMARK    1  A    between atoms: C_1  and  C_2
REMARK    2  A    between atoms: N_5  and  C_6
REMARK    3  A    between atoms: C_6  and  C_8
REMARK    4  A    between atoms: N_13  and  C_14
REMARK    5  A    between atoms: C_15  and  C_16
REMARK                            x       y       z     vdW  Elec       q    Type
REMARK                         _______ _______ _______ _____ _____    ______ ____
ROOT
ATOM      1  C   UNL     1       1.975   4.958  21.211  0.00  0.00    +0.000 C 
ATOM      2  C   UNL     1       1.918   6.244  20.459  0.00  0.00    +0.000 A 
ATOM      3  S   UNL     1       1.072   7.633  21.115  0.00  0.00    +0.000 S 
ATOM      4  C   UNL     1       1.522   8.648  19.714  0.00  0.00    +0.000 A 
ATOM      5  N   UNL     1       1.236   9.896  19.540  0.00  0.00    +0.000 NA
ATOM      6  N   UNL     1       2.231   7.846  18.817  0.00  0.00    +0.000 N 
ATOM      7  C   UNL     1       2.706   8.369  17.547  0.00  0.00    +0.000 C 
ATOM      8  C   UNL     1       2.456   6.536  19.258  0.00  0.00    +0.000 A 
ENDROOT
BRANCH   8   9
ATOM      9  C   UNL     1       3.220   5.567  18.461  0.00  0.00    +0.000 A 
ATOM     10  C   UNL     1       4.617   5.660  18.385  0.00  0.00    +0.000 A 
ATOM     11  C   UNL     1       5.343   4.774  17.585  0.00  0.00    +0.000 A 
ATOM     12  C   UNL     1       4.681   3.788  16.857  0.00  0.00    +0.000 A 
ATOM     13  C   UNL     1       3.293   3.680  16.935  0.00  0.00    +0.000 A 
ATOM     14  C   UNL     1       2.564   4.566  17.732  0.00  0.00    +0.000 A 
ENDBRANCH   8   9
BRANCH   5  15
ATOM     15  C   UNL     1       0.562  10.634  20.479  0.00  0.00    +0.000 C 
ATOM     16  O   UNL     1       0.970  10.930  21.597  0.00  0.00    +0.000 OA
BRANCH  15  17
ATOM     17  C   UNL     1      -0.685  11.157  19.936  0.00  0.00    +0.000 A 
ATOM     18  C   UNL     1      -1.341  10.882  18.747  0.00  0.00    +0.000 A 
ATOM     19  C   UNL     1      -2.543  11.631  18.753  0.00  0.00    +0.000 A 
ATOM     20  C   UNL     1      -2.548  12.333  19.934  0.00  0.00    +0.000 A 
ATOM     21  O   UNL     1      -1.431  12.061  20.654  0.00  0.00    +0.000 OA
ENDBRANCH  15  17
ENDBRANCH   5  15
TORSDOF 3
ENDMDL
