MODEL 1
REMARK VINA RESULT:      -7.8      0.000      0.000
REMARK  Name = 
REMARK  8 active torsions:
REMARK  status: ('A' for Active; 'I' for Inactive)
REMARK    1  A    between atoms: C_1  and  O_2
REMARK    2  A    between atoms: O_2  and  C_3
REMARK    3  A    between atoms: C_6  and  C_7
REMARK    4  A    between atoms: C_15  and  N_16
REMARK    5  A    between atoms: N_16  and  C_17
REMARK    6  A    between atoms: C_17  and  C_18
REMARK    7  A    between atoms: C_21  and  C_22
REMARK    8  A    between atoms: C_26  and  C_27
REMARK                            x       y       z     vdW  Elec       q    Type
REMARK                         _______ _______ _______ _____ _____    ______ ____
ROOT
ATOM      1  C   UNL     1       4.401   4.310  18.912  0.00  0.00    +0.000 C 
ATOM      2  O   UNL     1       4.838   3.677  19.872  0.00  0.00    +0.000 OA
ATOM      3  N   UNL     1       3.102   4.824  18.878  0.00  0.00    +0.000 N 
ATOM      4  C   UNL     1       2.190   4.545  20.001  0.00  0.00    +0.000 C 
ATOM      5  C   UNL     1       1.914   5.800  20.859  0.00  0.00    +0.000 C 
ATOM      6  C   UNL     1       1.792   7.039  20.007  0.00  0.00    +0.000 A 
ATOM      7  C   UNL     1       2.149   7.023  18.679  0.00  0.00    +0.000 A 
ATOM      8  S   UNL     1       2.061   8.551  17.951  0.00  0.00    +0.000 S 
ATOM      9  C   UNL     1       1.492   9.290  19.394  0.00  0.00    +0.000 A 
ATOM     10  C   UNL     1       1.403   8.354  20.417  0.00  0.00    +0.000 A 
ATOM     11  C   UNL     1       2.627   5.833  17.922  0.00  0.00    +0.000 C 
ENDROOT
BRANCH   1  15
ATOM     12  C   UNL     1       6.954   5.166  15.565  0.00  0.00    +0.000 A 
ATOM     13  C   UNL     1       6.022   4.131  15.480  0.00  0.00    +0.000 A 
ATOM     14  C   UNL     1       5.238   3.792  16.583  0.00  0.00    +0.000 A 
ATOM     15  C   UNL     1       5.318   4.545  17.760  0.00  0.00    +0.000 A 
ATOM     16  C   UNL     1       6.291   5.545  17.865  0.00  0.00    +0.000 A 
ATOM     17  C   UNL     1       7.112   5.850  16.771  0.00  0.00    +0.000 A 
BRANCH  12  19
ATOM     18  C   UNL     1       7.144   4.805  13.230  0.00  0.00    +0.000 C 
ATOM     19  O   UNL     1       7.670   5.376  14.421  0.00  0.00    +0.000 OA
ENDBRANCH  12  19
ENDBRANCH   1  15
BRANCH   9  20
ATOM     20  N   UNL     1       1.242  10.623  19.372  0.00  0.00    +0.000 N 
ATOM     21  H   UNL     1       1.735  11.226  20.026  0.00  0.00    +0.000 HD
BRANCH  20  22
ATOM     22  C   UNL     1       0.636  11.281  18.236  0.00  0.00    +0.000 C 
BRANCH  22  23
ATOM     23  C   UNL     1      -0.870  11.160  18.278  0.00  0.00    +0.000 A 
ATOM     24  C   UNL     1      -1.647  12.063  19.021  0.00  0.00    +0.000 A 
ATOM     25  C   UNL     1      -3.042  11.984  18.998  0.00  0.00    +0.000 A 
ATOM     26  C   UNL     1      -3.674  11.002  18.229  0.00  0.00    +0.000 A 
ATOM     27  C   UNL     1      -2.907  10.097  17.491  0.00  0.00    +0.000 A 
ATOM     28  C   UNL     1      -1.513  10.176  17.516  0.00  0.00    +0.000 A 
BRANCH  26  29
ATOM     29  C   UNL     1      -5.105  10.927  18.191  0.00  0.00    +0.000 C 
ATOM     30  N   UNL     1      -6.264  10.870  18.160  0.00  0.00    +0.000 NA
ENDBRANCH  26  29
ENDBRANCH  22  23
ENDBRANCH  20  22
ENDBRANCH   9  20
BRANCH  10  31
ATOM     31  C   UNL     1       1.004   8.666  21.749  0.00  0.00    +0.000 C 
ATOM     32  N   UNL     1       0.670   8.925  22.829  0.00  0.00    +0.000 NA
ENDBRANCH  10  31
TORSDOF 7
ENDMDL
MODEL 2
REMARK VINA RESULT:      -7.7      0.200      1.240
REMARK  Name = 
REMARK  8 active torsions:
REMARK  status: ('A' for Active; 'I' for Inactive)
REMARK    1  A    between atoms: C_1  and  O_2
REMARK    2  A    between atoms: O_2  and  C_3
REMARK    3  A    between atoms: C_6  and  C_7
REMARK    4  A    between atoms: C_15  and  N_16
REMARK    5  A    between atoms: N_16  and  C_17
REMARK    6  A    between atoms: C_17  and  C_18
REMARK    7  A    between atoms: C_21  and  C_22
REMARK    8  A    between atoms: C_26  and  C_27
REMARK                            x       y       z     vdW  Elec       q    Type
REMARK                         _______ _______ _______ _____ _____    ______ ____
ROOT
ATOM      1  C   UNL     1       4.485   4.472  18.783  0.00  0.00    +0.000 C 
ATOM      2  O   UNL     1       5.007   3.869  19.719  0.00  0.00    +0.000 OA
ATOM      3  N   UNL     1       3.166   4.931  18.825  0.00  0.00    +0.000 N 
ATOM      4  C   UNL     1       2.337   4.625  20.004  0.00  0.00    +0.000 C 
ATOM      5  C   UNL     1       2.060   5.875  20.867  0.00  0.00    +0.000 C 
ATOM      6  C   UNL     1       1.833   7.100  20.015  0.00  0.00    +0.000 A 
ATOM      7  C   UNL     1       2.109   7.086  18.668  0.00  0.00    +0.000 A 
ATOM      8  S   UNL     1       1.912   8.601  17.935  0.00  0.00    +0.000 S 
ATOM      9  C   UNL     1       1.401   9.329  19.404  0.00  0.00    +0.000 A 
ATOM     10  C   UNL     1       1.414   8.401  20.437  0.00  0.00    +0.000 A 
ATOM     11  C   UNL     1       2.591   5.909  17.892  0.00  0.00    +0.000 C 
ENDROOT
BRANCH   1  15
ATOM     12  C   UNL     1       6.991   5.057  15.343  0.00  0.00    +0.000 A 
ATOM     13  C   UNL     1       7.056   5.954  16.410  0.00  0.00    +0.000 A 
ATOM     14  C   UNL     1       6.197   5.821  17.500  0.00  0.00    +0.000 A 
ATOM     15  C   UNL     1       5.319   4.734  17.575  0.00  0.00    +0.000 A 
ATOM     16  C   UNL     1       5.212   3.867  16.481  0.00  0.00    +0.000 A 
ATOM     17  C   UNL     1       6.043   4.033  15.364  0.00  0.00    +0.000 A 
BRANCH  12  19
ATOM     18  C   UNL     1       7.458   4.952  13.021  0.00  0.00    +0.000 C 
ATOM     19  O   UNL     1       7.872   5.317  14.332  0.00  0.00    +0.000 OA
ENDBRANCH  12  19
ENDBRANCH   1  15
BRANCH   9  20
ATOM     20  N   UNL     1       1.093  10.651  19.387  0.00  0.00    +0.000 N 
ATOM     21  H   UNL     1       1.500  11.259  20.094  0.00  0.00    +0.000 HD
BRANCH  20  22
ATOM     22  C   UNL     1       0.556  11.308  18.217  0.00  0.00    +0.000 C 
BRANCH  22  23
ATOM     23  C   UNL     1      -0.952  11.211  18.183  0.00  0.00    +0.000 A 
ATOM     24  C   UNL     1      -1.594  10.183  17.475  0.00  0.00    +0.000 A 
ATOM     25  C   UNL     1      -2.986  10.063  17.509  0.00  0.00    +0.000 A 
ATOM     26  C   UNL     1      -3.749  10.968  18.252  0.00  0.00    +0.000 A 
ATOM     27  C   UNL     1      -3.116  11.996  18.956  0.00  0.00    +0.000 A 
ATOM     28  C   UNL     1      -1.726  12.117  18.921  0.00  0.00    +0.000 A 
BRANCH  26  29
ATOM     29  C   UNL     1      -5.176  10.839  18.301  0.00  0.00    +0.000 C 
ATOM     30  N   UNL     1      -6.332  10.739  18.340  0.00  0.00    +0.000 NA
ENDBRANCH  26  29
ENDBRANCH  22  23
ENDBRANCH  20  22
ENDBRANCH   9  20
BRANCH  10  31
ATOM     31  C   UNL     1       1.084   8.710  21.790  0.00  0.00    +0.000 C 
ATOM     32  N   UNL     1       0.811   8.972  22.886  0.00  0.00    +0.000 NA
ENDBRANCH  10  31
TORSDOF 7
ENDMDL
MODEL 3
REMARK VINA RESULT:      -7.5      1.495      1.863
REMARK  Name = 
REMARK  8 active torsions:
REMARK  status: ('A' for Active; 'I' for Inactive)
REMARK    1  A    between atoms: C_1  and  O_2
REMARK    2  A    between atoms: O_2  and  C_3
REMARK    3  A    between atoms: C_6  and  C_7
REMARK    4  A    between atoms: C_15  and  N_16
REMARK    5  A    between atoms: N_16  and  C_17
REMARK    6  A    between atoms: C_17  and  C_18
REMARK    7  A    between atoms: C_21  and  C_22
REMARK    8  A    between atoms: C_26  and  C_27
REMARK                            x       y       z     vdW  Elec       q    Type
REMARK                         _______ _______ _______ _____ _____    ______ ____
ROOT
ATOM      1  C   UNL     1       4.457   4.353  18.893  0.00  0.00    +0.000 C 
ATOM      2  O   UNL     1       4.912   3.743  19.859  0.00  0.00    +0.000 OA
ATOM      3  N   UNL     1       3.154   4.858  18.867  0.00  0.00    +0.000 N 
ATOM      4  C   UNL     1       2.260   4.595  20.008  0.00  0.00    +0.000 C 
ATOM      5  C   UNL     1       1.987   5.865  20.844  0.00  0.00    +0.000 C 
ATOM      6  C   UNL     1       1.845   7.086  19.971  0.00  0.00    +0.000 A 
ATOM      7  C   UNL     1       2.184   7.046  18.638  0.00  0.00    +0.000 A 
ATOM      8  S   UNL     1       2.075   8.559  17.881  0.00  0.00    +0.000 S 
ATOM      9  C   UNL     1       1.521   9.322  19.317  0.00  0.00    +0.000 A 
ATOM     10  C   UNL     1       1.453   8.406  20.359  0.00  0.00    +0.000 A 
ATOM     11  C   UNL     1       2.660   5.845  17.898  0.00  0.00    +0.000 C 
ENDROOT
BRANCH   1  15
ATOM     12  C   UNL     1       6.962   5.161  15.498  0.00  0.00    +0.000 A 
ATOM     13  C   UNL     1       6.012   4.142  15.433  0.00  0.00    +0.000 A 
ATOM     14  C   UNL     1       5.243   3.817  16.550  0.00  0.00    +0.000 A 
ATOM     15  C   UNL     1       5.356   4.571  17.724  0.00  0.00    +0.000 A 
ATOM     16  C   UNL     1       6.348   5.555  17.810  0.00  0.00    +0.000 A 
ATOM     17  C   UNL     1       7.153   5.845  16.700  0.00  0.00    +0.000 A 
BRANCH  12  19
ATOM     18  C   UNL     1       7.174   4.687  13.186  0.00  0.00    +0.000 C 
ATOM     19  O   UNL     1       7.661   5.358  14.341  0.00  0.00    +0.000 OA
ENDBRANCH  12  19
ENDBRANCH   1  15
BRANCH   9  20
ATOM     20  N   UNL     1       1.261  10.653  19.272  0.00  0.00    +0.000 N 
ATOM     21  H   UNL     1       2.018  11.307  19.459  0.00  0.00    +0.000 HD
BRANCH  20  22
ATOM     22  C   UNL     1       0.105  11.196  18.595  0.00  0.00    +0.000 C 
BRANCH  22  23
ATOM     23  C   UNL     1      -0.934  11.665  19.587  0.00  0.00    +0.000 A 
ATOM     24  C   UNL     1      -0.607  11.860  20.938  0.00  0.00    +0.000 A 
ATOM     25  C   UNL     1      -1.557  12.359  21.832  0.00  0.00    +0.000 A 
ATOM     26  C   UNL     1      -2.843  12.672  21.384  0.00  0.00    +0.000 A 
ATOM     27  C   UNL     1      -3.177  12.477  20.041  0.00  0.00    +0.000 A 
ATOM     28  C   UNL     1      -2.228  11.976  19.148  0.00  0.00    +0.000 A 
BRANCH  26  29
ATOM     29  C   UNL     1      -3.817  13.199  22.295  0.00  0.00    +0.000 C 
ATOM     30  N   UNL     1      -4.605  13.622  23.034  0.00  0.00    +0.000 NA
ENDBRANCH  26  29
ENDBRANCH  22  23
ENDBRANCH  20  22
ENDBRANCH   9  20
BRANCH  10  31
ATOM     31  C   UNL     1       1.070   8.743  21.691  0.00  0.00    +0.000 C 
ATOM     32  N   UNL     1       0.769   9.017  22.777  0.00  0.00    +0.000 NA
ENDBRANCH  10  31
TORSDOF 7
ENDMDL
MODEL 4
REMARK VINA RESULT:      -7.4      2.042      2.928
REMARK  Name = 
REMARK  8 active torsions:
REMARK  status: ('A' for Active; 'I' for Inactive)
REMARK    1  A    between atoms: C_1  and  O_2
REMARK    2  A    between atoms: O_2  and  C_3
REMARK    3  A    between atoms: C_6  and  C_7
REMARK    4  A    between atoms: C_15  and  N_16
REMARK    5  A    between atoms: N_16  and  C_17
REMARK    6  A    between atoms: C_17  and  C_18
REMARK    7  A    between atoms: C_21  and  C_22
REMARK    8  A    between atoms: C_26  and  C_27
REMARK                            x       y       z     vdW  Elec       q    Type
REMARK                         _______ _______ _______ _____ _____    ______ ____
ROOT
ATOM      1  C   UNL     1       4.533   4.371  18.890  0.00  0.00    +0.000 C 
ATOM      2  O   UNL     1       4.998   3.798  19.874  0.00  0.00    +0.000 OA
ATOM      3  N   UNL     1       3.222   4.854  18.850  0.00  0.00    +0.000 N 
ATOM      4  C   UNL     1       2.333   4.612  20.000  0.00  0.00    +0.000 C 
ATOM      5  C   UNL     1       2.040   5.903  20.796  0.00  0.00    +0.000 C 
ATOM      6  C   UNL     1       1.878   7.095  19.886  0.00  0.00    +0.000 A 
ATOM      7  C   UNL     1       2.217   7.019  18.554  0.00  0.00    +0.000 A 
ATOM      8  S   UNL     1       2.084   8.506  17.752  0.00  0.00    +0.000 S 
ATOM      9  C   UNL     1       1.519   9.304  19.164  0.00  0.00    +0.000 A 
ATOM     10  C   UNL     1       1.465   8.419  20.234  0.00  0.00    +0.000 A 
ATOM     11  C   UNL     1       2.712   5.803  17.851  0.00  0.00    +0.000 C 
ENDROOT
BRANCH   1  15
ATOM     12  C   UNL     1       7.024   5.115  15.470  0.00  0.00    +0.000 A 
ATOM     13  C   UNL     1       6.091   4.078  15.437  0.00  0.00    +0.000 A 
ATOM     14  C   UNL     1       5.328   3.775  16.564  0.00  0.00    +0.000 A 
ATOM     15  C   UNL     1       5.428   4.567  17.714  0.00  0.00    +0.000 A 
ATOM     16  C   UNL     1       6.402   5.571  17.768  0.00  0.00    +0.000 A 
ATOM     17  C   UNL     1       7.203   5.839  16.649  0.00  0.00    +0.000 A 
BRANCH  12  19
ATOM     18  C   UNL     1       7.157   4.697  13.140  0.00  0.00    +0.000 C 
ATOM     19  O   UNL     1       7.718   5.287  14.306  0.00  0.00    +0.000 OA
ENDBRANCH  12  19
ENDBRANCH   1  15
BRANCH   9  20
ATOM     20  N   UNL     1       1.238  10.628  19.078  0.00  0.00    +0.000 N 
ATOM     21  H   UNL     1       1.958  11.262  18.739  0.00  0.00    +0.000 HD
BRANCH  20  22
ATOM     22  C   UNL     1      -0.116  11.135  19.055  0.00  0.00    +0.000 C 
BRANCH  22  23
ATOM     23  C   UNL     1      -0.384  12.023  20.248  0.00  0.00    +0.000 A 
ATOM     24  C   UNL     1      -1.577  11.911  20.979  0.00  0.00    +0.000 A 
ATOM     25  C   UNL     1      -1.783  12.688  22.121  0.00  0.00    +0.000 A 
ATOM     26  C   UNL     1      -0.798  13.585  22.546  0.00  0.00    +0.000 A 
ATOM     27  C   UNL     1       0.390  13.705  21.820  0.00  0.00    +0.000 A 
ATOM     28  C   UNL     1       0.595  12.929  20.678  0.00  0.00    +0.000 A 
BRANCH  26  29
ATOM     29  C   UNL     1      -1.000  14.374  23.725  0.00  0.00    +0.000 C 
ATOM     30  N   UNL     1      -1.163  15.016  24.678  0.00  0.00    +0.000 NA
ENDBRANCH  26  29
ENDBRANCH  22  23
ENDBRANCH  20  22
ENDBRANCH   9  20
BRANCH  10  31
ATOM     31  C   UNL     1       1.078   8.790  21.555  0.00  0.00    +0.000 C 
ATOM     32  N   UNL     1       0.771   9.086  22.634  0.00  0.00    +0.000 NA
ENDBRANCH  10  31
TORSDOF 7
ENDMDL
MODEL 5
REMARK VINA RESULT:      -7.4      1.873      2.594
REMARK  Name = 
REMARK  8 active torsions:
REMARK  status: ('A' for Active; 'I' for Inactive)
REMARK    1  A    between atoms: C_1  and  O_2
REMARK    2  A    between atoms: O_2  and  C_3
REMARK    3  A    between atoms: C_6  and  C_7
REMARK    4  A    between atoms: C_15  and  N_16
REMARK    5  A    between atoms: N_16  and  C_17
REMARK    6  A    between atoms: C_17  and  C_18
REMARK    7  A    between atoms: C_21  and  C_22
REMARK    8  A    between atoms: C_26  and  C_27
REMARK                            x       y       z     vdW  Elec       q    Type
REMARK                         _______ _______ _______ _____ _____    ______ ____
ROOT
ATOM      1  C   UNL     1       4.524   4.545  18.780  0.00  0.00    +0.000 C 
ATOM      2  O   UNL     1       5.061   3.959  19.719  0.00  0.00    +0.000 OA
ATOM      3  N   UNL     1       3.209   5.013  18.838  0.00  0.00    +0.000 N 
ATOM      4  C   UNL     1       2.403   4.740  20.041  0.00  0.00    +0.000 C 
ATOM      5  C   UNL     1       2.152   6.012  20.879  0.00  0.00    +0.000 C 
ATOM      6  C   UNL     1       1.915   7.219  20.004  0.00  0.00    +0.000 A 
ATOM      7  C   UNL     1       2.163   7.171  18.652  0.00  0.00    +0.000 A 
ATOM      8  S   UNL     1       1.961   8.670  17.888  0.00  0.00    +0.000 S 
ATOM      9  C   UNL     1       1.485   9.436  19.350  0.00  0.00    +0.000 A 
ATOM     10  C   UNL     1       1.513   8.532  20.405  0.00  0.00    +0.000 A 
ATOM     11  C   UNL     1       2.621   5.974  17.894  0.00  0.00    +0.000 C 
ENDROOT
BRANCH   1  15
ATOM     12  C   UNL     1       6.957   5.029  15.273  0.00  0.00    +0.000 A 
ATOM     13  C   UNL     1       7.081   5.927  16.333  0.00  0.00    +0.000 A 
ATOM     14  C   UNL     1       6.247   5.829  17.446  0.00  0.00    +0.000 A 
ATOM     15  C   UNL     1       5.335   4.772  17.549  0.00  0.00    +0.000 A 
ATOM     16  C   UNL     1       5.170   3.905  16.463  0.00  0.00    +0.000 A 
ATOM     17  C   UNL     1       5.976   4.037  15.324  0.00  0.00    +0.000 A 
BRANCH  12  19
ATOM     18  C   UNL     1       7.403   4.802  12.956  0.00  0.00    +0.000 C 
ATOM     19  O   UNL     1       7.820   5.254  14.238  0.00  0.00    +0.000 OA
ENDBRANCH  12  19
ENDBRANCH   1  15
BRANCH   9  20
ATOM     20  N   UNL     1       1.185  10.758  19.309  0.00  0.00    +0.000 N 
ATOM     21  H   UNL     1       1.945  11.434  19.278  0.00  0.00    +0.000 HD
BRANCH  20  22
ATOM     22  C   UNL     1      -0.115  11.248  18.907  0.00  0.00    +0.000 C 
BRANCH  22  23
ATOM     23  C   UNL     1      -0.828  11.908  20.064  0.00  0.00    +0.000 A 
ATOM     24  C   UNL     1      -2.193  12.229  19.984  0.00  0.00    +0.000 A 
ATOM     25  C   UNL     1      -2.858  12.775  21.085  0.00  0.00    +0.000 A 
ATOM     26  C   UNL     1      -2.167  13.002  22.278  0.00  0.00    +0.000 A 
ATOM     27  C   UNL     1      -0.807  12.688  22.364  0.00  0.00    +0.000 A 
ATOM     28  C   UNL     1      -0.143  12.144  21.263  0.00  0.00    +0.000 A 
BRANCH  26  29
ATOM     29  C   UNL     1      -2.849  13.548  23.415  0.00  0.00    +0.000 C 
ATOM     30  N   UNL     1      -3.403  13.992  24.333  0.00  0.00    +0.000 NA
ENDBRANCH  26  29
ENDBRANCH  22  23
ENDBRANCH  20  22
ENDBRANCH   9  20
BRANCH  10  31
ATOM     31  C   UNL     1       1.213   8.875  21.756  0.00  0.00    +0.000 C 
ATOM     32  N   UNL     1       0.978   9.149  22.858  0.00  0.00    +0.000 NA
ENDBRANCH  10  31
TORSDOF 7
ENDMDL
MODEL 6
REMARK VINA RESULT:      -7.4      2.324      3.388
REMARK  Name = 
REMARK  8 active torsions:
REMARK  status: ('A' for Active; 'I' for Inactive)
REMARK    1  A    between atoms: C_1  and  O_2
REMARK    2  A    between atoms: O_2  and  C_3
REMARK    3  A    between atoms: C_6  and  C_7
REMARK    4  A    between atoms: C_15  and  N_16
REMARK    5  A    between atoms: N_16  and  C_17
REMARK    6  A    between atoms: C_17  and  C_18
REMARK    7  A    between atoms: C_21  and  C_22
REMARK    8  A    between atoms: C_26  and  C_27
REMARK                            x       y       z     vdW  Elec       q    Type
REMARK                         _______ _______ _______ _____ _____    ______ ____
ROOT
ATOM      1  C   UNL     1       4.143   4.395  18.873  0.00  0.00    +0.000 C 
ATOM      2  O   UNL     1       4.513   3.717  19.830  0.00  0.00    +0.000 OA
ATOM      3  N   UNL     1       2.895   5.022  18.831  0.00  0.00    +0.000 N 
ATOM      4  C   UNL     1       1.950   4.813  19.942  0.00  0.00    +0.000 C 
ATOM      5  C   UNL     1       1.776   6.079  20.810  0.00  0.00    +0.000 C 
ATOM      6  C   UNL     1       1.772   7.333  19.970  0.00  0.00    +0.000 A 
ATOM      7  C   UNL     1       2.141   7.298  18.645  0.00  0.00    +0.000 A 
ATOM      8  S   UNL     1       2.196   8.835  17.933  0.00  0.00    +0.000 S 
ATOM      9  C   UNL     1       1.678   9.606  19.378  0.00  0.00    +0.000 A 
ATOM     10  C   UNL     1       1.496   8.672  20.390  0.00  0.00    +0.000 A 
ATOM     11  C   UNL     1       2.521   6.078  17.881  0.00  0.00    +0.000 C 
ENDROOT
BRANCH   1  15
ATOM     12  C   UNL     1       6.810   5.061  15.571  0.00  0.00    +0.000 A 
ATOM     13  C   UNL     1       5.733   4.186  15.428  0.00  0.00    +0.000 A 
ATOM     14  C   UNL     1       4.902   3.902  16.511  0.00  0.00    +0.000 A 
ATOM     15  C   UNL     1       5.090   4.560  17.732  0.00  0.00    +0.000 A 
ATOM     16  C   UNL     1       6.203   5.393  17.894  0.00  0.00    +0.000 A 
ATOM     17  C   UNL     1       7.065   5.638  16.816  0.00  0.00    +0.000 A 
BRANCH  12  19
ATOM     18  C   UNL     1       7.066   4.604  13.260  0.00  0.00    +0.000 C 
ATOM     19  O   UNL     1       7.555   5.231  14.438  0.00  0.00    +0.000 OA
ENDBRANCH  12  19
ENDBRANCH   1  15
BRANCH   9  20
ATOM     20  N   UNL     1       1.546  10.957  19.367  0.00  0.00    +0.000 N 
ATOM     21  H   UNL     1       2.374  11.532  19.502  0.00  0.00    +0.000 HD
BRANCH  20  22
ATOM     22  C   UNL     1       0.399  11.621  18.788  0.00  0.00    +0.000 C 
BRANCH  22  23
ATOM     23  C   UNL     1       0.623  13.113  18.702  0.00  0.00    +0.000 A 
ATOM     24  C   UNL     1      -0.448  14.012  18.833  0.00  0.00    +0.000 A 
ATOM     25  C   UNL     1      -0.219  15.391  18.821  0.00  0.00    +0.000 A 
ATOM     26  C   UNL     1       1.081  15.884  18.682  0.00  0.00    +0.000 A 
ATOM     27  C   UNL     1       2.150  14.994  18.548  0.00  0.00    +0.000 A 
ATOM     28  C   UNL     1       1.922  13.617  18.558  0.00  0.00    +0.000 A 
BRANCH  26  29
ATOM     29  C   UNL     1       1.321  17.297  18.685  0.00  0.00    +0.000 C 
ATOM     30  N   UNL     1       1.518  18.441  18.684  0.00  0.00    +0.000 NA
ENDBRANCH  26  29
ENDBRANCH  22  23
ENDBRANCH  20  22
ENDBRANCH   9  20
BRANCH  10  31
ATOM     31  C   UNL     1       1.111   9.006  21.722  0.00  0.00    +0.000 C 
ATOM     32  N   UNL     1       0.808   9.272  22.809  0.00  0.00    +0.000 NA
ENDBRANCH  10  31
TORSDOF 7
ENDMDL
MODEL 7
REMARK VINA RESULT:      -7.2      2.630      3.743
REMARK  Name = 
REMARK  8 active torsions:
REMARK  status: ('A' for Active; 'I' for Inactive)
REMARK    1  A    between atoms: C_1  and  O_2
REMARK    2  A    between atoms: O_2  and  C_3
REMARK    3  A    between atoms: C_6  and  C_7
REMARK    4  A    between atoms: C_15  and  N_16
REMARK    5  A    between atoms: N_16  and  C_17
REMARK    6  A    between atoms: C_17  and  C_18
REMARK    7  A    between atoms: C_21  and  C_22
REMARK    8  A    between atoms: C_26  and  C_27
REMARK                            x       y       z     vdW  Elec       q    Type
REMARK                         _______ _______ _______ _____ _____    ______ ____
ROOT
ATOM      1  C   UNL     1       4.243   4.571  18.965  0.00  0.00    +0.000 C 
ATOM      2  O   UNL     1       4.629   3.952  19.954  0.00  0.00    +0.000 OA
ATOM      3  N   UNL     1       2.976   5.156  18.890  0.00  0.00    +0.000 N 
ATOM      4  C   UNL     1       2.034   4.972  20.008  0.00  0.00    +0.000 C 
ATOM      5  C   UNL     1       1.818   6.273  20.812  0.00  0.00    +0.000 C 
ATOM      6  C   UNL     1       1.779   7.484  19.913  0.00  0.00    +0.000 A 
ATOM      7  C   UNL     1       2.154   7.397  18.592  0.00  0.00    +0.000 A 
ATOM      8  S   UNL     1       2.164   8.898  17.806  0.00  0.00    +0.000 S 
ATOM      9  C   UNL     1       1.618   9.722  19.210  0.00  0.00    +0.000 A 
ATOM     10  C   UNL     1       1.461   8.833  20.266  0.00  0.00    +0.000 A 
ATOM     11  C   UNL     1       2.574   6.153  17.888  0.00  0.00    +0.000 C 
ENDROOT
BRANCH   1  15
ATOM     12  C   UNL     1       6.887   5.149  15.629  0.00  0.00    +0.000 A 
ATOM     13  C   UNL     1       5.906   4.159  15.573  0.00  0.00    +0.000 A 
ATOM     14  C   UNL     1       5.089   3.908  16.675  0.00  0.00    +0.000 A 
ATOM     15  C   UNL     1       5.188   4.708  17.819  0.00  0.00    +0.000 A 
ATOM     16  C   UNL     1       6.208   5.664  17.898  0.00  0.00    +0.000 A 
ATOM     17  C   UNL     1       7.060   5.879  16.806  0.00  0.00    +0.000 A 
BRANCH  12  19
ATOM     18  C   UNL     1       7.086   4.692  13.312  0.00  0.00    +0.000 C 
ATOM     19  O   UNL     1       7.630   5.273  14.489  0.00  0.00    +0.000 OA
ENDBRANCH  12  19
ENDBRANCH   1  15
BRANCH   9  20
ATOM     20  N   UNL     1       1.445  11.066  19.134  0.00  0.00    +0.000 N 
ATOM     21  H   UNL     1       1.098  11.563  19.951  0.00  0.00    +0.000 HD
BRANCH  20  22
ATOM     22  C   UNL     1       2.087  11.876  18.123  0.00  0.00    +0.000 C 
BRANCH  22  23
ATOM     23  C   UNL     1       2.028  13.342  18.484  0.00  0.00    +0.000 A 
ATOM     24  C   UNL     1       3.108  14.197  18.213  0.00  0.00    +0.000 A 
ATOM     25  C   UNL     1       3.016  15.564  18.488  0.00  0.00    +0.000 A 
ATOM     26  C   UNL     1       1.842  16.090  19.034  0.00  0.00    +0.000 A 
ATOM     27  C   UNL     1       0.764  15.244  19.310  0.00  0.00    +0.000 A 
ATOM     28  C   UNL     1       0.858  13.878  19.037  0.00  0.00    +0.000 A 
BRANCH  26  29
ATOM     29  C   UNL     1       1.738  17.494  19.304  0.00  0.00    +0.000 C 
ATOM     30  N   UNL     1       1.655  18.630  19.526  0.00  0.00    +0.000 NA
ENDBRANCH  26  29
ENDBRANCH  22  23
ENDBRANCH  20  22
ENDBRANCH   9  20
BRANCH  10  31
ATOM     31  C   UNL     1       1.061   9.219  21.579  0.00  0.00    +0.000 C 
ATOM     32  N   UNL     1       0.738   9.523  22.651  0.00  0.00    +0.000 NA
ENDBRANCH  10  31
TORSDOF 7
ENDMDL
MODEL 8
REMARK VINA RESULT:      -7.2      1.225      1.685
REMARK  Name = 
REMARK  8 active torsions:
REMARK  status: ('A' for Active; 'I' for Inactive)
REMARK    1  A    between atoms: C_1  and  O_2
REMARK    2  A    between atoms: O_2  and  C_3
REMARK    3  A    between atoms: C_6  and  C_7
REMARK    4  A    between atoms: C_15  and  N_16
REMARK    5  A    between atoms: N_16  and  C_17
REMARK    6  A    between atoms: C_17  and  C_18
REMARK    7  A    between atoms: C_21  and  C_22
REMARK    8  A    between atoms: C_26  and  C_27
REMARK                            x       y       z     vdW  Elec       q    Type
REMARK                         _______ _______ _______ _____ _____    ______ ____
ROOT
ATOM      1  C   UNL     1       4.284   4.615  18.816  0.00  0.00    +0.000 C 
ATOM      2  O   UNL     1       4.756   3.959  19.743  0.00  0.00    +0.000 OA
ATOM      3  N   UNL     1       2.982   5.123  18.839  0.00  0.00    +0.000 N 
ATOM      4  C   UNL     1       2.110   4.809  19.984  0.00  0.00    +0.000 C 
ATOM      5  C   UNL     1       1.857   6.040  20.883  0.00  0.00    +0.000 C 
ATOM      6  C   UNL     1       1.701   7.301  20.070  0.00  0.00    +0.000 A 
ATOM      7  C   UNL     1       2.014   7.322  18.730  0.00  0.00    +0.000 A 
ATOM      8  S   UNL     1       1.896   8.869  18.047  0.00  0.00    +0.000 S 
ATOM      9  C   UNL     1       1.372   9.565  19.527  0.00  0.00    +0.000 A 
ATOM     10  C   UNL     1       1.321   8.602  20.527  0.00  0.00    +0.000 A 
ATOM     11  C   UNL     1       2.472   6.155  17.926  0.00  0.00    +0.000 C 
ENDROOT
BRANCH   1  15
ATOM     12  C   UNL     1       6.893   5.211  15.455  0.00  0.00    +0.000 A 
ATOM     13  C   UNL     1       7.040   6.000  16.596  0.00  0.00    +0.000 A 
ATOM     14  C   UNL     1       6.154   5.871  17.666  0.00  0.00    +0.000 A 
ATOM     15  C   UNL     1       5.161   4.885  17.640  0.00  0.00    +0.000 A 
ATOM     16  C   UNL     1       4.977   4.132  16.475  0.00  0.00    +0.000 A 
ATOM     17  C   UNL     1       5.838   4.300  15.382  0.00  0.00    +0.000 A 
BRANCH  12  19
ATOM     18  C   UNL     1       7.489   4.994  13.172  0.00  0.00    +0.000 C 
ATOM     19  O   UNL     1       7.813   5.457  14.476  0.00  0.00    +0.000 OA
ENDBRANCH  12  19
ENDBRANCH   1  15
BRANCH   9  20
ATOM     20  N   UNL     1       1.116  10.897  19.549  0.00  0.00    +0.000 N 
ATOM     21  H   UNL     1       1.817  11.539  19.186  0.00  0.00    +0.000 HD
BRANCH  20  22
ATOM     22  C   UNL     1      -0.223  11.429  19.679  0.00  0.00    +0.000 C 
BRANCH  22  23
ATOM     23  C   UNL     1      -1.059  11.096  18.465  0.00  0.00    +0.000 A 
ATOM     24  C   UNL     1      -1.703   9.854  18.349  0.00  0.00    +0.000 A 
ATOM     25  C   UNL     1      -2.529   9.584  17.255  0.00  0.00    +0.000 A 
ATOM     26  C   UNL     1      -2.722  10.554  16.267  0.00  0.00    +0.000 A 
ATOM     27  C   UNL     1      -2.081  11.791  16.374  0.00  0.00    +0.000 A 
ATOM     28  C   UNL     1      -1.254  12.060  17.467  0.00  0.00    +0.000 A 
BRANCH  26  29
ATOM     29  C   UNL     1      -3.581  10.286  15.151  0.00  0.00    +0.000 C 
ATOM     30  N   UNL     1      -4.274  10.066  14.247  0.00  0.00    +0.000 NA
ENDBRANCH  26  29
ENDBRANCH  22  23
ENDBRANCH  20  22
ENDBRANCH   9  20
BRANCH  10  31
ATOM     31  C   UNL     1       0.966   8.877  21.880  0.00  0.00    +0.000 C 
ATOM     32  N   UNL     1       0.674   9.112  22.978  0.00  0.00    +0.000 NA
ENDBRANCH  10  31
TORSDOF 7
ENDMDL
MODEL 9
REMARK VINA RESULT:      -7.1      1.489      1.943
REMARK  Name = 
REMARK  8 active torsions:
REMARK  status: ('A' for Active; 'I' for Inactive)
REMARK    1  A    between atoms: C_1  and  O_2
REMARK    2  A    between atoms: O_2  and  C_3
REMARK    3  A    between atoms: C_6  and  C_7
REMARK    4  A    between atoms: C_15  and  N_16
REMARK    5  A    between atoms: N_16  and  C_17
REMARK    6  A    between atoms: C_17  and  C_18
REMARK    7  A    between atoms: C_21  and  C_22
REMARK    8  A    between atoms: C_26  and  C_27
REMARK                            x       y       z     vdW  Elec       q    Type
REMARK                         _______ _______ _______ _____ _____    ______ ____
ROOT
ATOM      1  C   UNL     1       3.896   4.917  19.214  0.00  0.00    +0.000 C 
ATOM      2  O   UNL     1       4.215   4.263  20.206  0.00  0.00    +0.000 OA
ATOM      3  N   UNL     1       2.661   5.561  19.102  0.00  0.00    +0.000 N 
ATOM      4  C   UNL     1       1.668   5.400  20.179  0.00  0.00    +0.000 C 
ATOM      5  C   UNL     1       1.479   6.694  21.001  0.00  0.00    +0.000 C 
ATOM      6  C   UNL     1       1.530   7.922  20.126  0.00  0.00    +0.000 A 
ATOM      7  C   UNL     1       1.952   7.842  18.819  0.00  0.00    +0.000 A 
ATOM      8  S   UNL     1       2.061   9.356  18.064  0.00  0.00    +0.000 S 
ATOM      9  C   UNL     1       1.497  10.178  19.463  0.00  0.00    +0.000 A 
ATOM     10  C   UNL     1       1.258   9.277  20.494  0.00  0.00    +0.000 A 
ATOM     11  C   UNL     1       2.344   6.594  18.107  0.00  0.00    +0.000 C 
ENDROOT
BRANCH   1  15
ATOM     12  C   UNL     1       6.688   5.434  15.990  0.00  0.00    +0.000 A 
ATOM     13  C   UNL     1       5.700   4.453  15.902  0.00  0.00    +0.000 A 
ATOM     14  C   UNL     1       4.834   4.222  16.971  0.00  0.00    +0.000 A 
ATOM     15  C   UNL     1       4.891   5.033  18.110  0.00  0.00    +0.000 A 
ATOM     16  C   UNL     1       5.917   5.979  18.223  0.00  0.00    +0.000 A 
ATOM     17  C   UNL     1       6.818   6.174  17.167  0.00  0.00    +0.000 A 
BRANCH  12  19
ATOM     18  C   UNL     1       7.056   4.823  13.730  0.00  0.00    +0.000 C 
ATOM     19  O   UNL     1       7.481   5.538  14.883  0.00  0.00    +0.000 OA
ENDBRANCH  12  19
ENDBRANCH   1  15
BRANCH   9  20
ATOM     20  N   UNL     1       1.387  11.529  19.408  0.00  0.00    +0.000 N 
ATOM     21  H   UNL     1       2.193  12.098  19.658  0.00  0.00    +0.000 HD
BRANCH  20  22
ATOM     22  C   UNL     1       0.353  12.194  18.646  0.00  0.00    +0.000 C 
BRANCH  22  23
ATOM     23  C   UNL     1      -0.894  12.386  19.478  0.00  0.00    +0.000 A 
ATOM     24  C   UNL     1      -2.165  12.109  18.950  0.00  0.00    +0.000 A 
ATOM     25  C   UNL     1      -3.304  12.224  19.749  0.00  0.00    +0.000 A 
ATOM     26  C   UNL     1      -3.186  12.615  21.086  0.00  0.00    +0.000 A 
ATOM     27  C   UNL     1      -1.923  12.897  21.617  0.00  0.00    +0.000 A 
ATOM     28  C   UNL     1      -0.785  12.784  20.817  0.00  0.00    +0.000 A 
BRANCH  26  29
ATOM     29  C   UNL     1      -4.351  12.720  21.914  0.00  0.00    +0.000 C 
ATOM     30  N   UNL     1      -5.297  12.805  22.581  0.00  0.00    +0.000 NA
ENDBRANCH  26  29
ENDBRANCH  22  23
ENDBRANCH  20  22
ENDBRANCH   9  20
BRANCH  10  31
ATOM     31  C   UNL     1       0.825   9.656  21.798  0.00  0.00    +0.000 C 
ATOM     32  N   UNL     1       0.462   9.967  22.855  0.00  0.00    +0.000 NA
ENDBRANCH  10  31
TORSDOF 7
ENDMDL
