MODEL 1
REMARK VINA RESULT:      -7.8      0.000      0.000
REMARK  Name = 
REMARK  9 active torsions:
REMARK  status: ('A' for Active; 'I' for Inactive)
REMARK    1  A    between atoms: C_1  and  C_2
REMARK    2  A    between atoms: C_4  and  C_5
REMARK    3  A    between atoms: C_6  and  N_7
REMARK    4  A    between atoms: C_15  and  C_16
REMARK    5  A    between atoms: C_16  and  N_17
REMARK    6  A    between atoms: C_20  and  C_21
REMARK    7  A    between atoms: C_21  and  C_22
REMARK    8  A    between atoms: C_22  and  C_23
REMARK    9  A    between atoms: C_30  and  C_31
REMARK                            x       y       z     vdW  Elec       q    Type
REMARK                         _______ _______ _______ _____ _____    ______ ____
ROOT
ATOM      1  N   UNL     1      -2.909  13.529  21.174  0.00  0.00    +0.000 N 
ATOM      2  C   UNL     1      -1.682  14.288  21.436  0.00  0.00    +0.000 A 
ATOM      3  N   UNL     1      -1.398  15.169  22.406  0.00  0.00    +0.000 NA
ATOM      4  C   UNL     1      -0.171  15.754  22.351  0.00  0.00    +0.000 A 
ATOM      5  C   UNL     1       0.818  15.447  21.416  0.00  0.00    +0.000 A 
ATOM      6  C   UNL     1       0.557  14.474  20.461  0.00  0.00    +0.000 A 
ATOM      7  C   UNL     1      -0.709  13.928  20.486  0.00  0.00    +0.000 A 
ATOM      8  N   UNL     1      -1.308  12.958  19.701  0.00  0.00    +0.000 N 
ATOM      9  C   UNL     1      -0.958  12.100  18.694  0.00  0.00    +0.000 A 
ATOM     10  C   UNL     1      -2.099  11.306  18.571  0.00  0.00    +0.000 A 
ATOM     11  C   UNL     1      -2.342  10.047  17.830  0.00  0.00    +0.000 C 
ATOM     12  N   UNL     1      -3.132  11.787  19.370  0.00  0.00    +0.000 NA
ATOM     13  C   UNL     1      -2.595  12.729  20.104  0.00  0.00    +0.000 A 
ENDROOT
BRANCH   1  19
ATOM     14  C   UNL     1      -7.916  13.717  24.143  0.00  0.00    +0.000 C 
ATOM     15  C   UNL     1      -6.642  13.651  23.355  0.00  0.00    +0.000 A 
ATOM     16  C   UNL     1      -6.454  14.426  22.218  0.00  0.00    +0.000 A 
ATOM     17  C   UNL     1      -5.255  14.374  21.461  0.00  0.00    +0.000 A 
ATOM     18  C   UNL     1      -5.274  15.220  20.213  0.00  0.00    +0.000 C 
ATOM     19  C   UNL     1      -4.152  13.570  21.887  0.00  0.00    +0.000 A 
ATOM     20  C   UNL     1      -4.367  12.813  23.075  0.00  0.00    +0.000 A 
ATOM     21 CL   UNL     1      -3.122  11.944  23.919  0.00  0.00    +0.000 Cl
ATOM     22  C   UNL     1      -5.599  12.827  23.762  0.00  0.00    +0.000 A 
ENDBRANCH   1  19
BRANCH   9  23
ATOM     23  C   UNL     1       0.429  12.105  18.149  0.00  0.00    +0.000 C 
BRANCH  23  24
ATOM     24  N   UNL     1       1.521  11.471  18.897  0.00  0.00    +0.000 NA
ATOM     25  C   UNL     1       2.214  10.515  17.995  0.00  0.00    +0.000 C 
ATOM     26  C   UNL     1       1.395   9.229  18.034  0.00  0.00    +0.000 C 
ATOM     27  C   UNL     1       0.817   9.199  19.448  0.00  0.00    +0.000 C 
ATOM     28  C   UNL     1       1.077  10.609  20.007  0.00  0.00    +0.000 C 
BRANCH  27  29
ATOM     29  C   UNL     1       1.442   8.071  20.290  0.00  0.00    +0.000 C 
BRANCH  29  30
ATOM     30  C   UNL     1       2.394   7.195  19.473  0.00  0.00    +0.000 C 
BRANCH  30  31
ATOM     31  C   UNL     1       1.995   5.742  19.475  0.00  0.00    +0.000 A 
ATOM     32  C   UNL     1       1.548   5.125  20.652  0.00  0.00    +0.000 A 
ATOM     33  C   UNL     1       1.146   3.788  20.641  0.00  0.00    +0.000 A 
ATOM     34  C   UNL     1       1.197   3.054  19.459  0.00  0.00    +0.000 A 
ATOM     35  C   UNL     1       1.655   3.653  18.287  0.00  0.00    +0.000 A 
ATOM     36  C   UNL     1       2.055   4.989  18.294  0.00  0.00    +0.000 A 
ENDBRANCH  30  31
ENDBRANCH  29  30
ENDBRANCH  27  29
ENDBRANCH  23  24
ENDBRANCH   9  23
TORSDOF 6
ENDMDL
MODEL 2
REMARK VINA RESULT:      -7.7      3.975     10.948
REMARK  Name = 
REMARK  9 active torsions:
REMARK  status: ('A' for Active; 'I' for Inactive)
REMARK    1  A    between atoms: C_1  and  C_2
REMARK    2  A    between atoms: C_4  and  C_5
REMARK    3  A    between atoms: C_6  and  N_7
REMARK    4  A    between atoms: C_15  and  C_16
REMARK    5  A    between atoms: C_16  and  N_17
REMARK    6  A    between atoms: C_20  and  C_21
REMARK    7  A    between atoms: C_21  and  C_22
REMARK    8  A    between atoms: C_22  and  C_23
REMARK    9  A    between atoms: C_30  and  C_31
REMARK                            x       y       z     vdW  Elec       q    Type
REMARK                         _______ _______ _______ _____ _____    ______ ____
ROOT
ATOM      1  N   UNL     1       3.710   5.730  18.058  0.00  0.00    +0.000 N 
ATOM      2  C   UNL     1       3.346   4.973  19.260  0.00  0.00    +0.000 A 
ATOM      3  N   UNL     1       3.758   3.770  19.685  0.00  0.00    +0.000 NA
ATOM      4  C   UNL     1       3.190   3.306  20.831  0.00  0.00    +0.000 A 
ATOM      5  C   UNL     1       2.283   4.019  21.617  0.00  0.00    +0.000 A 
ATOM      6  C   UNL     1       1.919   5.299  21.224  0.00  0.00    +0.000 A 
ATOM      7  C   UNL     1       2.453   5.739  20.031  0.00  0.00    +0.000 A 
ATOM      8  N   UNL     1       2.310   6.932  19.343  0.00  0.00    +0.000 N 
ATOM      9  C   UNL     1       1.716   8.151  19.527  0.00  0.00    +0.000 A 
ATOM     10  C   UNL     1       2.198   8.882  18.440  0.00  0.00    +0.000 A 
ATOM     11  C   UNL     1       2.139  10.329  18.129  0.00  0.00    +0.000 C 
ATOM     12  N   UNL     1       2.920   8.070  17.571  0.00  0.00    +0.000 NA
ATOM     13  C   UNL     1       3.044   6.923  18.189  0.00  0.00    +0.000 A 
ENDROOT
BRANCH   1  19
ATOM     14  C   UNL     1       7.224   4.157  13.688  0.00  0.00    +0.000 C 
ATOM     15  C   UNL     1       6.343   4.553  14.834  0.00  0.00    +0.000 A 
ATOM     16  C   UNL     1       6.570   5.720  15.552  0.00  0.00    +0.000 A 
ATOM     17  C   UNL     1       5.747   6.108  16.640  0.00  0.00    +0.000 A 
ATOM     18  C   UNL     1       6.205   7.357  17.349  0.00  0.00    +0.000 C 
ATOM     19  C   UNL     1       4.591   5.344  16.995  0.00  0.00    +0.000 A 
ATOM     20  C   UNL     1       4.370   4.171  16.217  0.00  0.00    +0.000 A 
ATOM     21 CL   UNL     1       2.928   3.204  16.297  0.00  0.00    +0.000 Cl
ATOM     22  C   UNL     1       5.252   3.770  15.192  0.00  0.00    +0.000 A 
ENDBRANCH   1  19
BRANCH   9  23
ATOM     23  C   UNL     1       0.931   8.428  20.763  0.00  0.00    +0.000 C 
BRANCH  23  24
ATOM     24  N   UNL     1       1.256   9.586  21.603  0.00  0.00    +0.000 NA
ATOM     25  C   UNL     1       0.690   9.356  22.958  0.00  0.00    +0.000 C 
ATOM     26  C   UNL     1      -0.773   9.779  22.881  0.00  0.00    +0.000 C 
ATOM     27  C   UNL     1      -0.779  10.910  21.855  0.00  0.00    +0.000 C 
ATOM     28  C   UNL     1       0.605  10.840  21.186  0.00  0.00    +0.000 C 
BRANCH  27  29
ATOM     29  C   UNL     1      -1.085  12.269  22.512  0.00  0.00    +0.000 C 
BRANCH  29  30
ATOM     30  C   UNL     1      -2.063  12.141  23.682  0.00  0.00    +0.000 C 
BRANCH  30  31
ATOM     31  C   UNL     1      -3.482  12.471  23.293  0.00  0.00    +0.000 A 
ATOM     32  C   UNL     1      -4.478  12.601  24.271  0.00  0.00    +0.000 A 
ATOM     33  C   UNL     1      -5.783  12.942  23.909  0.00  0.00    +0.000 A 
ATOM     34  C   UNL     1      -6.105  13.146  22.569  0.00  0.00    +0.000 A 
ATOM     35  C   UNL     1      -5.125  13.004  21.589  0.00  0.00    +0.000 A 
ATOM     36  C   UNL     1      -3.820  12.665  21.948  0.00  0.00    +0.000 A 
ENDBRANCH  30  31
ENDBRANCH  29  30
ENDBRANCH  27  29
ENDBRANCH  23  24
ENDBRANCH   9  23
TORSDOF 6
ENDMDL
MODEL 3
REMARK VINA RESULT:      -7.5      4.022     10.735
REMARK  Name = 
REMARK  9 active torsions:
REMARK  status: ('A' for Active; 'I' for Inactive)
REMARK    1  A    between atoms: C_1  and  C_2
REMARK    2  A    between atoms: C_4  and  C_5
REMARK    3  A    between atoms: C_6  and  N_7
REMARK    4  A    between atoms: C_15  and  C_16
REMARK    5  A    between atoms: C_16  and  N_17
REMARK    6  A    between atoms: C_20  and  C_21
REMARK    7  A    between atoms: C_21  and  C_22
REMARK    8  A    between atoms: C_22  and  C_23
REMARK    9  A    between atoms: C_30  and  C_31
REMARK                            x       y       z     vdW  Elec       q    Type
REMARK                         _______ _______ _______ _____ _____    ______ ____
ROOT
ATOM      1  N   UNL     1       3.702   5.563  18.048  0.00  0.00    +0.000 N 
ATOM      2  C   UNL     1       3.375   4.785  19.247  0.00  0.00    +0.000 A 
ATOM      3  N   UNL     1       3.798   3.574  19.637  0.00  0.00    +0.000 NA
ATOM      4  C   UNL     1       3.266   3.090  20.791  0.00  0.00    +0.000 A 
ATOM      5  C   UNL     1       2.387   3.789  21.619  0.00  0.00    +0.000 A 
ATOM      6  C   UNL     1       2.013   5.077  21.261  0.00  0.00    +0.000 A 
ATOM      7  C   UNL     1       2.509   5.538  20.060  0.00  0.00    +0.000 A 
ATOM      8  N   UNL     1       2.346   6.744  19.400  0.00  0.00    +0.000 N 
ATOM      9  C   UNL     1       1.761   7.960  19.624  0.00  0.00    +0.000 A 
ATOM     10  C   UNL     1       2.209   8.711  18.536  0.00  0.00    +0.000 A 
ATOM     11  C   UNL     1       2.143  10.163  18.254  0.00  0.00    +0.000 C 
ATOM     12  N   UNL     1       2.902   7.914  17.630  0.00  0.00    +0.000 NA
ATOM     13  C   UNL     1       3.043   6.755  18.222  0.00  0.00    +0.000 A 
ENDROOT
BRANCH   1  19
ATOM     14  C   UNL     1       7.071   4.069  13.539  0.00  0.00    +0.000 C 
ATOM     15  C   UNL     1       6.228   4.443  14.720  0.00  0.00    +0.000 A 
ATOM     16  C   UNL     1       6.492   5.586  15.464  0.00  0.00    +0.000 A 
ATOM     17  C   UNL     1       5.704   5.954  16.586  0.00  0.00    +0.000 A 
ATOM     18  C   UNL     1       6.200   7.176  17.317  0.00  0.00    +0.000 C 
ATOM     19  C   UNL     1       4.548   5.196  16.951  0.00  0.00    +0.000 A 
ATOM     20  C   UNL     1       4.288   4.049  16.147  0.00  0.00    +0.000 A 
ATOM     21 CL   UNL     1       2.835   3.100  16.239  0.00  0.00    +0.000 Cl
ATOM     22  C   UNL     1       5.136   3.666  15.086  0.00  0.00    +0.000 A 
ENDBRANCH   1  19
BRANCH   9  23
ATOM     23  C   UNL     1       1.016   8.215  20.890  0.00  0.00    +0.000 C 
BRANCH  23  24
ATOM     24  N   UNL     1       1.317   9.401  21.701  0.00  0.00    +0.000 NA
ATOM     25  C   UNL     1       0.682   9.231  23.033  0.00  0.00    +0.000 C 
ATOM     26  C   UNL     1      -0.769   9.670  22.867  0.00  0.00    +0.000 C 
ATOM     27  C   UNL     1      -0.709  10.760  21.799  0.00  0.00    +0.000 C 
ATOM     28  C   UNL     1       0.706  10.646  21.204  0.00  0.00    +0.000 C 
BRANCH  27  29
ATOM     29  C   UNL     1      -1.026  12.147  22.388  0.00  0.00    +0.000 C 
BRANCH  29  30
ATOM     30  C   UNL     1      -1.307  13.188  21.303  0.00  0.00    +0.000 C 
BRANCH  30  31
ATOM     31  C   UNL     1      -2.325  12.719  20.296  0.00  0.00    +0.000 A 
ATOM     32  C   UNL     1      -1.920  12.203  19.057  0.00  0.00    +0.000 A 
ATOM     33  C   UNL     1      -2.866  11.737  18.141  0.00  0.00    +0.000 A 
ATOM     34  C   UNL     1      -4.222  11.792  18.451  0.00  0.00    +0.000 A 
ATOM     35  C   UNL     1      -4.637  12.316  19.674  0.00  0.00    +0.000 A 
ATOM     36  C   UNL     1      -3.694  12.781  20.591  0.00  0.00    +0.000 A 
ENDBRANCH  30  31
ENDBRANCH  29  30
ENDBRANCH  27  29
ENDBRANCH  23  24
ENDBRANCH   9  23
TORSDOF 6
ENDMDL
MODEL 4
REMARK VINA RESULT:      -7.5      3.897     10.815
REMARK  Name = 
REMARK  9 active torsions:
REMARK  status: ('A' for Active; 'I' for Inactive)
REMARK    1  A    between atoms: C_1  and  C_2
REMARK    2  A    between atoms: C_4  and  C_5
REMARK    3  A    between atoms: C_6  and  N_7
REMARK    4  A    between atoms: C_15  and  C_16
REMARK    5  A    between atoms: C_16  and  N_17
REMARK    6  A    between atoms: C_20  and  C_21
REMARK    7  A    between atoms: C_21  and  C_22
REMARK    8  A    between atoms: C_22  and  C_23
REMARK    9  A    between atoms: C_30  and  C_31
REMARK                            x       y       z     vdW  Elec       q    Type
REMARK                         _______ _______ _______ _____ _____    ______ ____
ROOT
ATOM      1  N   UNL     1       3.693   5.806  17.927  0.00  0.00    +0.000 N 
ATOM      2  C   UNL     1       3.321   5.050  19.127  0.00  0.00    +0.000 A 
ATOM      3  N   UNL     1       3.718   3.841  19.549  0.00  0.00    +0.000 NA
ATOM      4  C   UNL     1       3.145   3.381  20.693  0.00  0.00    +0.000 A 
ATOM      5  C   UNL     1       2.248   4.103  21.482  0.00  0.00    +0.000 A 
ATOM      6  C   UNL     1       1.899   5.389  21.093  0.00  0.00    +0.000 A 
ATOM      7  C   UNL     1       2.438   5.825  19.901  0.00  0.00    +0.000 A 
ATOM      8  N   UNL     1       2.309   7.022  19.217  0.00  0.00    +0.000 N 
ATOM      9  C   UNL     1       1.730   8.248  19.405  0.00  0.00    +0.000 A 
ATOM     10  C   UNL     1       2.221   8.976  18.319  0.00  0.00    +0.000 A 
ATOM     11  C   UNL     1       2.179  10.424  18.013  0.00  0.00    +0.000 C 
ATOM     12  N   UNL     1       2.932   8.157  17.448  0.00  0.00    +0.000 NA
ATOM     13  C   UNL     1       3.042   7.007  18.062  0.00  0.00    +0.000 A 
ENDROOT
BRANCH   1  19
ATOM     14  C   UNL     1       7.315   4.210  13.655  0.00  0.00    +0.000 C 
ATOM     15  C   UNL     1       6.361   4.630  14.732  0.00  0.00    +0.000 A 
ATOM     16  C   UNL     1       5.255   3.856  15.060  0.00  0.00    +0.000 A 
ATOM     17  C   UNL     1       4.342   4.239  16.076  0.00  0.00    +0.000 A 
ATOM     18  C   UNL     1       3.158   3.317  16.225  0.00  0.00    +0.000 C 
ATOM     19  C   UNL     1       4.568   5.412  16.862  0.00  0.00    +0.000 A 
ATOM     20  C   UNL     1       5.729   6.164  16.520  0.00  0.00    +0.000 A 
ATOM     21 CL   UNL     1       6.346   7.490  17.460  0.00  0.00    +0.000 Cl
ATOM     22  C   UNL     1       6.575   5.798  15.453  0.00  0.00    +0.000 A 
ENDBRANCH   1  19
BRANCH   9  23
ATOM     23  C   UNL     1       0.950   8.530  20.643  0.00  0.00    +0.000 C 
BRANCH  23  24
ATOM     24  N   UNL     1       1.208   9.749  21.418  0.00  0.00    +0.000 NA
ATOM     25  C   UNL     1       1.112   9.414  22.863  0.00  0.00    +0.000 C 
ATOM     26  C   UNL     1      -0.372   9.466  23.210  0.00  0.00    +0.000 C 
ATOM     27  C   UNL     1      -0.934  10.541  22.282  0.00  0.00    +0.000 C 
ATOM     28  C   UNL     1       0.186  10.798  21.258  0.00  0.00    +0.000 C 
BRANCH  27  29
ATOM     29  C   UNL     1      -1.362  11.796  23.065  0.00  0.00    +0.000 C 
BRANCH  29  30
ATOM     30  C   UNL     1      -1.750  12.952  22.140  0.00  0.00    +0.000 C 
BRANCH  30  31
ATOM     31  C   UNL     1      -3.131  12.794  21.558  0.00  0.00    +0.000 A 
ATOM     32  C   UNL     1      -4.264  12.843  22.383  0.00  0.00    +0.000 A 
ATOM     33  C   UNL     1      -5.543  12.731  21.835  0.00  0.00    +0.000 A 
ATOM     34  C   UNL     1      -5.701  12.560  20.462  0.00  0.00    +0.000 A 
ATOM     35  C   UNL     1      -4.580  12.496  19.635  0.00  0.00    +0.000 A 
ATOM     36  C   UNL     1      -3.302  12.608  20.180  0.00  0.00    +0.000 A 
ENDBRANCH  30  31
ENDBRANCH  29  30
ENDBRANCH  27  29
ENDBRANCH  23  24
ENDBRANCH   9  23
TORSDOF 6
ENDMDL
MODEL 5
REMARK VINA RESULT:      -7.5      2.404      3.158
REMARK  Name = 
REMARK  9 active torsions:
REMARK  status: ('A' for Active; 'I' for Inactive)
REMARK    1  A    between atoms: C_1  and  C_2
REMARK    2  A    between atoms: C_4  and  C_5
REMARK    3  A    between atoms: C_6  and  N_7
REMARK    4  A    between atoms: C_15  and  C_16
REMARK    5  A    between atoms: C_16  and  N_17
REMARK    6  A    between atoms: C_20  and  C_21
REMARK    7  A    between atoms: C_21  and  C_22
REMARK    8  A    between atoms: C_22  and  C_23
REMARK    9  A    between atoms: C_30  and  C_31
REMARK                            x       y       z     vdW  Elec       q    Type
REMARK                         _______ _______ _______ _____ _____    ______ ____
ROOT
ATOM      1  N   UNL     1      -2.122  15.148  22.033  0.00  0.00    +0.000 N 
ATOM      2  C   UNL     1      -1.441  15.577  20.807  0.00  0.00    +0.000 A 
ATOM      3  N   UNL     1      -1.323  16.797  20.263  0.00  0.00    +0.000 NA
ATOM      4  C   UNL     1      -0.665  16.867  19.074  0.00  0.00    +0.000 A 
ATOM      5  C   UNL     1      -0.052  15.788  18.437  0.00  0.00    +0.000 A 
ATOM      6  C   UNL     1      -0.100  14.539  19.040  0.00  0.00    +0.000 A 
ATOM      7  C   UNL     1      -0.819  14.464  20.214  0.00  0.00    +0.000 A 
ATOM      8  N   UNL     1      -1.078  13.405  21.068  0.00  0.00    +0.000 N 
ATOM      9  C   UNL     1      -0.719  12.092  21.204  0.00  0.00    +0.000 A 
ATOM     10  C   UNL     1      -1.266  11.761  22.445  0.00  0.00    +0.000 A 
ATOM     11  C   UNL     1      -1.082  10.575  23.312  0.00  0.00    +0.000 C 
ATOM     12  N   UNL     1      -2.049  12.800  22.939  0.00  0.00    +0.000 NA
ATOM     13  C   UNL     1      -1.842  13.808  22.129  0.00  0.00    +0.000 A 
ENDROOT
BRANCH   1  19
ATOM     14  C   UNL     1      -5.260  18.311  25.783  0.00  0.00    +0.000 C 
ATOM     15  C   UNL     1      -4.436  17.525  24.809  0.00  0.00    +0.000 A 
ATOM     16  C   UNL     1      -3.120  17.179  25.089  0.00  0.00    +0.000 A 
ATOM     17  C   UNL     1      -2.326  16.436  24.178  0.00  0.00    +0.000 A 
ATOM     18  C   UNL     1      -0.898  16.237  24.620  0.00  0.00    +0.000 C 
ATOM     19  C   UNL     1      -2.880  15.942  22.956  0.00  0.00    +0.000 A 
ATOM     20  C   UNL     1      -4.241  16.287  22.716  0.00  0.00    +0.000 A 
ATOM     21 CL   UNL     1      -5.204  15.626  21.429  0.00  0.00    +0.000 Cl
ATOM     22  C   UNL     1      -4.980  17.093  23.606  0.00  0.00    +0.000 A 
ENDBRANCH   1  19
BRANCH   9  23
ATOM     23  C   UNL     1       0.188  11.453  20.209  0.00  0.00    +0.000 C 
BRANCH  23  24
ATOM     24  N   UNL     1      -0.233  10.245  19.491  0.00  0.00    +0.000 NA
ATOM     25  C   UNL     1      -0.051   9.077  20.391  0.00  0.00    +0.000 C 
ATOM     26  C   UNL     1       1.415   8.677  20.272  0.00  0.00    +0.000 C 
ATOM     27  C   UNL     1       1.783   9.035  18.833  0.00  0.00    +0.000 C 
ATOM     28  C   UNL     1       0.612   9.900  18.334  0.00  0.00    +0.000 C 
BRANCH  27  29
ATOM     29  C   UNL     1       2.033   7.776  17.983  0.00  0.00    +0.000 C 
BRANCH  29  30
ATOM     30  C   UNL     1       2.962   6.780  18.680  0.00  0.00    +0.000 C 
BRANCH  30  31
ATOM     31  C   UNL     1       2.281   5.476  19.004  0.00  0.00    +0.000 A 
ATOM     32  C   UNL     1       1.874   5.189  20.315  0.00  0.00    +0.000 A 
ATOM     33  C   UNL     1       1.212   3.994  20.604  0.00  0.00    +0.000 A 
ATOM     34  C   UNL     1       0.960   3.073  19.589  0.00  0.00    +0.000 A 
ATOM     35  C   UNL     1       1.374   3.342  18.286  0.00  0.00    +0.000 A 
ATOM     36  C   UNL     1       2.034   4.535  17.995  0.00  0.00    +0.000 A 
ENDBRANCH  30  31
ENDBRANCH  29  30
ENDBRANCH  27  29
ENDBRANCH  23  24
ENDBRANCH   9  23
TORSDOF 6
ENDMDL
MODEL 6
REMARK VINA RESULT:      -7.4      2.597      4.356
REMARK  Name = 
REMARK  9 active torsions:
REMARK  status: ('A' for Active; 'I' for Inactive)
REMARK    1  A    between atoms: C_1  and  C_2
REMARK    2  A    between atoms: C_4  and  C_5
REMARK    3  A    between atoms: C_6  and  N_7
REMARK    4  A    between atoms: C_15  and  C_16
REMARK    5  A    between atoms: C_16  and  N_17
REMARK    6  A    between atoms: C_20  and  C_21
REMARK    7  A    between atoms: C_21  and  C_22
REMARK    8  A    between atoms: C_22  and  C_23
REMARK    9  A    between atoms: C_30  and  C_31
REMARK                            x       y       z     vdW  Elec       q    Type
REMARK                         _______ _______ _______ _____ _____    ______ ____
ROOT
ATOM      1  N   UNL     1      -3.471  12.115  19.534  0.00  0.00    +0.000 N 
ATOM      2  C   UNL     1      -3.560  11.615  18.159  0.00  0.00    +0.000 A 
ATOM      3  N   UNL     1      -4.486  11.836  17.214  0.00  0.00    +0.000 NA
ATOM      4  C   UNL     1      -4.316  11.179  16.035  0.00  0.00    +0.000 A 
ATOM      5  C   UNL     1      -3.223  10.368  15.725  0.00  0.00    +0.000 A 
ATOM      6  C   UNL     1      -2.221  10.204  16.670  0.00  0.00    +0.000 A 
ATOM      7  C   UNL     1      -2.430  10.825  17.884  0.00  0.00    +0.000 A 
ATOM      8  N   UNL     1      -1.662  10.875  19.035  0.00  0.00    +0.000 N 
ATOM      9  C   UNL     1      -0.428  10.461  19.459  0.00  0.00    +0.000 A 
ATOM     10  C   UNL     1      -0.325  11.071  20.710  0.00  0.00    +0.000 A 
ATOM     11  C   UNL     1       0.825  11.232  21.629  0.00  0.00    +0.000 C 
ATOM     12  N   UNL     1      -1.520  11.687  21.067  0.00  0.00    +0.000 NA
ATOM     13  C   UNL     1      -2.275  11.627  20.000  0.00  0.00    +0.000 A 
ENDROOT
BRANCH   1  19
ATOM     14  C   UNL     1      -7.204  15.593  22.343  0.00  0.00    +0.000 C 
ATOM     15  C   UNL     1      -6.242  14.678  21.646  0.00  0.00    +0.000 A 
ATOM     16  C   UNL     1      -6.656  13.462  21.116  0.00  0.00    +0.000 A 
ATOM     17  C   UNL     1      -5.759  12.584  20.455  0.00  0.00    +0.000 A 
ATOM     18  C   UNL     1      -6.374  11.276  20.029  0.00  0.00    +0.000 C 
ATOM     19  C   UNL     1      -4.395  12.955  20.239  0.00  0.00    +0.000 A 
ATOM     20  C   UNL     1      -4.013  14.222  20.766  0.00  0.00    +0.000 A 
ATOM     21 CL   UNL     1      -2.491  14.997  20.443  0.00  0.00    +0.000 Cl
ATOM     22  C   UNL     1      -4.910  15.038  21.488  0.00  0.00    +0.000 A 
ENDBRANCH   1  19
BRANCH   9  23
ATOM     23  C   UNL     1       0.464   9.696  18.543  0.00  0.00    +0.000 C 
BRANCH  23  24
ATOM     24  N   UNL     1       1.824   9.337  18.962  0.00  0.00    +0.000 NA
ATOM     25  C   UNL     1       2.591   8.924  17.758  0.00  0.00    +0.000 C 
ATOM     26  C   UNL     1       2.243   7.459  17.519  0.00  0.00    +0.000 C 
ATOM     27  C   UNL     1       1.992   6.902  18.919  0.00  0.00    +0.000 C 
ATOM     28  C   UNL     1       1.899   8.145  19.823  0.00  0.00    +0.000 C 
BRANCH  27  29
ATOM     29  C   UNL     1       3.092   5.909  19.337  0.00  0.00    +0.000 C 
BRANCH  29  30
ATOM     30  C   UNL     1       3.919   5.422  18.146  0.00  0.00    +0.000 C 
BRANCH  30  31
ATOM     31  C   UNL     1       5.359   5.862  18.217  0.00  0.00    +0.000 A 
ATOM     32  C   UNL     1       5.852   6.838  17.341  0.00  0.00    +0.000 A 
ATOM     33  C   UNL     1       7.177   7.268  17.434  0.00  0.00    +0.000 A 
ATOM     34  C   UNL     1       8.022   6.718  18.396  0.00  0.00    +0.000 A 
ATOM     35  C   UNL     1       7.546   5.736  19.262  0.00  0.00    +0.000 A 
ATOM     36  C   UNL     1       6.222   5.307  19.172  0.00  0.00    +0.000 A 
ENDBRANCH  30  31
ENDBRANCH  29  30
ENDBRANCH  27  29
ENDBRANCH  23  24
ENDBRANCH   9  23
TORSDOF 6
ENDMDL
MODEL 7
REMARK VINA RESULT:      -7.4      4.123     11.236
REMARK  Name = 
REMARK  9 active torsions:
REMARK  status: ('A' for Active; 'I' for Inactive)
REMARK    1  A    between atoms: C_1  and  C_2
REMARK    2  A    between atoms: C_4  and  C_5
REMARK    3  A    between atoms: C_6  and  N_7
REMARK    4  A    between atoms: C_15  and  C_16
REMARK    5  A    between atoms: C_16  and  N_17
REMARK    6  A    between atoms: C_20  and  C_21
REMARK    7  A    between atoms: C_21  and  C_22
REMARK    8  A    between atoms: C_22  and  C_23
REMARK    9  A    between atoms: C_30  and  C_31
REMARK                            x       y       z     vdW  Elec       q    Type
REMARK                         _______ _______ _______ _____ _____    ______ ____
ROOT
ATOM      1  N   UNL     1       3.693   5.681  18.029  0.00  0.00    +0.000 N 
ATOM      2  C   UNL     1       3.335   4.926  19.234  0.00  0.00    +0.000 A 
ATOM      3  N   UNL     1       3.746   3.721  19.655  0.00  0.00    +0.000 NA
ATOM      4  C   UNL     1       3.184   3.259  20.805  0.00  0.00    +0.000 A 
ATOM      5  C   UNL     1       2.286   3.975  21.598  0.00  0.00    +0.000 A 
ATOM      6  C   UNL     1       1.924   5.256  21.208  0.00  0.00    +0.000 A 
ATOM      7  C   UNL     1       2.450   5.694  20.011  0.00  0.00    +0.000 A 
ATOM      8  N   UNL     1       2.307   6.888  19.325  0.00  0.00    +0.000 N 
ATOM      9  C   UNL     1       1.718   8.109  19.513  0.00  0.00    +0.000 A 
ATOM     10  C   UNL     1       2.195   8.839  18.423  0.00  0.00    +0.000 A 
ATOM     11  C   UNL     1       2.138  10.286  18.113  0.00  0.00    +0.000 C 
ATOM     12  N   UNL     1       2.908   8.025  17.549  0.00  0.00    +0.000 NA
ATOM     13  C   UNL     1       3.032   6.877  18.165  0.00  0.00    +0.000 A 
ENDROOT
BRANCH   1  19
ATOM     14  C   UNL     1       7.169   4.099  13.632  0.00  0.00    +0.000 C 
ATOM     15  C   UNL     1       6.297   4.496  14.785  0.00  0.00    +0.000 A 
ATOM     16  C   UNL     1       6.544   5.653  15.513  0.00  0.00    +0.000 A 
ATOM     17  C   UNL     1       5.730   6.043  16.608  0.00  0.00    +0.000 A 
ATOM     18  C   UNL     1       6.209   7.279  17.327  0.00  0.00    +0.000 C 
ATOM     19  C   UNL     1       4.565   5.293  16.960  0.00  0.00    +0.000 A 
ATOM     20  C   UNL     1       4.323   4.130  16.172  0.00  0.00    +0.000 A 
ATOM     21 CL   UNL     1       2.868   3.183  16.247  0.00  0.00    +0.000 Cl
ATOM     22  C   UNL     1       5.196   3.726  15.140  0.00  0.00    +0.000 A 
ENDBRANCH   1  19
BRANCH   9  23
ATOM     23  C   UNL     1       0.944   8.388  20.755  0.00  0.00    +0.000 C 
BRANCH  23  24
ATOM     24  N   UNL     1       1.302   9.523  21.613  0.00  0.00    +0.000 NA
ATOM     25  C   UNL     1       0.726   9.292  22.963  0.00  0.00    +0.000 C 
ATOM     26  C   UNL     1      -0.723   9.762  22.889  0.00  0.00    +0.000 C 
ATOM     27  C   UNL     1      -0.691  10.907  21.879  0.00  0.00    +0.000 C 
ATOM     28  C   UNL     1       0.693  10.804  21.213  0.00  0.00    +0.000 C 
BRANCH  27  29
ATOM     29  C   UNL     1      -0.955  12.265  22.556  0.00  0.00    +0.000 C 
BRANCH  29  30
ATOM     30  C   UNL     1      -2.334  12.326  23.217  0.00  0.00    +0.000 C 
BRANCH  30  31
ATOM     31  C   UNL     1      -2.650  13.687  23.782  0.00  0.00    +0.000 A 
ATOM     32  C   UNL     1      -3.962  14.180  23.764  0.00  0.00    +0.000 A 
ATOM     33  C   UNL     1      -4.256  15.427  24.320  0.00  0.00    +0.000 A 
ATOM     34  C   UNL     1      -3.241  16.194  24.888  0.00  0.00    +0.000 A 
ATOM     35  C   UNL     1      -1.931  15.719  24.898  0.00  0.00    +0.000 A 
ATOM     36  C   UNL     1      -1.635  14.473  24.344  0.00  0.00    +0.000 A 
ENDBRANCH  30  31
ENDBRANCH  29  30
ENDBRANCH  27  29
ENDBRANCH  23  24
ENDBRANCH   9  23
TORSDOF 6
ENDMDL
MODEL 8
REMARK VINA RESULT:      -7.3      2.090      3.572
REMARK  Name = 
REMARK  9 active torsions:
REMARK  status: ('A' for Active; 'I' for Inactive)
REMARK    1  A    between atoms: C_1  and  C_2
REMARK    2  A    between atoms: C_4  and  C_5
REMARK    3  A    between atoms: C_6  and  N_7
REMARK    4  A    between atoms: C_15  and  C_16
REMARK    5  A    between atoms: C_16  and  N_17
REMARK    6  A    between atoms: C_20  and  C_21
REMARK    7  A    between atoms: C_21  and  C_22
REMARK    8  A    between atoms: C_22  and  C_23
REMARK    9  A    between atoms: C_30  and  C_31
REMARK                            x       y       z     vdW  Elec       q    Type
REMARK                         _______ _______ _______ _____ _____    ______ ____
ROOT
ATOM      1  N   UNL     1      -3.416  13.949  21.229  0.00  0.00    +0.000 N 
ATOM      2  C   UNL     1      -4.203  13.209  20.239  0.00  0.00    +0.000 A 
ATOM      3  N   UNL     1      -5.519  13.236  19.981  0.00  0.00    +0.000 NA
ATOM      4  C   UNL     1      -5.965  12.381  19.022  0.00  0.00    +0.000 A 
ATOM      5  C   UNL     1      -5.149  11.551  18.251  0.00  0.00    +0.000 A 
ATOM      6  C   UNL     1      -3.778  11.582  18.458  0.00  0.00    +0.000 A 
ATOM      7  C   UNL     1      -3.339  12.406  19.472  0.00  0.00    +0.000 A 
ATOM      8  N   UNL     1      -2.069  12.679  19.952  0.00  0.00    +0.000 N 
ATOM      9  C   UNL     1      -0.772  12.375  19.638  0.00  0.00    +0.000 A 
ATOM     10  C   UNL     1      -0.056  13.202  20.505  0.00  0.00    +0.000 A 
ATOM     11  C   UNL     1       1.383  13.550  20.561  0.00  0.00    +0.000 C 
ATOM     12  N   UNL     1      -0.906  13.847  21.398  0.00  0.00    +0.000 NA
ATOM     13  C   UNL     1      -2.117  13.579  20.981  0.00  0.00    +0.000 A 
ENDROOT
BRANCH   1  19
ATOM     14  C   UNL     1      -5.329  17.779  25.177  0.00  0.00    +0.000 C 
ATOM     15  C   UNL     1      -4.811  16.787  24.181  0.00  0.00    +0.000 A 
ATOM     16  C   UNL     1      -4.936  15.420  24.390  0.00  0.00    +0.000 A 
ATOM     17  C   UNL     1      -4.450  14.467  23.457  0.00  0.00    +0.000 A 
ATOM     18  C   UNL     1      -4.598  13.034  23.901  0.00  0.00    +0.000 C 
ATOM     19  C   UNL     1      -3.875  14.883  22.216  0.00  0.00    +0.000 A 
ATOM     20  C   UNL     1      -3.791  16.292  22.020  0.00  0.00    +0.000 A 
ATOM     21 CL   UNL     1      -3.348  17.045  20.518  0.00  0.00    +0.000 Cl
ATOM     22  C   UNL     1      -4.212  17.213  23.001  0.00  0.00    +0.000 A 
ENDBRANCH   1  19
BRANCH   9  23
ATOM     23  C   UNL     1      -0.467  11.477  18.489  0.00  0.00    +0.000 C 
BRANCH  23  24
ATOM     24  N   UNL     1      -0.508  10.019  18.656  0.00  0.00    +0.000 NA
ATOM     25  C   UNL     1       0.187   9.673  19.923  0.00  0.00    +0.000 C 
ATOM     26  C   UNL     1       1.674   9.625  19.587  0.00  0.00    +0.000 C 
ATOM     27  C   UNL     1       1.713   9.152  18.136  0.00  0.00    +0.000 C 
ATOM     28  C   UNL     1       0.259   9.270  17.646  0.00  0.00    +0.000 C 
BRANCH  27  29
ATOM     29  C   UNL     1       2.295   7.731  18.020  0.00  0.00    +0.000 C 
BRANCH  29  30
ATOM     30  C   UNL     1       2.434   7.048  19.382  0.00  0.00    +0.000 C 
BRANCH  30  31
ATOM     31  C   UNL     1       1.983   5.610  19.362  0.00  0.00    +0.000 A 
ATOM     32  C   UNL     1       2.027   4.864  18.176  0.00  0.00    +0.000 A 
ATOM     33  C   UNL     1       1.641   3.522  18.170  0.00  0.00    +0.000 A 
ATOM     34  C   UNL     1       1.199   2.919  19.344  0.00  0.00    +0.000 A 
ATOM     35  C   UNL     1       1.136   3.656  20.525  0.00  0.00    +0.000 A 
ATOM     36  C   UNL     1       1.523   4.996  20.534  0.00  0.00    +0.000 A 
ENDBRANCH  30  31
ENDBRANCH  29  30
ENDBRANCH  27  29
ENDBRANCH  23  24
ENDBRANCH   9  23
TORSDOF 6
ENDMDL
MODEL 9
REMARK VINA RESULT:      -7.3      1.759      3.279
REMARK  Name = 
REMARK  9 active torsions:
REMARK  status: ('A' for Active; 'I' for Inactive)
REMARK    1  A    between atoms: C_1  and  C_2
REMARK    2  A    between atoms: C_4  and  C_5
REMARK    3  A    between atoms: C_6  and  N_7
REMARK    4  A    between atoms: C_15  and  C_16
REMARK    5  A    between atoms: C_16  and  N_17
REMARK    6  A    between atoms: C_20  and  C_21
REMARK    7  A    between atoms: C_21  and  C_22
REMARK    8  A    between atoms: C_22  and  C_23
REMARK    9  A    between atoms: C_30  and  C_31
REMARK                            x       y       z     vdW  Elec       q    Type
REMARK                         _______ _______ _______ _____ _____    ______ ____
ROOT
ATOM      1  N   UNL     1      -2.697  13.500  21.075  0.00  0.00    +0.000 N 
ATOM      2  C   UNL     1      -3.396  12.757  20.021  0.00  0.00    +0.000 A 
ATOM      3  N   UNL     1      -4.690  12.760  19.671  0.00  0.00    +0.000 NA
ATOM      4  C   UNL     1      -5.049  11.910  18.671  0.00  0.00    +0.000 A 
ATOM      5  C   UNL     1      -4.162  11.110  17.950  0.00  0.00    +0.000 A 
ATOM      6  C   UNL     1      -2.810  11.167  18.253  0.00  0.00    +0.000 A 
ATOM      7  C   UNL     1      -2.462  11.986  19.307  0.00  0.00    +0.000 A 
ATOM      8  N   UNL     1      -1.235  12.279  19.879  0.00  0.00    +0.000 N 
ATOM      9  C   UNL     1       0.087  12.007  19.654  0.00  0.00    +0.000 A 
ATOM     10  C   UNL     1       0.721  12.837  20.579  0.00  0.00    +0.000 A 
ATOM     11  C   UNL     1       2.144  13.215  20.742  0.00  0.00    +0.000 C 
ATOM     12  N   UNL     1      -0.204  13.449  21.419  0.00  0.00    +0.000 NA
ATOM     13  C   UNL     1      -1.376  13.162  20.914  0.00  0.00    +0.000 A 
ENDROOT
BRANCH   1  19
ATOM     14  C   UNL     1      -4.873  17.160  25.048  0.00  0.00    +0.000 C 
ATOM     15  C   UNL     1      -4.340  16.222  24.008  0.00  0.00    +0.000 A 
ATOM     16  C   UNL     1      -3.833  16.691  22.803  0.00  0.00    +0.000 A 
ATOM     17  C   UNL     1      -3.326  15.817  21.807  0.00  0.00    +0.000 A 
ATOM     18  C   UNL     1      -2.903  16.507  20.534  0.00  0.00    +0.000 C 
ATOM     19  C   UNL     1      -3.246  14.409  22.038  0.00  0.00    +0.000 A 
ATOM     20  C   UNL     1      -3.745  13.965  23.297  0.00  0.00    +0.000 A 
ATOM     21 CL   UNL     1      -3.555  12.349  23.909  0.00  0.00    +0.000 Cl
ATOM     22  C   UNL     1      -4.315  14.851  24.235  0.00  0.00    +0.000 A 
ENDBRANCH   1  19
BRANCH   9  23
ATOM     23  C   UNL     1       0.492  11.133  18.517  0.00  0.00    +0.000 C 
BRANCH  23  24
ATOM     24  N   UNL     1       0.167   9.702  18.529  0.00  0.00    +0.000 NA
ATOM     25  C   UNL     1      -0.088   9.292  19.935  0.00  0.00    +0.000 C 
ATOM     26  C   UNL     1       1.282   9.020  20.548  0.00  0.00    +0.000 C 
ATOM     27  C   UNL     1       2.119   8.507  19.378  0.00  0.00    +0.000 C 
ATOM     28  C   UNL     1       1.278   8.823  18.128  0.00  0.00    +0.000 C 
BRANCH  27  29
ATOM     29  C   UNL     1       2.460   7.014  19.538  0.00  0.00    +0.000 C 
BRANCH  29  30
ATOM     30  C   UNL     1       2.260   6.231  18.238  0.00  0.00    +0.000 C 
BRANCH  30  31
ATOM     31  C   UNL     1       1.991   4.767  18.476  0.00  0.00    +0.000 A 
ATOM     32  C   UNL     1       2.454   3.800  17.573  0.00  0.00    +0.000 A 
ATOM     33  C   UNL     1       2.233   2.443  17.816  0.00  0.00    +0.000 A 
ATOM     34  C   UNL     1       1.539   2.042  18.955  0.00  0.00    +0.000 A 
ATOM     35  C   UNL     1       1.060   2.997  19.851  0.00  0.00    +0.000 A 
ATOM     36  C   UNL     1       1.282   4.353  19.612  0.00  0.00    +0.000 A 
ENDBRANCH  30  31
ENDBRANCH  29  30
ENDBRANCH  27  29
ENDBRANCH  23  24
ENDBRANCH   9  23
TORSDOF 6
ENDMDL
