MODEL 1
REMARK VINA RESULT:      -8.2      0.000      0.000
REMARK  Name = 
REMARK  12 active torsions:
REMARK  status: ('A' for Active; 'I' for Inactive)
REMARK    1  A    between atoms: C_1  and  O_2
REMARK    2  A    between atoms: O_2  and  C_3
REMARK    3  A    between atoms: C_4  and  C_5
REMARK    4  A    between atoms: C_4  and  C_9
REMARK    5  A    between atoms: C_5  and  O_7
REMARK    6  A    between atoms: O_7  and  C_8
REMARK    7  A    between atoms: C_14  and  C_15
REMARK    8  A    between atoms: C_15  and  O_16
REMARK    9  A    between atoms: O_16  and  C_17
REMARK   10  A    between atoms: C_21  and  C_22
REMARK   11  A    between atoms: C_22  and  C_24
REMARK   12  A    between atoms: C_25  and  C_26
REMARK                            x       y       z     vdW  Elec       q    Type
REMARK                         _______ _______ _______ _____ _____    ______ ____
ROOT
ATOM      1  O   UNL     1       2.681   6.971  19.817  0.00  0.00    +0.000 OA
ENDROOT
BRANCH   1   2
ATOM      2  C   UNL     1       1.809   8.007  20.022  0.00  0.00    +0.000 A 
ATOM      3  C   UNL     1       1.548   8.784  18.890  0.00  0.00    +0.000 A 
ATOM      4  C   UNL     1       0.721   9.904  18.970  0.00  0.00    +0.000 A 
ATOM      5  C   UNL     1       0.183  10.281  20.199  0.00  0.00    +0.000 A 
ATOM      6  C   UNL     1       0.478   9.540  21.349  0.00  0.00    +0.000 A 
ATOM      7  C   UNL     1       1.261   8.377  21.252  0.00  0.00    +0.000 A 
BRANCH   6   8
ATOM      8  C   UNL     1      -0.033  10.055  22.651  0.00  0.00    +0.000 C 
ATOM      9  O   UNL     1       0.509   9.731  23.702  0.00  0.00    +0.000 OA
BRANCH   8  10
ATOM     10  C   UNL     1      -1.258  10.901  22.617  0.00  0.00    +0.000 C 
ATOM     11  C   UNL     1      -1.222  12.181  23.018  0.00  0.00    +0.000 C 
BRANCH  11  12
ATOM     12  C   UNL     1      -2.408  13.055  23.023  0.00  0.00    +0.000 A 
ATOM     13  C   UNL     1      -3.684  12.483  23.105  0.00  0.00    +0.000 A 
ATOM     14  C   UNL     1      -4.826  13.290  23.119  0.00  0.00    +0.000 A 
ATOM     15  C   UNL     1      -4.704  14.677  23.061  0.00  0.00    +0.000 A 
ATOM     16  C   UNL     1      -3.441  15.259  23.002  0.00  0.00    +0.000 A 
ATOM     17  C   UNL     1      -2.300  14.453  22.991  0.00  0.00    +0.000 A 
ENDBRANCH  11  12
ENDBRANCH   8  10
ENDBRANCH   6   8
ENDBRANCH   1   2
BRANCH   1  18
ATOM     18  C   UNL     1       3.001   6.598  18.469  0.00  0.00    +0.000 C 
BRANCH  18  24
ATOM     19  C   UNL     1       3.926   4.467  17.413  0.00  0.00    +0.000 A 
ATOM     20  C   UNL     1       3.806   3.100  17.109  0.00  0.00    +0.000 A 
ATOM     21  C   UNL     1       2.704   2.366  17.543  0.00  0.00    +0.000 A 
ATOM     22  C   UNL     1       1.723   2.984  18.306  0.00  0.00    +0.000 A 
ATOM     23  C   UNL     1       1.839   4.335  18.633  0.00  0.00    +0.000 A 
ATOM     24  C   UNL     1       2.922   5.108  18.174  0.00  0.00    +0.000 A 
BRANCH  19  26
ATOM     25  C   UNL     1       6.235   5.250  17.682  0.00  0.00    +0.000 C 
ATOM     26  C   UNL     1       5.134   5.162  16.916  0.00  0.00    +0.000 C 
BRANCH  25  28
ATOM     27  C   UNL     1       7.269   5.387  19.771  0.00  0.00    +0.000 C 
ATOM     28  O   UNL     1       6.299   4.739  18.954  0.00  0.00    +0.000 OA
ENDBRANCH  25  28
BRANCH  26  29
ATOM     29  C   UNL     1       5.205   5.731  15.537  0.00  0.00    +0.000 C 
ATOM     30  O   UNL     1       5.110   6.921  15.273  0.00  0.00    +0.000 OA
BRANCH  29  31
ATOM     31  O   UNL     1       5.372   4.730  14.636  0.00  0.00    +0.000 OA
ATOM     32  C   UNL     1       6.707   4.580  14.154  0.00  0.00    +0.000 C 
ENDBRANCH  29  31
ENDBRANCH  26  29
ENDBRANCH  19  26
ENDBRANCH  18  24
ENDBRANCH   1  18
TORSDOF 10
ENDMDL
MODEL 2
REMARK VINA RESULT:      -8.0      2.471      2.977
REMARK  Name = 
REMARK  12 active torsions:
REMARK  status: ('A' for Active; 'I' for Inactive)
REMARK    1  A    between atoms: C_1  and  O_2
REMARK    2  A    between atoms: O_2  and  C_3
REMARK    3  A    between atoms: C_4  and  C_5
REMARK    4  A    between atoms: C_4  and  C_9
REMARK    5  A    between atoms: C_5  and  O_7
REMARK    6  A    between atoms: O_7  and  C_8
REMARK    7  A    between atoms: C_14  and  C_15
REMARK    8  A    between atoms: C_15  and  O_16
REMARK    9  A    between atoms: O_16  and  C_17
REMARK   10  A    between atoms: C_21  and  C_22
REMARK   11  A    between atoms: C_22  and  C_24
REMARK   12  A    between atoms: C_25  and  C_26
REMARK                            x       y       z     vdW  Elec       q    Type
REMARK                         _______ _______ _______ _____ _____    ______ ____
ROOT
ATOM      1  O   UNL     1       2.784   7.357  19.126  0.00  0.00    +0.000 OA
ENDROOT
BRANCH   1   2
ATOM      2  C   UNL     1       1.843   8.178  19.687  0.00  0.00    +0.000 A 
ATOM      3  C   UNL     1       1.379   7.764  20.939  0.00  0.00    +0.000 A 
ATOM      4  C   UNL     1       0.379   8.478  21.599  0.00  0.00    +0.000 A 
ATOM      5  C   UNL     1      -0.196   9.590  20.988  0.00  0.00    +0.000 A 
ATOM      6  C   UNL     1       0.225   9.985  19.713  0.00  0.00    +0.000 A 
ATOM      7  C   UNL     1       1.275   9.299  19.079  0.00  0.00    +0.000 A 
BRANCH   6   8
ATOM      8  C   UNL     1      -0.503  11.111  19.064  0.00  0.00    +0.000 C 
ATOM      9  O   UNL     1       0.103  11.932  18.384  0.00  0.00    +0.000 OA
BRANCH   8  10
ATOM     10  C   UNL     1      -1.961  11.233  19.343  0.00  0.00    +0.000 C 
ATOM     11  C   UNL     1      -2.816  11.619  18.384  0.00  0.00    +0.000 C 
BRANCH  11  12
ATOM     12  C   UNL     1      -4.263  11.774  18.612  0.00  0.00    +0.000 A 
ATOM     13  C   UNL     1      -4.710  12.509  19.719  0.00  0.00    +0.000 A 
ATOM     14  C   UNL     1      -6.079  12.677  19.954  0.00  0.00    +0.000 A 
ATOM     15  C   UNL     1      -7.013  12.122  19.083  0.00  0.00    +0.000 A 
ATOM     16  C   UNL     1      -6.582  11.408  17.968  0.00  0.00    +0.000 A 
ATOM     17  C   UNL     1      -5.215  11.242  17.731  0.00  0.00    +0.000 A 
ENDBRANCH  11  12
ENDBRANCH   8  10
ENDBRANCH   6   8
ENDBRANCH   1   2
BRANCH   1  18
ATOM     18  C   UNL     1       2.477   6.705  17.885  0.00  0.00    +0.000 C 
BRANCH  18  24
ATOM     19  C   UNL     1       3.882   4.631  17.397  0.00  0.00    +0.000 A 
ATOM     20  C   UNL     1       4.027   3.234  17.352  0.00  0.00    +0.000 A 
ATOM     21  C   UNL     1       2.996   2.395  17.770  0.00  0.00    +0.000 A 
ATOM     22  C   UNL     1       1.819   2.944  18.262  0.00  0.00    +0.000 A 
ATOM     23  C   UNL     1       1.669   4.329  18.331  0.00  0.00    +0.000 A 
ATOM     24  C   UNL     1       2.680   5.198  17.878  0.00  0.00    +0.000 A 
BRANCH  19  26
ATOM     25  C   UNL     1       6.009   5.787  17.795  0.00  0.00    +0.000 C 
ATOM     26  C   UNL     1       5.032   5.441  16.938  0.00  0.00    +0.000 C 
BRANCH  25  28
ATOM     27  C   UNL     1       7.274   5.491  19.735  0.00  0.00    +0.000 C 
ATOM     28  O   UNL     1       5.989   5.444  19.124  0.00  0.00    +0.000 OA
ENDBRANCH  25  28
BRANCH  26  29
ATOM     29  C   UNL     1       5.191   5.848  15.510  0.00  0.00    +0.000 C 
ATOM     30  O   UNL     1       5.163   7.004  15.112  0.00  0.00    +0.000 OA
BRANCH  29  31
ATOM     31  O   UNL     1       5.349   4.746  14.734  0.00  0.00    +0.000 OA
ATOM     32  C   UNL     1       6.700   4.468  14.365  0.00  0.00    +0.000 C 
ENDBRANCH  29  31
ENDBRANCH  26  29
ENDBRANCH  19  26
ENDBRANCH  18  24
ENDBRANCH   1  18
TORSDOF 10
ENDMDL
MODEL 3
REMARK VINA RESULT:      -7.9      0.906      1.312
REMARK  Name = 
REMARK  12 active torsions:
REMARK  status: ('A' for Active; 'I' for Inactive)
REMARK    1  A    between atoms: C_1  and  O_2
REMARK    2  A    between atoms: O_2  and  C_3
REMARK    3  A    between atoms: C_4  and  C_5
REMARK    4  A    between atoms: C_4  and  C_9
REMARK    5  A    between atoms: C_5  and  O_7
REMARK    6  A    between atoms: O_7  and  C_8
REMARK    7  A    between atoms: C_14  and  C_15
REMARK    8  A    between atoms: C_15  and  O_16
REMARK    9  A    between atoms: O_16  and  C_17
REMARK   10  A    between atoms: C_21  and  C_22
REMARK   11  A    between atoms: C_22  and  C_24
REMARK   12  A    between atoms: C_25  and  C_26
REMARK                            x       y       z     vdW  Elec       q    Type
REMARK                         _______ _______ _______ _____ _____    ______ ____
ROOT
ATOM      1  O   UNL     1       2.203   8.018  17.771  0.00  0.00    +0.000 OA
ENDROOT
BRANCH   1   2
ATOM      2  C   UNL     1       1.305   8.747  18.504  0.00  0.00    +0.000 A 
ATOM      3  C   UNL     1       0.417   9.513  17.744  0.00  0.00    +0.000 A 
ATOM      4  C   UNL     1      -0.515  10.346  18.363  0.00  0.00    +0.000 A 
ATOM      5  C   UNL     1      -0.534  10.452  19.752  0.00  0.00    +0.000 A 
ATOM      6  C   UNL     1       0.384   9.727  20.522  0.00  0.00    +0.000 A 
ATOM      7  C   UNL     1       1.279   8.843  19.897  0.00  0.00    +0.000 A 
BRANCH   6   8
ATOM      8  C   UNL     1       0.390   9.966  21.993  0.00  0.00    +0.000 C 
ATOM      9  O   UNL     1       1.298   9.526  22.689  0.00  0.00    +0.000 OA
BRANCH   8  10
ATOM     10  C   UNL     1      -0.780  10.682  22.573  0.00  0.00    +0.000 C 
ATOM     11  C   UNL     1      -0.770  12.017  22.715  0.00  0.00    +0.000 C 
BRANCH  11  12
ATOM     12  C   UNL     1      -1.891  12.771  23.299  0.00  0.00    +0.000 A 
ATOM     13  C   UNL     1      -1.705  14.114  23.656  0.00  0.00    +0.000 A 
ATOM     14  C   UNL     1      -2.756  14.856  24.206  0.00  0.00    +0.000 A 
ATOM     15  C   UNL     1      -4.004  14.267  24.398  0.00  0.00    +0.000 A 
ATOM     16  C   UNL     1      -4.208  12.941  24.028  0.00  0.00    +0.000 A 
ATOM     17  C   UNL     1      -3.160  12.200  23.475  0.00  0.00    +0.000 A 
ENDBRANCH  11  12
ENDBRANCH   8  10
ENDBRANCH   6   8
ENDBRANCH   1   2
BRANCH   1  18
ATOM     18  C   UNL     1       3.134   7.175  18.465  0.00  0.00    +0.000 C 
BRANCH  18  24
ATOM     19  C   UNL     1       3.946   4.991  17.424  0.00  0.00    +0.000 A 
ATOM     20  C   UNL     1       3.762   3.627  17.144  0.00  0.00    +0.000 A 
ATOM     21  C   UNL     1       2.639   2.947  17.611  0.00  0.00    +0.000 A 
ATOM     22  C   UNL     1       1.701   3.617  18.384  0.00  0.00    +0.000 A 
ATOM     23  C   UNL     1       1.881   4.966  18.687  0.00  0.00    +0.000 A 
ATOM     24  C   UNL     1       2.986   5.686  18.194  0.00  0.00    +0.000 A 
BRANCH  19  26
ATOM     25  C   UNL     1       6.230   5.846  17.691  0.00  0.00    +0.000 C 
ATOM     26  C   UNL     1       5.171   5.627  16.891  0.00  0.00    +0.000 C 
BRANCH  25  28
ATOM     27  C   UNL     1       7.537   5.507  19.595  0.00  0.00    +0.000 C 
ATOM     28  O   UNL     1       6.233   5.526  19.025  0.00  0.00    +0.000 OA
ENDBRANCH  25  28
BRANCH  26  29
ATOM     29  C   UNL     1       5.309   5.990  15.449  0.00  0.00    +0.000 C 
ATOM     30  O   UNL     1       5.174   7.120  15.002  0.00  0.00    +0.000 OA
BRANCH  29  31
ATOM     31  O   UNL     1       5.586   4.878  14.721  0.00  0.00    +0.000 OA
ATOM     32  C   UNL     1       6.914   4.824  14.200  0.00  0.00    +0.000 C 
ENDBRANCH  29  31
ENDBRANCH  26  29
ENDBRANCH  19  26
ENDBRANCH  18  24
ENDBRANCH   1  18
TORSDOF 10
ENDMDL
MODEL 4
REMARK VINA RESULT:      -7.9      2.742      3.847
REMARK  Name = 
REMARK  12 active torsions:
REMARK  status: ('A' for Active; 'I' for Inactive)
REMARK    1  A    between atoms: C_1  and  O_2
REMARK    2  A    between atoms: O_2  and  C_3
REMARK    3  A    between atoms: C_4  and  C_5
REMARK    4  A    between atoms: C_4  and  C_9
REMARK    5  A    between atoms: C_5  and  O_7
REMARK    6  A    between atoms: O_7  and  C_8
REMARK    7  A    between atoms: C_14  and  C_15
REMARK    8  A    between atoms: C_15  and  O_16
REMARK    9  A    between atoms: O_16  and  C_17
REMARK   10  A    between atoms: C_21  and  C_22
REMARK   11  A    between atoms: C_22  and  C_24
REMARK   12  A    between atoms: C_25  and  C_26
REMARK                            x       y       z     vdW  Elec       q    Type
REMARK                         _______ _______ _______ _____ _____    ______ ____
ROOT
ATOM      1  O   UNL     1       2.806   7.183  19.556  0.00  0.00    +0.000 OA
ENDROOT
BRANCH   1   2
ATOM      2  C   UNL     1       1.843   8.103  19.873  0.00  0.00    +0.000 A 
ATOM      3  C   UNL     1       1.321   7.982  21.164  0.00  0.00    +0.000 A 
ATOM      4  C   UNL     1       0.294   8.820  21.598  0.00  0.00    +0.000 A 
ATOM      5  C   UNL     1      -0.250   9.759  20.724  0.00  0.00    +0.000 A 
ATOM      6  C   UNL     1       0.230   9.855  19.413  0.00  0.00    +0.000 A 
ATOM      7  C   UNL     1       1.306   9.051  18.999  0.00  0.00    +0.000 A 
BRANCH   6   8
ATOM      8  C   UNL     1      -0.465  10.798  18.492  0.00  0.00    +0.000 C 
ATOM      9  O   UNL     1      -1.291  10.383  17.686  0.00  0.00    +0.000 OA
BRANCH   8  10
ATOM     10  C   UNL     1      -0.057  12.229  18.544  0.00  0.00    +0.000 C 
ATOM     11  C   UNL     1       1.240  12.574  18.586  0.00  0.00    +0.000 C 
BRANCH  11  12
ATOM     12  C   UNL     1       1.698  13.972  18.659  0.00  0.00    +0.000 A 
ATOM     13  C   UNL     1       2.894  14.338  18.026  0.00  0.00    +0.000 A 
ATOM     14  C   UNL     1       3.348  15.660  18.073  0.00  0.00    +0.000 A 
ATOM     15  C   UNL     1       2.607  16.631  18.744  0.00  0.00    +0.000 A 
ATOM     16  C   UNL     1       1.407  16.285  19.358  0.00  0.00    +0.000 A 
ATOM     17  C   UNL     1       0.952  14.966  19.309  0.00  0.00    +0.000 A 
ENDBRANCH  11  12
ENDBRANCH   8  10
ENDBRANCH   6   8
ENDBRANCH   1   2
BRANCH   1  18
ATOM     18  C   UNL     1       2.884   6.704  18.206  0.00  0.00    +0.000 C 
BRANCH  18  24
ATOM     19  C   UNL     1       3.929   4.515  17.414  0.00  0.00    +0.000 A 
ATOM     20  C   UNL     1       3.867   3.122  17.239  0.00  0.00    +0.000 A 
ATOM     21  C   UNL     1       2.764   2.396  17.681  0.00  0.00    +0.000 A 
ATOM     22  C   UNL     1       1.723   3.049  18.327  0.00  0.00    +0.000 A 
ATOM     23  C   UNL     1       1.781   4.428  18.526  0.00  0.00    +0.000 A 
ATOM     24  C   UNL     1       2.866   5.191  18.053  0.00  0.00    +0.000 A 
BRANCH  19  26
ATOM     25  C   UNL     1       6.228   5.322  17.702  0.00  0.00    +0.000 C 
ATOM     26  C   UNL     1       5.143   5.201  16.918  0.00  0.00    +0.000 C 
BRANCH  25  28
ATOM     27  C   UNL     1       7.335   5.410  19.756  0.00  0.00    +0.000 C 
ATOM     28  O   UNL     1       6.270   4.854  18.991  0.00  0.00    +0.000 OA
ENDBRANCH  25  28
BRANCH  26  29
ATOM     29  C   UNL     1       5.239   5.723  15.522  0.00  0.00    +0.000 C 
ATOM     30  O   UNL     1       5.106   6.898  15.211  0.00  0.00    +0.000 OA
BRANCH  29  31
ATOM     31  O   UNL     1       5.475   4.699  14.664  0.00  0.00    +0.000 OA
ATOM     32  C   UNL     1       6.795   4.669  14.122  0.00  0.00    +0.000 C 
ENDBRANCH  29  31
ENDBRANCH  26  29
ENDBRANCH  19  26
ENDBRANCH  18  24
ENDBRANCH   1  18
TORSDOF 10
ENDMDL
MODEL 5
REMARK VINA RESULT:      -7.9      3.073      4.468
REMARK  Name = 
REMARK  12 active torsions:
REMARK  status: ('A' for Active; 'I' for Inactive)
REMARK    1  A    between atoms: C_1  and  O_2
REMARK    2  A    between atoms: O_2  and  C_3
REMARK    3  A    between atoms: C_4  and  C_5
REMARK    4  A    between atoms: C_4  and  C_9
REMARK    5  A    between atoms: C_5  and  O_7
REMARK    6  A    between atoms: O_7  and  C_8
REMARK    7  A    between atoms: C_14  and  C_15
REMARK    8  A    between atoms: C_15  and  O_16
REMARK    9  A    between atoms: O_16  and  C_17
REMARK   10  A    between atoms: C_21  and  C_22
REMARK   11  A    between atoms: C_22  and  C_24
REMARK   12  A    between atoms: C_25  and  C_26
REMARK                            x       y       z     vdW  Elec       q    Type
REMARK                         _______ _______ _______ _____ _____    ______ ____
ROOT
ATOM      1  O   UNL     1       2.290   7.485  17.810  0.00  0.00    +0.000 OA
ENDROOT
BRANCH   1   2
ATOM      2  C   UNL     1       1.863   8.249  18.863  0.00  0.00    +0.000 A 
ATOM      3  C   UNL     1       1.792   7.572  20.084  0.00  0.00    +0.000 A 
ATOM      4  C   UNL     1       1.321   8.215  21.229  0.00  0.00    +0.000 A 
ATOM      5  C   UNL     1       0.874   9.532  21.148  0.00  0.00    +0.000 A 
ATOM      6  C   UNL     1       0.893  10.204  19.920  0.00  0.00    +0.000 A 
ATOM      7  C   UNL     1       1.426   9.573  18.784  0.00  0.00    +0.000 A 
BRANCH   6   8
ATOM      8  C   UNL     1       0.299  11.570  19.872  0.00  0.00    +0.000 C 
ATOM      9  O   UNL     1      -0.817  11.778  20.336  0.00  0.00    +0.000 OA
BRANCH   8  10
ATOM     10  C   UNL     1       1.080  12.630  19.176  0.00  0.00    +0.000 C 
ATOM     11  C   UNL     1       0.793  13.929  19.357  0.00  0.00    +0.000 C 
BRANCH  11  12
ATOM     12  C   UNL     1       1.520  15.015  18.678  0.00  0.00    +0.000 A 
ATOM     13  C   UNL     1       2.738  14.736  18.043  0.00  0.00    +0.000 A 
ATOM     14  C   UNL     1       3.445  15.747  17.386  0.00  0.00    +0.000 A 
ATOM     15  C   UNL     1       2.939  17.044  17.347  0.00  0.00    +0.000 A 
ATOM     16  C   UNL     1       1.720  17.330  17.955  0.00  0.00    +0.000 A 
ATOM     17  C   UNL     1       1.011  16.320  18.609  0.00  0.00    +0.000 A 
ENDBRANCH  11  12
ENDBRANCH   8  10
ENDBRANCH   6   8
ENDBRANCH   1   2
BRANCH   1  18
ATOM     18  C   UNL     1       3.440   6.646  17.989  0.00  0.00    +0.000 C 
BRANCH  18  24
ATOM     19  C   UNL     1       4.193   4.236  17.618  0.00  0.00    +0.000 A 
ATOM     20  C   UNL     1       3.904   2.864  17.529  0.00  0.00    +0.000 A 
ATOM     21  C   UNL     1       2.612   2.390  17.749  0.00  0.00    +0.000 A 
ATOM     22  C   UNL     1       1.601   3.280  18.084  0.00  0.00    +0.000 A 
ATOM     23  C   UNL     1       1.877   4.642  18.196  0.00  0.00    +0.000 A 
ATOM     24  C   UNL     1       3.165   5.151  17.940  0.00  0.00    +0.000 A 
BRANCH  19  26
ATOM     25  C   UNL     1       6.064   4.760  16.120  0.00  0.00    +0.000 C 
ATOM     26  C   UNL     1       5.594   4.645  17.375  0.00  0.00    +0.000 C 
BRANCH  25  28
ATOM     27  C   UNL     1       6.059   3.968  13.924  0.00  0.00    +0.000 C 
ATOM     28  O   UNL     1       5.301   4.487  15.012  0.00  0.00    +0.000 OA
ENDBRANCH  25  28
BRANCH  26  29
ATOM     29  C   UNL     1       6.516   5.006  18.492  0.00  0.00    +0.000 C 
ATOM     30  O   UNL     1       6.265   4.843  19.678  0.00  0.00    +0.000 OA
BRANCH  29  31
ATOM     31  O   UNL     1       7.653   5.551  17.991  0.00  0.00    +0.000 OA
ATOM     32  C   UNL     1       7.904   6.893  18.409  0.00  0.00    +0.000 C 
ENDBRANCH  29  31
ENDBRANCH  26  29
ENDBRANCH  19  26
ENDBRANCH  18  24
ENDBRANCH   1  18
TORSDOF 10
ENDMDL
MODEL 6
REMARK VINA RESULT:      -7.9      2.687      3.699
REMARK  Name = 
REMARK  12 active torsions:
REMARK  status: ('A' for Active; 'I' for Inactive)
REMARK    1  A    between atoms: C_1  and  O_2
REMARK    2  A    between atoms: O_2  and  C_3
REMARK    3  A    between atoms: C_4  and  C_5
REMARK    4  A    between atoms: C_4  and  C_9
REMARK    5  A    between atoms: C_5  and  O_7
REMARK    6  A    between atoms: O_7  and  C_8
REMARK    7  A    between atoms: C_14  and  C_15
REMARK    8  A    between atoms: C_15  and  O_16
REMARK    9  A    between atoms: O_16  and  C_17
REMARK   10  A    between atoms: C_21  and  C_22
REMARK   11  A    between atoms: C_22  and  C_24
REMARK   12  A    between atoms: C_25  and  C_26
REMARK                            x       y       z     vdW  Elec       q    Type
REMARK                         _______ _______ _______ _____ _____    ______ ____
ROOT
ATOM      1  O   UNL     1       2.973   7.151  18.902  0.00  0.00    +0.000 OA
ENDROOT
BRANCH   1   2
ATOM      2  C   UNL     1       2.120   7.847  19.717  0.00  0.00    +0.000 A 
ATOM      3  C   UNL     1       1.580   7.102  20.769  0.00  0.00    +0.000 A 
ATOM      4  C   UNL     1       0.655   7.673  21.643  0.00  0.00    +0.000 A 
ATOM      5  C   UNL     1       0.228   8.983  21.442  0.00  0.00    +0.000 A 
ATOM      6  C   UNL     1       0.725   9.723  20.362  0.00  0.00    +0.000 A 
ATOM      7  C   UNL     1       1.703   9.165  19.521  0.00  0.00    +0.000 A 
BRANCH   6   8
ATOM      8  C   UNL     1       0.149  11.079  20.132  0.00  0.00    +0.000 C 
ATOM      9  O   UNL     1       0.309  11.969  20.959  0.00  0.00    +0.000 OA
BRANCH   8  10
ATOM     10  C   UNL     1      -0.680  11.269  18.910  0.00  0.00    +0.000 C 
ATOM     11  C   UNL     1      -1.742  10.484  18.668  0.00  0.00    +0.000 C 
BRANCH  11  12
ATOM     12  C   UNL     1      -2.583  10.617  17.467  0.00  0.00    +0.000 A 
ATOM     13  C   UNL     1      -2.145  10.063  16.256  0.00  0.00    +0.000 A 
ATOM     14  C   UNL     1      -2.928  10.168  15.102  0.00  0.00    +0.000 A 
ATOM     15  C   UNL     1      -4.159  10.820  15.147  0.00  0.00    +0.000 A 
ATOM     16  C   UNL     1      -4.615  11.356  16.348  0.00  0.00    +0.000 A 
ATOM     17  C   UNL     1      -3.835  11.248  17.502  0.00  0.00    +0.000 A 
ENDBRANCH  11  12
ENDBRANCH   8  10
ENDBRANCH   6   8
ENDBRANCH   1   2
BRANCH   1  18
ATOM     18  C   UNL     1       2.421   6.388  17.820  0.00  0.00    +0.000 C 
BRANCH  18  24
ATOM     19  C   UNL     1       3.955   4.390  17.412  0.00  0.00    +0.000 A 
ATOM     20  C   UNL     1       4.185   3.004  17.413  0.00  0.00    +0.000 A 
ATOM     21  C   UNL     1       3.202   2.117  17.847  0.00  0.00    +0.000 A 
ATOM     22  C   UNL     1       1.988   2.608  18.309  0.00  0.00    +0.000 A 
ATOM     23  C   UNL     1       1.753   3.982  18.333  0.00  0.00    +0.000 A 
ATOM     24  C   UNL     1       2.715   4.897  17.862  0.00  0.00    +0.000 A 
BRANCH  19  26
ATOM     25  C   UNL     1       6.037   5.635  17.782  0.00  0.00    +0.000 C 
ATOM     26  C   UNL     1       5.059   5.254  16.940  0.00  0.00    +0.000 C 
BRANCH  25  28
ATOM     27  C   UNL     1       7.332   5.457  19.715  0.00  0.00    +0.000 C 
ATOM     28  O   UNL     1       6.057   5.279  19.106  0.00  0.00    +0.000 OA
ENDBRANCH  25  28
BRANCH  26  29
ATOM     29  C   UNL     1       5.172   5.681  15.513  0.00  0.00    +0.000 C 
ATOM     30  O   UNL     1       5.152   6.844  15.134  0.00  0.00    +0.000 OA
BRANCH  29  31
ATOM     31  O   UNL     1       5.281   4.589  14.715  0.00  0.00    +0.000 OA
ATOM     32  C   UNL     1       6.605   4.317  14.257  0.00  0.00    +0.000 C 
ENDBRANCH  29  31
ENDBRANCH  26  29
ENDBRANCH  19  26
ENDBRANCH  18  24
ENDBRANCH   1  18
TORSDOF 10
ENDMDL
MODEL 7
REMARK VINA RESULT:      -7.9      1.441      2.640
REMARK  Name = 
REMARK  12 active torsions:
REMARK  status: ('A' for Active; 'I' for Inactive)
REMARK    1  A    between atoms: C_1  and  O_2
REMARK    2  A    between atoms: O_2  and  C_3
REMARK    3  A    between atoms: C_4  and  C_5
REMARK    4  A    between atoms: C_4  and  C_9
REMARK    5  A    between atoms: C_5  and  O_7
REMARK    6  A    between atoms: O_7  and  C_8
REMARK    7  A    between atoms: C_14  and  C_15
REMARK    8  A    between atoms: C_15  and  O_16
REMARK    9  A    between atoms: O_16  and  C_17
REMARK   10  A    between atoms: C_21  and  C_22
REMARK   11  A    between atoms: C_22  and  C_24
REMARK   12  A    between atoms: C_25  and  C_26
REMARK                            x       y       z     vdW  Elec       q    Type
REMARK                         _______ _______ _______ _____ _____    ______ ____
ROOT
ATOM      1  O   UNL     1       2.296   7.564  17.746  0.00  0.00    +0.000 OA
ENDROOT
BRANCH   1   2
ATOM      2  C   UNL     1       1.817   8.304  18.795  0.00  0.00    +0.000 A 
ATOM      3  C   UNL     1       1.914   7.680  20.041  0.00  0.00    +0.000 A 
ATOM      4  C   UNL     1       1.414   8.299  21.188  0.00  0.00    +0.000 A 
ATOM      5  C   UNL     1       0.770   9.530  21.085  0.00  0.00    +0.000 A 
ATOM      6  C   UNL     1       0.623  10.141  19.834  0.00  0.00    +0.000 A 
ATOM      7  C   UNL     1       1.183   9.544  18.692  0.00  0.00    +0.000 A 
BRANCH   6   8
ATOM      8  C   UNL     1      -0.171  11.401  19.771  0.00  0.00    +0.000 C 
ATOM      9  O   UNL     1      -0.035  12.173  18.829  0.00  0.00    +0.000 OA
BRANCH   8  10
ATOM     10  C   UNL     1      -1.059  11.706  20.927  0.00  0.00    +0.000 C 
ATOM     11  C   UNL     1      -1.598  12.926  21.078  0.00  0.00    +0.000 C 
BRANCH  11  12
ATOM     12  C   UNL     1      -2.467  13.286  22.212  0.00  0.00    +0.000 A 
ATOM     13  C   UNL     1      -3.016  12.271  23.007  0.00  0.00    +0.000 A 
ATOM     14  C   UNL     1      -3.838  12.586  24.094  0.00  0.00    +0.000 A 
ATOM     15  C   UNL     1      -4.112  13.916  24.403  0.00  0.00    +0.000 A 
ATOM     16  C   UNL     1      -3.555  14.935  23.634  0.00  0.00    +0.000 A 
ATOM     17  C   UNL     1      -2.732  14.621  22.550  0.00  0.00    +0.000 A 
ENDBRANCH  11  12
ENDBRANCH   8  10
ENDBRANCH   6   8
ENDBRANCH   1   2
BRANCH   1  18
ATOM     18  C   UNL     1       3.442   6.729  17.960  0.00  0.00    +0.000 C 
BRANCH  18  24
ATOM     19  C   UNL     1       4.216   4.327  17.581  0.00  0.00    +0.000 A 
ATOM     20  C   UNL     1       3.937   2.954  17.471  0.00  0.00    +0.000 A 
ATOM     21  C   UNL     1       2.643   2.472  17.656  0.00  0.00    +0.000 A 
ATOM     22  C   UNL     1       1.620   3.353  17.978  0.00  0.00    +0.000 A 
ATOM     23  C   UNL     1       1.886   4.715  18.111  0.00  0.00    +0.000 A 
ATOM     24  C   UNL     1       3.177   5.233  17.890  0.00  0.00    +0.000 A 
BRANCH  19  26
ATOM     25  C   UNL     1       6.111   4.900  16.132  0.00  0.00    +0.000 C 
ATOM     26  C   UNL     1       5.620   4.745  17.375  0.00  0.00    +0.000 C 
BRANCH  25  28
ATOM     27  C   UNL     1       6.097   3.980  13.987  0.00  0.00    +0.000 C 
ATOM     28  O   UNL     1       5.368   4.660  15.004  0.00  0.00    +0.000 OA
ENDBRANCH  25  28
BRANCH  26  29
ATOM     29  C   UNL     1       6.523   5.072  18.518  0.00  0.00    +0.000 C 
ATOM     30  O   UNL     1       6.231   4.922  19.697  0.00  0.00    +0.000 OA
BRANCH  29  31
ATOM     31  O   UNL     1       7.695   5.572  18.050  0.00  0.00    +0.000 OA
ATOM     32  C   UNL     1       8.053   6.847  18.582  0.00  0.00    +0.000 C 
ENDBRANCH  29  31
ENDBRANCH  26  29
ENDBRANCH  19  26
ENDBRANCH  18  24
ENDBRANCH   1  18
TORSDOF 10
ENDMDL
MODEL 8
REMARK VINA RESULT:      -7.8      1.472      1.809
REMARK  Name = 
REMARK  12 active torsions:
REMARK  status: ('A' for Active; 'I' for Inactive)
REMARK    1  A    between atoms: C_1  and  O_2
REMARK    2  A    between atoms: O_2  and  C_3
REMARK    3  A    between atoms: C_4  and  C_5
REMARK    4  A    between atoms: C_4  and  C_9
REMARK    5  A    between atoms: C_5  and  O_7
REMARK    6  A    between atoms: O_7  and  C_8
REMARK    7  A    between atoms: C_14  and  C_15
REMARK    8  A    between atoms: C_15  and  O_16
REMARK    9  A    between atoms: O_16  and  C_17
REMARK   10  A    between atoms: C_21  and  C_22
REMARK   11  A    between atoms: C_22  and  C_24
REMARK   12  A    between atoms: C_25  and  C_26
REMARK                            x       y       z     vdW  Elec       q    Type
REMARK                         _______ _______ _______ _____ _____    ______ ____
ROOT
ATOM      1  O   UNL     1       2.514   7.897  17.765  0.00  0.00    +0.000 OA
ENDROOT
BRANCH   1   2
ATOM      2  C   UNL     1       1.901   8.636  18.742  0.00  0.00    +0.000 A 
ATOM      3  C   UNL     1       1.808   8.000  19.983  0.00  0.00    +0.000 A 
ATOM      4  C   UNL     1       1.159   8.617  21.052  0.00  0.00    +0.000 A 
ATOM      5  C   UNL     1       0.558   9.861  20.872  0.00  0.00    +0.000 A 
ATOM      6  C   UNL     1       0.602  10.485  19.621  0.00  0.00    +0.000 A 
ATOM      7  C   UNL     1       1.309   9.888  18.564  0.00  0.00    +0.000 A 
BRANCH   6   8
ATOM      8  C   UNL     1      -0.154  11.760  19.459  0.00  0.00    +0.000 C 
ATOM      9  O   UNL     1       0.110  12.525  18.538  0.00  0.00    +0.000 OA
BRANCH   8  10
ATOM     10  C   UNL     1      -1.170  12.087  20.497  0.00  0.00    +0.000 C 
ATOM     11  C   UNL     1      -0.825  12.743  21.616  0.00  0.00    +0.000 C 
BRANCH  11  12
ATOM     12  C   UNL     1      -1.785  13.074  22.682  0.00  0.00    +0.000 A 
ATOM     13  C   UNL     1      -2.767  12.139  23.039  0.00  0.00    +0.000 A 
ATOM     14  C   UNL     1      -3.687  12.425  24.053  0.00  0.00    +0.000 A 
ATOM     15  C   UNL     1      -3.630  13.643  24.727  0.00  0.00    +0.000 A 
ATOM     16  C   UNL     1      -2.646  14.572  24.397  0.00  0.00    +0.000 A 
ATOM     17  C   UNL     1      -1.725  14.285  23.387  0.00  0.00    +0.000 A 
ENDBRANCH  11  12
ENDBRANCH   8  10
ENDBRANCH   6   8
ENDBRANCH   1   2
BRANCH   1  18
ATOM     18  C   UNL     1       3.575   7.006  18.138  0.00  0.00    +0.000 C 
BRANCH  18  24
ATOM     19  C   UNL     1       4.230   4.748  17.148  0.00  0.00    +0.000 A 
ATOM     20  C   UNL     1       3.938   3.401  16.872  0.00  0.00    +0.000 A 
ATOM     21  C   UNL     1       2.743   2.828  17.302  0.00  0.00    +0.000 A 
ATOM     22  C   UNL     1       1.840   3.586  18.033  0.00  0.00    +0.000 A 
ATOM     23  C   UNL     1       2.125   4.918  18.332  0.00  0.00    +0.000 A 
ATOM     24  C   UNL     1       3.307   5.533  17.875  0.00  0.00    +0.000 A 
BRANCH  19  26
ATOM     25  C   UNL     1       6.640   5.133  17.396  0.00  0.00    +0.000 C 
ATOM     26  C   UNL     1       5.525   5.268  16.657  0.00  0.00    +0.000 C 
BRANCH  25  28
ATOM     27  C   UNL     1       7.064   5.422  19.674  0.00  0.00    +0.000 C 
ATOM     28  O   UNL     1       6.644   4.543  18.635  0.00  0.00    +0.000 OA
ENDBRANCH  25  28
BRANCH  26  29
ATOM     29  C   UNL     1       5.663   5.899  15.310  0.00  0.00    +0.000 C 
ATOM     30  O   UNL     1       5.023   6.869  14.930  0.00  0.00    +0.000 OA
BRANCH  29  31
ATOM     31  O   UNL     1       6.585   5.223  14.579  0.00  0.00    +0.000 OA
ATOM     32  C   UNL     1       6.081   4.070  13.905  0.00  0.00    +0.000 C 
ENDBRANCH  29  31
ENDBRANCH  26  29
ENDBRANCH  19  26
ENDBRANCH  18  24
ENDBRANCH   1  18
TORSDOF 10
ENDMDL
MODEL 9
REMARK VINA RESULT:      -7.8      0.957      2.136
REMARK  Name = 
REMARK  12 active torsions:
REMARK  status: ('A' for Active; 'I' for Inactive)
REMARK    1  A    between atoms: C_1  and  O_2
REMARK    2  A    between atoms: O_2  and  C_3
REMARK    3  A    between atoms: C_4  and  C_5
REMARK    4  A    between atoms: C_4  and  C_9
REMARK    5  A    between atoms: C_5  and  O_7
REMARK    6  A    between atoms: O_7  and  C_8
REMARK    7  A    between atoms: C_14  and  C_15
REMARK    8  A    between atoms: C_15  and  O_16
REMARK    9  A    between atoms: O_16  and  C_17
REMARK   10  A    between atoms: C_21  and  C_22
REMARK   11  A    between atoms: C_22  and  C_24
REMARK   12  A    between atoms: C_25  and  C_26
REMARK                            x       y       z     vdW  Elec       q    Type
REMARK                         _______ _______ _______ _____ _____    ______ ____
ROOT
ATOM      1  O   UNL     1       3.062   7.263  18.712  0.00  0.00    +0.000 OA
ENDROOT
BRANCH   1   2
ATOM      2  C   UNL     1       2.035   8.111  19.032  0.00  0.00    +0.000 A 
ATOM      3  C   UNL     1       1.519   8.835  17.954  0.00  0.00    +0.000 A 
ATOM      4  C   UNL     1       0.506   9.775  18.147  0.00  0.00    +0.000 A 
ATOM      5  C   UNL     1       0.035  10.030  19.433  0.00  0.00    +0.000 A 
ATOM      6  C   UNL     1       0.579   9.347  20.526  0.00  0.00    +0.000 A 
ATOM      7  C   UNL     1       1.555   8.357  20.320  0.00  0.00    +0.000 A 
BRANCH   6   8
ATOM      8  C   UNL     1       0.114   9.742  21.887  0.00  0.00    +0.000 C 
ATOM      9  O   UNL     1       0.529   9.153  22.879  0.00  0.00    +0.000 OA
BRANCH   8  10
ATOM     10  C   UNL     1      -0.918  10.812  21.971  0.00  0.00    +0.000 C 
ATOM     11  C   UNL     1      -0.952  11.655  23.015  0.00  0.00    +0.000 C 
BRANCH  11  12
ATOM     12  C   UNL     1      -1.962  12.718  23.157  0.00  0.00    +0.000 A 
ATOM     13  C   UNL     1      -3.314  12.413  22.950  0.00  0.00    +0.000 A 
ATOM     14  C   UNL     1      -4.294  13.401  23.086  0.00  0.00    +0.000 A 
ATOM     15  C   UNL     1      -3.935  14.700  23.439  0.00  0.00    +0.000 A 
ATOM     16  C   UNL     1      -2.598  15.011  23.669  0.00  0.00    +0.000 A 
ATOM     17  C   UNL     1      -1.619  14.023  23.536  0.00  0.00    +0.000 A 
ENDBRANCH  11  12
ENDBRANCH   8  10
ENDBRANCH   6   8
ENDBRANCH   1   2
BRANCH   1  18
ATOM     18  C   UNL     1       2.957   6.474  17.520  0.00  0.00    +0.000 C 
BRANCH  18  24
ATOM     19  C   UNL     1       3.983   4.142  17.660  0.00  0.00    +0.000 A 
ATOM     20  C   UNL     1       3.847   2.752  17.820  0.00  0.00    +0.000 A 
ATOM     21  C   UNL     1       2.598   2.180  18.054  0.00  0.00    +0.000 A 
ATOM     22  C   UNL     1       1.477   2.992  18.156  0.00  0.00    +0.000 A 
ATOM     23  C   UNL     1       1.601   4.374  18.020  0.00  0.00    +0.000 A 
ATOM     24  C   UNL     1       2.844   4.974  17.743  0.00  0.00    +0.000 A 
BRANCH  19  26
ATOM     25  C   UNL     1       5.877   4.648  16.184  0.00  0.00    +0.000 C 
ATOM     26  C   UNL     1       5.349   4.659  17.421  0.00  0.00    +0.000 C 
BRANCH  25  28
ATOM     27  C   UNL     1       6.022   4.066  13.928  0.00  0.00    +0.000 C 
ATOM     28  O   UNL     1       5.211   4.143  15.096  0.00  0.00    +0.000 OA
ENDBRANCH  25  28
BRANCH  26  29
ATOM     29  C   UNL     1       6.164   5.268  18.514  0.00  0.00    +0.000 C 
ATOM     30  O   UNL     1       6.604   4.653  19.475  0.00  0.00    +0.000 OA
BRANCH  29  31
ATOM     31  O   UNL     1       6.321   6.596  18.284  0.00  0.00    +0.000 OA
ATOM     32  C   UNL     1       7.638   6.979  17.888  0.00  0.00    +0.000 C 
ENDBRANCH  29  31
ENDBRANCH  26  29
ENDBRANCH  19  26
ENDBRANCH  18  24
ENDBRANCH   1  18
TORSDOF 10
ENDMDL
