MODEL 1
REMARK VINA RESULT:      -6.3      0.000      0.000
REMARK  Name = 
REMARK  4 active torsions:
REMARK  status: ('A' for Active; 'I' for Inactive)
REMARK    1  A    between atoms: C_1  and  N_2
REMARK    2  A    between atoms: C_6  and  C_7
REMARK    3  A    between atoms: C_7  and  O_8
REMARK    4  A    between atoms: O_8  and  C_9
REMARK                            x       y       z     vdW  Elec       q    Type
REMARK                         _______ _______ _______ _____ _____    ______ ____
ROOT
ATOM      1  O   UNL     1       2.558   3.498  17.150  0.00  0.00    +0.000 OA
ENDROOT
BRANCH   1   2
ATOM      2  C   UNL     1       3.697   4.282  17.176  0.00  0.00    +0.000 A 
ATOM      3  C   UNL     1       3.571   5.587  17.611  0.00  0.00    +0.000 A 
ATOM      4  C   UNL     1       4.713   6.380  17.655  0.00  0.00    +0.000 A 
ATOM      5  C   UNL     1       5.905   5.821  17.240  0.00  0.00    +0.000 A 
ATOM      6 CL   UNL     1       7.372   6.702  17.269  0.00  0.00    +0.000 Cl
ATOM      7  N   UNL     1       6.004   4.553  16.796  0.00  0.00    +0.000 NA
ATOM      8  N   UNL     1       4.881   3.775  16.763  0.00  0.00    +0.000 NA
ENDBRANCH   1   2
BRANCH   1   9
ATOM      9  C   UNL     1       2.814   2.196  17.697  0.00  0.00    +0.000 C 
BRANCH   9  15
ATOM     10  C   UNL     1       4.467   2.072  20.353  0.00  0.00    +0.000 C 
ATOM     11  N   UNL     1       3.228   2.797  20.100  0.00  0.00    +0.000 NA
ATOM     12  C   UNL     1       2.441   2.971  21.319  0.00  0.00    +0.000 C 
ATOM     13  C   UNL     1       1.086   3.413  20.787  0.00  0.00    +0.000 C 
ATOM     14  C   UNL     1       0.989   2.817  19.386  0.00  0.00    +0.000 C 
ATOM     15  C   UNL     1       2.329   2.112  19.152  0.00  0.00    +0.000 C 
ENDBRANCH   9  15
ENDBRANCH   1   9
TORSDOF 3
ENDMDL
MODEL 2
REMARK VINA RESULT:      -6.3      2.764      3.631
REMARK  Name = 
REMARK  4 active torsions:
REMARK  status: ('A' for Active; 'I' for Inactive)
REMARK    1  A    between atoms: C_1  and  N_2
REMARK    2  A    between atoms: C_6  and  C_7
REMARK    3  A    between atoms: C_7  and  O_8
REMARK    4  A    between atoms: O_8  and  C_9
REMARK                            x       y       z     vdW  Elec       q    Type
REMARK                         _______ _______ _______ _____ _____    ______ ____
ROOT
ATOM      1  O   UNL     1       5.937   4.967  17.543  0.00  0.00    +0.000 OA
ENDROOT
BRANCH   1   2
ATOM      2  C   UNL     1       6.277   4.869  16.206  0.00  0.00    +0.000 A 
ATOM      3  C   UNL     1       5.521   4.032  15.409  0.00  0.00    +0.000 A 
ATOM      4  C   UNL     1       5.846   3.937  14.059  0.00  0.00    +0.000 A 
ATOM      5  C   UNL     1       6.920   4.670  13.599  0.00  0.00    +0.000 A 
ATOM      6 CL   UNL     1       7.395   4.639  11.955  0.00  0.00    +0.000 Cl
ATOM      7  N   UNL     1       7.661   5.464  14.398  0.00  0.00    +0.000 NA
ATOM      8  N   UNL     1       7.333   5.561  15.720  0.00  0.00    +0.000 NA
ENDBRANCH   1   2
BRANCH   1   9
ATOM      9  C   UNL     1       4.575   5.395  17.698  0.00  0.00    +0.000 C 
BRANCH   9  15
ATOM     10  C   UNL     1       1.607   4.400  17.720  0.00  0.00    +0.000 C 
ATOM     11  N   UNL     1       2.803   3.666  18.116  0.00  0.00    +0.000 NA
ATOM     12  C   UNL     1       2.509   2.644  19.118  0.00  0.00    +0.000 C 
ATOM     13  C   UNL     1       3.889   2.262  19.628  0.00  0.00    +0.000 C 
ATOM     14  C   UNL     1       4.756   3.500  19.413  0.00  0.00    +0.000 C 
ATOM     15  C   UNL     1       3.842   4.518  18.724  0.00  0.00    +0.000 C 
ENDBRANCH   9  15
ENDBRANCH   1   9
TORSDOF 3
ENDMDL
MODEL 3
REMARK VINA RESULT:      -6.3      2.551      3.169
REMARK  Name = 
REMARK  4 active torsions:
REMARK  status: ('A' for Active; 'I' for Inactive)
REMARK    1  A    between atoms: C_1  and  N_2
REMARK    2  A    between atoms: C_6  and  C_7
REMARK    3  A    between atoms: C_7  and  O_8
REMARK    4  A    between atoms: O_8  and  C_9
REMARK                            x       y       z     vdW  Elec       q    Type
REMARK                         _______ _______ _______ _____ _____    ______ ____
ROOT
ATOM      1  O   UNL     1       5.848   4.403  17.980  0.00  0.00    +0.000 OA
ENDROOT
BRANCH   1   2
ATOM      2  C   UNL     1       6.239   4.524  16.659  0.00  0.00    +0.000 A 
ATOM      3  C   UNL     1       5.530   3.813  15.710  0.00  0.00    +0.000 A 
ATOM      4  C   UNL     1       5.906   3.939  14.377  0.00  0.00    +0.000 A 
ATOM      5  C   UNL     1       6.981   4.752  14.080  0.00  0.00    +0.000 A 
ATOM      6 CL   UNL     1       7.516   4.989  12.473  0.00  0.00    +0.000 Cl
ATOM      7  N   UNL     1       7.675   5.419  15.023  0.00  0.00    +0.000 NA
ATOM      8  N   UNL     1       7.298   5.300  16.331  0.00  0.00    +0.000 NA
ENDBRANCH   1   2
BRANCH   1   9
ATOM      9  C   UNL     1       4.488   3.954  18.076  0.00  0.00    +0.000 C 
BRANCH   9  15
ATOM     10  C   UNL     1       2.822   6.185  19.508  0.00  0.00    +0.000 C 
ATOM     11  N   UNL     1       2.706   4.740  19.660  0.00  0.00    +0.000 NA
ATOM     12  C   UNL     1       2.197   4.371  20.980  0.00  0.00    +0.000 C 
ATOM     13  C   UNL     1       2.482   2.879  21.048  0.00  0.00    +0.000 C 
ATOM     14  C   UNL     1       3.683   2.656  20.133  0.00  0.00    +0.000 C 
ATOM     15  C   UNL     1       3.991   4.029  19.528  0.00  0.00    +0.000 C 
ENDBRANCH   9  15
ENDBRANCH   1   9
TORSDOF 3
ENDMDL
MODEL 4
REMARK VINA RESULT:      -6.2      2.442      3.032
REMARK  Name = 
REMARK  4 active torsions:
REMARK  status: ('A' for Active; 'I' for Inactive)
REMARK    1  A    between atoms: C_1  and  N_2
REMARK    2  A    between atoms: C_6  and  C_7
REMARK    3  A    between atoms: C_7  and  O_8
REMARK    4  A    between atoms: O_8  and  C_9
REMARK                            x       y       z     vdW  Elec       q    Type
REMARK                         _______ _______ _______ _____ _____    ______ ____
ROOT
ATOM      1  O   UNL     1       5.360   4.423  17.819  0.00  0.00    +0.000 OA
ENDROOT
BRANCH   1   2
ATOM      2  C   UNL     1       5.943   4.598  16.578  0.00  0.00    +0.000 A 
ATOM      3  C   UNL     1       5.369   3.951  15.501  0.00  0.00    +0.000 A 
ATOM      4  C   UNL     1       5.938   4.131  14.244  0.00  0.00    +0.000 A 
ATOM      5  C   UNL     1       7.059   4.931  14.150  0.00  0.00    +0.000 A 
ATOM      6 CL   UNL     1       7.828   5.232  12.651  0.00  0.00    +0.000 Cl
ATOM      7  N   UNL     1       7.618   5.535  15.217  0.00  0.00    +0.000 NA
ATOM      8  N   UNL     1       7.051   5.363  16.447  0.00  0.00    +0.000 NA
ENDBRANCH   1   2
BRANCH   1   9
ATOM      9  C   UNL     1       4.170   3.626  17.723  0.00  0.00    +0.000 C 
BRANCH   9  15
ATOM     10  C   UNL     1       2.992   2.902  20.533  0.00  0.00    +0.000 C 
ATOM     11  N   UNL     1       3.204   4.227  19.962  0.00  0.00    +0.000 NA
ATOM     12  C   UNL     1       2.267   5.209  20.503  0.00  0.00    +0.000 C 
ATOM     13  C   UNL     1       2.422   6.385  19.551  0.00  0.00    +0.000 C 
ATOM     14  C   UNL     1       2.869   5.775  18.226  0.00  0.00    +0.000 C 
ATOM     15  C   UNL     1       3.015   4.275  18.500  0.00  0.00    +0.000 C 
ENDBRANCH   9  15
ENDBRANCH   1   9
TORSDOF 3
ENDMDL
MODEL 5
REMARK VINA RESULT:      -6.2      2.256      2.842
REMARK  Name = 
REMARK  4 active torsions:
REMARK  status: ('A' for Active; 'I' for Inactive)
REMARK    1  A    between atoms: C_1  and  N_2
REMARK    2  A    between atoms: C_6  and  C_7
REMARK    3  A    between atoms: C_7  and  O_8
REMARK    4  A    between atoms: O_8  and  C_9
REMARK                            x       y       z     vdW  Elec       q    Type
REMARK                         _______ _______ _______ _____ _____    ______ ____
ROOT
ATOM      1  O   UNL     1       5.345   4.313  18.406  0.00  0.00    +0.000 OA
ENDROOT
BRANCH   1   2
ATOM      2  C   UNL     1       5.887   4.501  17.149  0.00  0.00    +0.000 A 
ATOM      3  C   UNL     1       5.319   3.813  16.094  0.00  0.00    +0.000 A 
ATOM      4  C   UNL     1       5.848   4.006  14.821  0.00  0.00    +0.000 A 
ATOM      5  C   UNL     1       6.926   4.859  14.690  0.00  0.00    +0.000 A 
ATOM      6 CL   UNL     1       7.642   5.180  13.170  0.00  0.00    +0.000 Cl
ATOM      7  N   UNL     1       7.481   5.502  15.736  0.00  0.00    +0.000 NA
ATOM      8  N   UNL     1       6.953   5.318  16.982  0.00  0.00    +0.000 NA
ENDBRANCH   1   2
BRANCH   1   9
ATOM      9  C   UNL     1       4.331   3.296  18.385  0.00  0.00    +0.000 C 
BRANCH   9  15
ATOM     10  C   UNL     1       1.492   4.466  17.770  0.00  0.00    +0.000 C 
ATOM     11  N   UNL     1       1.851   3.447  18.750  0.00  0.00    +0.000 NA
ATOM     12  C   UNL     1       0.925   3.428  19.880  0.00  0.00    +0.000 C 
ATOM     13  C   UNL     1       1.659   2.577  20.905  0.00  0.00    +0.000 C 
ATOM     14  C   UNL     1       3.141   2.752  20.587  0.00  0.00    +0.000 C 
ATOM     15  C   UNL     1       3.186   3.648  19.345  0.00  0.00    +0.000 C 
ENDBRANCH   9  15
ENDBRANCH   1   9
TORSDOF 3
ENDMDL
MODEL 6
REMARK VINA RESULT:      -6.1      2.526      3.147
REMARK  Name = 
REMARK  4 active torsions:
REMARK  status: ('A' for Active; 'I' for Inactive)
REMARK    1  A    between atoms: C_1  and  N_2
REMARK    2  A    between atoms: C_6  and  C_7
REMARK    3  A    between atoms: C_7  and  O_8
REMARK    4  A    between atoms: O_8  and  C_9
REMARK                            x       y       z     vdW  Elec       q    Type
REMARK                         _______ _______ _______ _____ _____    ______ ____
ROOT
ATOM      1  O   UNL     1       5.454   5.433  17.782  0.00  0.00    +0.000 OA
ENDROOT
BRANCH   1   2
ATOM      2  C   UNL     1       5.965   5.245  16.511  0.00  0.00    +0.000 A 
ATOM      3  C   UNL     1       5.227   4.480  15.629  0.00  0.00    +0.000 A 
ATOM      4  C   UNL     1       5.724   4.295  14.342  0.00  0.00    +0.000 A 
ATOM      5  C   UNL     1       6.939   4.871  14.029  0.00  0.00    +0.000 A 
ATOM      6 CL   UNL     1       7.633   4.721  12.473  0.00  0.00    +0.000 Cl
ATOM      7  N   UNL     1       7.656   5.594  14.912  0.00  0.00    +0.000 NA
ATOM      8  N   UNL     1       7.159   5.781  16.171  0.00  0.00    +0.000 NA
ENDBRANCH   1   2
BRANCH   1   9
ATOM      9  C   UNL     1       4.764   4.261  18.240  0.00  0.00    +0.000 C 
BRANCH   9  15
ATOM     10  C   UNL     1       2.190   2.482  18.118  0.00  0.00    +0.000 C 
ATOM     11  N   UNL     1       2.576   3.433  19.153  0.00  0.00    +0.000 NA
ATOM     12  C   UNL     1       1.413   3.993  19.838  0.00  0.00    +0.000 C 
ATOM     13  C   UNL     1       2.002   5.173  20.596  0.00  0.00    +0.000 C 
ATOM     14  C   UNL     1       3.224   5.601  19.789  0.00  0.00    +0.000 C 
ATOM     15  C   UNL     1       3.319   4.598  18.635  0.00  0.00    +0.000 C 
ENDBRANCH   9  15
ENDBRANCH   1   9
TORSDOF 3
ENDMDL
MODEL 7
REMARK VINA RESULT:      -6.1      1.871      2.653
REMARK  Name = 
REMARK  4 active torsions:
REMARK  status: ('A' for Active; 'I' for Inactive)
REMARK    1  A    between atoms: C_1  and  N_2
REMARK    2  A    between atoms: C_6  and  C_7
REMARK    3  A    between atoms: C_7  and  O_8
REMARK    4  A    between atoms: O_8  and  C_9
REMARK                            x       y       z     vdW  Elec       q    Type
REMARK                         _______ _______ _______ _____ _____    ______ ____
ROOT
ATOM      1  O   UNL     1       5.393   3.901  17.161  0.00  0.00    +0.000 OA
ENDROOT
BRANCH   1   2
ATOM      2  C   UNL     1       6.097   5.074  17.368  0.00  0.00    +0.000 A 
ATOM      3  C   UNL     1       6.999   5.106  18.413  0.00  0.00    +0.000 A 
ATOM      4  C   UNL     1       7.723   6.276  18.622  0.00  0.00    +0.000 A 
ATOM      5  C   UNL     1       7.481   7.346  17.784  0.00  0.00    +0.000 A 
ATOM      6 CL   UNL     1       8.327   8.824  17.943  0.00  0.00    +0.000 Cl
ATOM      7  N   UNL     1       6.578   7.302  16.784  0.00  0.00    +0.000 NA
ATOM      8  N   UNL     1       5.877   6.149  16.577  0.00  0.00    +0.000 NA
ENDBRANCH   1   2
BRANCH   1   9
ATOM      9  C   UNL     1       3.985   4.157  17.048  0.00  0.00    +0.000 C 
BRANCH   9  15
ATOM     10  C   UNL     1       2.959   5.511  19.678  0.00  0.00    +0.000 C 
ATOM     11  N   UNL     1       2.293   4.496  18.872  0.00  0.00    +0.000 NA
ATOM     12  C   UNL     1       1.391   3.670  19.672  0.00  0.00    +0.000 C 
ATOM     13  C   UNL     1       1.089   2.502  18.747  0.00  0.00    +0.000 C 
ATOM     14  C   UNL     1       2.305   2.388  17.832  0.00  0.00    +0.000 C 
ATOM     15  C   UNL     1       3.224   3.546  18.234  0.00  0.00    +0.000 C 
ENDBRANCH   9  15
ENDBRANCH   1   9
TORSDOF 3
ENDMDL
MODEL 8
REMARK VINA RESULT:      -6.1      1.024      1.249
REMARK  Name = 
REMARK  4 active torsions:
REMARK  status: ('A' for Active; 'I' for Inactive)
REMARK    1  A    between atoms: C_1  and  N_2
REMARK    2  A    between atoms: C_6  and  C_7
REMARK    3  A    between atoms: C_7  and  O_8
REMARK    4  A    between atoms: O_8  and  C_9
REMARK                            x       y       z     vdW  Elec       q    Type
REMARK                         _______ _______ _______ _____ _____    ______ ____
ROOT
ATOM      1  O   UNL     1       2.648   3.713  17.233  0.00  0.00    +0.000 OA
ENDROOT
BRANCH   1   2
ATOM      2  C   UNL     1       3.800   4.478  17.244  0.00  0.00    +0.000 A 
ATOM      3  C   UNL     1       4.984   3.862  16.885  0.00  0.00    +0.000 A 
ATOM      4  C   UNL     1       6.147   4.626  16.879  0.00  0.00    +0.000 A 
ATOM      5  C   UNL     1       6.053   5.952  17.253  0.00  0.00    +0.000 A 
ATOM      6 CL   UNL     1       7.418   6.983  17.265  0.00  0.00    +0.000 Cl
ATOM      7  N   UNL     1       4.892   6.527  17.623  0.00  0.00    +0.000 NA
ATOM      8  N   UNL     1       3.751   5.776  17.619  0.00  0.00    +0.000 NA
ENDBRANCH   1   2
BRANCH   1   9
ATOM      9  C   UNL     1       2.915   2.371  17.667  0.00  0.00    +0.000 C 
BRANCH   9  15
ATOM     10  C   UNL     1       4.523   2.048  20.335  0.00  0.00    +0.000 C 
ATOM     11  N   UNL     1       3.273   2.767  20.121  0.00  0.00    +0.000 NA
ATOM     12  C   UNL     1       2.460   2.819  21.335  0.00  0.00    +0.000 C 
ATOM     13  C   UNL     1       1.106   3.279  20.816  0.00  0.00    +0.000 C 
ATOM     14  C   UNL     1       1.047   2.806  19.367  0.00  0.00    +0.000 C 
ATOM     15  C   UNL     1       2.406   2.150  19.099  0.00  0.00    +0.000 C 
ENDBRANCH   9  15
ENDBRANCH   1   9
TORSDOF 3
ENDMDL
MODEL 9
REMARK VINA RESULT:      -6.1      2.633      3.350
REMARK  Name = 
REMARK  4 active torsions:
REMARK  status: ('A' for Active; 'I' for Inactive)
REMARK    1  A    between atoms: C_1  and  N_2
REMARK    2  A    between atoms: C_6  and  C_7
REMARK    3  A    between atoms: C_7  and  O_8
REMARK    4  A    between atoms: O_8  and  C_9
REMARK                            x       y       z     vdW  Elec       q    Type
REMARK                         _______ _______ _______ _____ _____    ______ ____
ROOT
ATOM      1  O   UNL     1       5.357   5.367  17.590  0.00  0.00    +0.000 OA
ENDROOT
BRANCH   1   2
ATOM      2  C   UNL     1       5.899   5.187  16.331  0.00  0.00    +0.000 A 
ATOM      3  C   UNL     1       5.182   4.430  15.425  0.00  0.00    +0.000 A 
ATOM      4  C   UNL     1       5.711   4.254  14.149  0.00  0.00    +0.000 A 
ATOM      5  C   UNL     1       6.933   4.831  13.870  0.00  0.00    +0.000 A 
ATOM      6 CL   UNL     1       7.665   4.691  12.330  0.00  0.00    +0.000 Cl
ATOM      7  N   UNL     1       7.629   5.547  14.776  0.00  0.00    +0.000 NA
ATOM      8  N   UNL     1       7.102   5.724  16.024  0.00  0.00    +0.000 NA
ENDBRANCH   1   2
BRANCH   1   9
ATOM      9  C   UNL     1       5.552   4.203  18.407  0.00  0.00    +0.000 C 
BRANCH   9  15
ATOM     10  C   UNL     1       3.105   5.574  19.798  0.00  0.00    +0.000 C 
ATOM     11  N   UNL     1       3.090   4.569  18.743  0.00  0.00    +0.000 NA
ATOM     12  C   UNL     1       1.875   3.757  18.780  0.00  0.00    +0.000 C 
ATOM     13  C   UNL     1       2.216   2.594  17.863  0.00  0.00    +0.000 C 
ATOM     14  C   UNL     1       3.735   2.460  17.928  0.00  0.00    +0.000 C 
ATOM     15  C   UNL     1       4.203   3.604  18.833  0.00  0.00    +0.000 C 
ENDBRANCH   9  15
ENDBRANCH   1   9
TORSDOF 3
ENDMDL
