MODEL 1
REMARK VINA RESULT:      -8.1      0.000      0.000
REMARK  Name = 
REMARK  10 active torsions:
REMARK  status: ('A' for Active; 'I' for Inactive)
REMARK    1  A    between atoms: C_1  and  O_2
REMARK    2  A    between atoms: O_2  and  C_3
REMARK    3  A    between atoms: C_6  and  C_7
REMARK    4  A    between atoms: C_13  and  C_14
REMARK    5  A    between atoms: C_14  and  N_15
REMARK    6  A    between atoms: N_15  and  C_16
REMARK    7  A    between atoms: C_19  and  S_20
REMARK    8  A    between atoms: S_20  and  N_21
REMARK    9  A    between atoms: C_31  and  O_32
REMARK   10  A    between atoms: O_32  and  C_33
REMARK                            x       y       z     vdW  Elec       q    Type
REMARK                         _______ _______ _______ _____ _____    ______ ____
ROOT
ATOM      1  C   UNL     1       1.950   7.993  19.169  0.00  0.00    +0.000 A 
ATOM      2  C   UNL     1       1.562   7.786  20.442  0.00  0.00    +0.000 A 
ATOM      3  C   UNL     1       0.567   8.657  21.020  0.00  0.00    +0.000 A 
ATOM      4  O   UNL     1      -0.054   8.310  22.025  0.00  0.00    +0.000 OA
ATOM      5  C   UNL     1       0.403   9.953  20.398  0.00  0.00    +0.000 A 
ATOM      6  C   UNL     1      -0.225  10.958  21.138  0.00  0.00    +0.000 A 
ATOM      7  C   UNL     1      -0.157  12.287  20.722  0.00  0.00    +0.000 A 
ATOM      8  C   UNL     1       0.481  12.552  19.495  0.00  0.00    +0.000 A 
ATOM      9  C   UNL     1       1.046  11.509  18.712  0.00  0.00    +0.000 A 
ATOM     10  C   UNL     1       1.025  10.192  19.176  0.00  0.00    +0.000 A 
ATOM     11  O   UNL     1       1.647   9.167  18.463  0.00  0.00    +0.000 OA
ENDROOT
BRANCH   1  15
ATOM     12  C   UNL     1       4.249   4.985  17.041  0.00  0.00    +0.000 A 
ATOM     13  C   UNL     1       4.558   6.338  16.936  0.00  0.00    +0.000 A 
ATOM     14  C   UNL     1       3.864   7.283  17.693  0.00  0.00    +0.000 A 
ATOM     15  C   UNL     1       2.782   6.934  18.530  0.00  0.00    +0.000 A 
ATOM     16  C   UNL     1       2.520   5.575  18.675  0.00  0.00    +0.000 A 
ATOM     17  C   UNL     1       3.219   4.600  17.926  0.00  0.00    +0.000 A 
BRANCH  12  19
ATOM     18  C   UNL     1       5.491   4.464  15.071  0.00  0.00    +0.000 C 
ATOM     19  O   UNL     1       4.899   4.036  16.297  0.00  0.00    +0.000 OA
ENDBRANCH  12  19
BRANCH  17  20
ATOM     20  O   UNL     1       2.769   3.339  18.205  0.00  0.00    +0.000 OA
ATOM     21  C   UNL     1       1.775   3.169  19.201  0.00  0.00    +0.000 C 
ENDBRANCH  17  20
ENDBRANCH   1  15
BRANCH   7  22
ATOM     22  C   UNL     1      -0.680  13.351  21.673  0.00  0.00    +0.000 C 
BRANCH  22  23
ATOM     23  N   UNL     1      -1.298  12.751  22.850  0.00  0.00    +0.000 N 
ATOM     24  H   UNL     1      -0.941  11.818  23.035  0.00  0.00    +0.000 HD
BRANCH  23  25
ATOM     25  C   UNL     1      -2.691  12.839  23.018  0.00  0.00    +0.000 A 
ATOM     26  C   UNL     1      -3.511  12.963  21.882  0.00  0.00    +0.000 A 
ATOM     27  C   UNL     1      -4.912  12.953  21.977  0.00  0.00    +0.000 A 
ATOM     28  C   UNL     1      -5.514  12.775  23.221  0.00  0.00    +0.000 A 
ATOM     29  C   UNL     1      -4.731  12.657  24.366  0.00  0.00    +0.000 A 
ATOM     30  C   UNL     1      -3.332  12.679  24.257  0.00  0.00    +0.000 A 
BRANCH  28  31
ATOM     31  S   UNL     1      -7.276  12.721  23.343  0.00  0.00    +0.000 S 
ATOM     32  O   UNL     1      -7.860  13.367  22.189  0.00  0.00    +0.000 OA
ATOM     33  O   UNL     1      -7.681  11.400  23.770  0.00  0.00    +0.000 OA
BRANCH  31  34
ATOM     34  N   UNL     1      -7.581  13.733  24.646  0.00  0.00    +0.000 NA
ATOM     35  H   UNL     1      -7.656  13.187  25.503  0.00  0.00    +0.000 HD
ATOM     36  H   UNL     1      -6.879  14.473  24.689  0.00  0.00    +0.000 HD
ENDBRANCH  31  34
ENDBRANCH  28  31
ENDBRANCH  23  25
ENDBRANCH  22  23
ENDBRANCH   7  22
TORSDOF 8
ENDMDL
MODEL 2
REMARK VINA RESULT:      -8.1      1.624      2.106
REMARK  Name = 
REMARK  10 active torsions:
REMARK  status: ('A' for Active; 'I' for Inactive)
REMARK    1  A    between atoms: C_1  and  O_2
REMARK    2  A    between atoms: O_2  and  C_3
REMARK    3  A    between atoms: C_6  and  C_7
REMARK    4  A    between atoms: C_13  and  C_14
REMARK    5  A    between atoms: C_14  and  N_15
REMARK    6  A    between atoms: N_15  and  C_16
REMARK    7  A    between atoms: C_19  and  S_20
REMARK    8  A    between atoms: S_20  and  N_21
REMARK    9  A    between atoms: C_31  and  O_32
REMARK   10  A    between atoms: O_32  and  C_33
REMARK                            x       y       z     vdW  Elec       q    Type
REMARK                         _______ _______ _______ _____ _____    ______ ____
ROOT
ATOM      1  C   UNL     1       1.759   7.700  19.962  0.00  0.00    +0.000 A 
ATOM      2  C   UNL     1       1.198   7.951  21.160  0.00  0.00    +0.000 A 
ATOM      3  C   UNL     1       0.308   9.081  21.292  0.00  0.00    +0.000 A 
ATOM      4  O   UNL     1      -0.475   9.148  22.240  0.00  0.00    +0.000 OA
ATOM      5  C   UNL     1       0.443  10.128  20.302  0.00  0.00    +0.000 A 
ATOM      6  C   UNL     1      -0.082  11.386  20.607  0.00  0.00    +0.000 A 
ATOM      7  C   UNL     1       0.262  12.498  19.840  0.00  0.00    +0.000 A 
ATOM      8  C   UNL     1       1.073  12.283  18.709  0.00  0.00    +0.000 A 
ATOM      9  C   UNL     1       1.535  10.983  18.365  0.00  0.00    +0.000 A 
ATOM     10  C   UNL     1       1.234   9.891  19.181  0.00  0.00    +0.000 A 
ATOM     11  O   UNL     1       1.747   8.624  18.906  0.00  0.00    +0.000 OA
ENDROOT
BRANCH   1  15
ATOM     12  C   UNL     1       3.614   3.833  19.272  0.00  0.00    +0.000 A 
ATOM     13  C   UNL     1       3.788   4.887  18.379  0.00  0.00    +0.000 A 
ATOM     14  C   UNL     1       3.255   6.146  18.660  0.00  0.00    +0.000 A 
ATOM     15  C   UNL     1       2.464   6.395  19.801  0.00  0.00    +0.000 A 
ATOM     16  C   UNL     1       2.347   5.354  20.717  0.00  0.00    +0.000 A 
ATOM     17  C   UNL     1       2.888   4.073  20.458  0.00  0.00    +0.000 A 
BRANCH  12  19
ATOM     18  C   UNL     1       3.418   1.797  18.044  0.00  0.00    +0.000 C 
ATOM     19  O   UNL     1       4.108   2.582  19.016  0.00  0.00    +0.000 OA
ENDBRANCH  12  19
BRANCH  17  20
ATOM     20  O   UNL     1       2.620   3.202  21.478  0.00  0.00    +0.000 OA
ATOM     21  C   UNL     1       1.336   2.605  21.551  0.00  0.00    +0.000 C 
ENDBRANCH  17  20
ENDBRANCH   1  15
BRANCH   7  22
ATOM     22  C   UNL     1      -0.175  13.864  20.344  0.00  0.00    +0.000 C 
BRANCH  22  23
ATOM     23  N   UNL     1      -1.554  14.152  19.963  0.00  0.00    +0.000 N 
ATOM     24  H   UNL     1      -1.666  15.104  19.626  0.00  0.00    +0.000 HD
BRANCH  23  25
ATOM     25  C   UNL     1      -2.600  13.753  20.813  0.00  0.00    +0.000 A 
ATOM     26  C   UNL     1      -2.697  14.321  22.095  0.00  0.00    +0.000 A 
ATOM     27  C   UNL     1      -3.774  14.040  22.950  0.00  0.00    +0.000 A 
ATOM     28  C   UNL     1      -4.801  13.209  22.508  0.00  0.00    +0.000 A 
ATOM     29  C   UNL     1      -4.734  12.625  21.246  0.00  0.00    +0.000 A 
ATOM     30  C   UNL     1      -3.645  12.907  20.406  0.00  0.00    +0.000 A 
BRANCH  28  31
ATOM     31  S   UNL     1      -6.182  12.883  23.563  0.00  0.00    +0.000 S 
ATOM     32  O   UNL     1      -6.706  14.130  24.070  0.00  0.00    +0.000 OA
ATOM     33  O   UNL     1      -7.030  11.890  22.940  0.00  0.00    +0.000 OA
BRANCH  31  34
ATOM     34  N   UNL     1      -5.465  12.113  24.869  0.00  0.00    +0.000 NA
ATOM     35  H   UNL     1      -5.086  12.804  25.517  0.00  0.00    +0.000 HD
ATOM     36  H   UNL     1      -6.123  11.463  25.299  0.00  0.00    +0.000 HD
ENDBRANCH  31  34
ENDBRANCH  28  31
ENDBRANCH  23  25
ENDBRANCH  22  23
ENDBRANCH   7  22
TORSDOF 8
ENDMDL
MODEL 3
REMARK VINA RESULT:      -8.1      1.143      1.610
REMARK  Name = 
REMARK  10 active torsions:
REMARK  status: ('A' for Active; 'I' for Inactive)
REMARK    1  A    between atoms: C_1  and  O_2
REMARK    2  A    between atoms: O_2  and  C_3
REMARK    3  A    between atoms: C_6  and  C_7
REMARK    4  A    between atoms: C_13  and  C_14
REMARK    5  A    between atoms: C_14  and  N_15
REMARK    6  A    between atoms: N_15  and  C_16
REMARK    7  A    between atoms: C_19  and  S_20
REMARK    8  A    between atoms: S_20  and  N_21
REMARK    9  A    between atoms: C_31  and  O_32
REMARK   10  A    between atoms: O_32  and  C_33
REMARK                            x       y       z     vdW  Elec       q    Type
REMARK                         _______ _______ _______ _____ _____    ______ ____
ROOT
ATOM      1  C   UNL     1       2.882   7.315  18.367  0.00  0.00    +0.000 A 
ATOM      2  C   UNL     1       2.543   7.070  19.648  0.00  0.00    +0.000 A 
ATOM      3  C   UNL     1       1.532   7.890  20.271  0.00  0.00    +0.000 A 
ATOM      4  O   UNL     1       0.957   7.502  21.288  0.00  0.00    +0.000 OA
ATOM      5  C   UNL     1       1.295   9.189  19.677  0.00  0.00    +0.000 A 
ATOM      6  C   UNL     1       0.650  10.155  20.453  0.00  0.00    +0.000 A 
ATOM      7  C   UNL     1       0.651  11.491  20.059  0.00  0.00    +0.000 A 
ATOM      8  C   UNL     1       1.239  11.803  18.818  0.00  0.00    +0.000 A 
ATOM      9  C   UNL     1       1.822  10.797  18.000  0.00  0.00    +0.000 A 
ATOM     10  C   UNL     1       1.869   9.473  18.441  0.00  0.00    +0.000 A 
ATOM     11  O   UNL     1       2.510   8.487  17.691  0.00  0.00    +0.000 OA
ENDROOT
BRANCH   1  15
ATOM     12  C   UNL     1       5.221   4.424  16.122  0.00  0.00    +0.000 A 
ATOM     13  C   UNL     1       5.420   5.793  15.965  0.00  0.00    +0.000 A 
ATOM     14  C   UNL     1       4.720   6.704  16.756  0.00  0.00    +0.000 A 
ATOM     15  C   UNL     1       3.737   6.302  17.684  0.00  0.00    +0.000 A 
ATOM     16  C   UNL     1       3.588   4.931  17.878  0.00  0.00    +0.000 A 
ATOM     17  C   UNL     1       4.295   3.989  17.095  0.00  0.00    +0.000 A 
BRANCH  12  19
ATOM     18  C   UNL     1       6.248   3.910  14.031  0.00  0.00    +0.000 C 
ATOM     19  O   UNL     1       5.877   3.505  15.348  0.00  0.00    +0.000 OA
ENDBRANCH  12  19
BRANCH  17  20
ATOM     20  O   UNL     1       3.963   2.707  17.435  0.00  0.00    +0.000 OA
ATOM     21  C   UNL     1       2.608   2.402  17.720  0.00  0.00    +0.000 C 
ENDBRANCH  17  20
ENDBRANCH   1  15
BRANCH   7  22
ATOM     22  C   UNL     1       0.114  12.517  21.044  0.00  0.00    +0.000 C 
BRANCH  22  23
ATOM     23  N   UNL     1      -0.676  11.881  22.092  0.00  0.00    +0.000 N 
ATOM     24  H   UNL     1      -0.480  10.887  22.168  0.00  0.00    +0.000 HD
BRANCH  23  25
ATOM     25  C   UNL     1      -2.048  12.171  22.192  0.00  0.00    +0.000 A 
ATOM     26  C   UNL     1      -2.651  12.208  23.462  0.00  0.00    +0.000 A 
ATOM     27  C   UNL     1      -3.990  12.590  23.635  0.00  0.00    +0.000 A 
ATOM     28  C   UNL     1      -4.738  12.985  22.527  0.00  0.00    +0.000 A 
ATOM     29  C   UNL     1      -4.174  12.953  21.255  0.00  0.00    +0.000 A 
ATOM     30  C   UNL     1      -2.837  12.559  21.097  0.00  0.00    +0.000 A 
BRANCH  28  31
ATOM     31  S   UNL     1      -6.414  13.507  22.741  0.00  0.00    +0.000 S 
ATOM     32  O   UNL     1      -6.688  14.622  21.864  0.00  0.00    +0.000 OA
ATOM     33  O   UNL     1      -7.270  12.342  22.793  0.00  0.00    +0.000 OA
BRANCH  31  34
ATOM     34  N   UNL     1      -6.402  14.132  24.298  0.00  0.00    +0.000 NA
ATOM     35  H   UNL     1      -6.617  15.128  24.276  0.00  0.00    +0.000 HD
ATOM     36  H   UNL     1      -7.023  13.589  24.900  0.00  0.00    +0.000 HD
ENDBRANCH  31  34
ENDBRANCH  28  31
ENDBRANCH  23  25
ENDBRANCH  22  23
ENDBRANCH   7  22
TORSDOF 8
ENDMDL
MODEL 4
REMARK VINA RESULT:      -8.0      4.692     11.795
REMARK  Name = 
REMARK  10 active torsions:
REMARK  status: ('A' for Active; 'I' for Inactive)
REMARK    1  A    between atoms: C_1  and  O_2
REMARK    2  A    between atoms: O_2  and  C_3
REMARK    3  A    between atoms: C_6  and  C_7
REMARK    4  A    between atoms: C_13  and  C_14
REMARK    5  A    between atoms: C_14  and  N_15
REMARK    6  A    between atoms: N_15  and  C_16
REMARK    7  A    between atoms: C_19  and  S_20
REMARK    8  A    between atoms: S_20  and  N_21
REMARK    9  A    between atoms: C_31  and  O_32
REMARK   10  A    between atoms: O_32  and  C_33
REMARK                            x       y       z     vdW  Elec       q    Type
REMARK                         _______ _______ _______ _____ _____    ______ ____
ROOT
ATOM      1  C   UNL     1      -1.659  11.962  22.024  0.00  0.00    +0.000 A 
ATOM      2  C   UNL     1      -1.374  11.078  22.999  0.00  0.00    +0.000 A 
ATOM      3  C   UNL     1      -0.195  10.255  22.873  0.00  0.00    +0.000 A 
ATOM      4  O   UNL     1       0.284   9.699  23.862  0.00  0.00    +0.000 OA
ATOM      5  C   UNL     1       0.330  10.077  21.536  0.00  0.00    +0.000 A 
ATOM      6  C   UNL     1       1.187   8.998  21.308  0.00  0.00    +0.000 A 
ATOM      7  C   UNL     1       1.491   8.602  20.007  0.00  0.00    +0.000 A 
ATOM      8  C   UNL     1       0.980   9.382  18.953  0.00  0.00    +0.000 A 
ATOM      9  C   UNL     1       0.173  10.526  19.201  0.00  0.00    +0.000 A 
ATOM     10  C   UNL     1      -0.174  10.870  20.509  0.00  0.00    +0.000 A 
ATOM     11  O   UNL     1      -1.032  11.939  20.769  0.00  0.00    +0.000 OA
ENDROOT
BRANCH   1  15
ATOM     12  C   UNL     1      -4.636  15.063  22.648  0.00  0.00    +0.000 A 
ATOM     13  C   UNL     1      -4.582  14.342  21.458  0.00  0.00    +0.000 A 
ATOM     14  C   UNL     1      -3.675  13.292  21.308  0.00  0.00    +0.000 A 
ATOM     15  C   UNL     1      -2.731  12.961  22.302  0.00  0.00    +0.000 A 
ATOM     16  C   UNL     1      -2.832  13.645  23.511  0.00  0.00    +0.000 A 
ATOM     17  C   UNL     1      -3.752  14.704  23.688  0.00  0.00    +0.000 A 
BRANCH  12  19
ATOM     18  C   UNL     1      -5.097  17.378  22.306  0.00  0.00    +0.000 C 
ATOM     19  O   UNL     1      -5.502  16.110  22.819  0.00  0.00    +0.000 OA
ENDBRANCH  12  19
BRANCH  17  20
ATOM     20  O   UNL     1      -3.649  15.251  24.938  0.00  0.00    +0.000 OA
ATOM     21  C   UNL     1      -2.753  16.331  25.143  0.00  0.00    +0.000 C 
ENDBRANCH  17  20
ENDBRANCH   1  15
BRANCH   7  22
ATOM     22  C   UNL     1       2.259   7.302  19.828  0.00  0.00    +0.000 C 
BRANCH  22  23
ATOM     23  N   UNL     1       2.021   6.725  18.508  0.00  0.00    +0.000 N 
ATOM     24  H   UNL     1       1.187   6.146  18.490  0.00  0.00    +0.000 HD
BRANCH  23  25
ATOM     25  C   UNL     1       3.094   6.150  17.805  0.00  0.00    +0.000 A 
ATOM     26  C   UNL     1       4.091   6.986  17.273  0.00  0.00    +0.000 A 
ATOM     27  C   UNL     1       5.237   6.468  16.649  0.00  0.00    +0.000 A 
ATOM     28  C   UNL     1       5.418   5.088  16.589  0.00  0.00    +0.000 A 
ATOM     29  C   UNL     1       4.447   4.231  17.099  0.00  0.00    +0.000 A 
ATOM     30  C   UNL     1       3.302   4.765  17.711  0.00  0.00    +0.000 A 
BRANCH  28  31
ATOM     31  S   UNL     1       6.878   4.427  15.842  0.00  0.00    +0.000 S 
ATOM     32  O   UNL     1       7.863   4.155  16.865  0.00  0.00    +0.000 OA
ATOM     33  O   UNL     1       6.500   3.436  14.858  0.00  0.00    +0.000 OA
BRANCH  31  34
ATOM     34  N   UNL     1       7.462   5.734  14.969  0.00  0.00    +0.000 NA
ATOM     35  H   UNL     1       8.465   5.840  15.125  0.00  0.00    +0.000 HD
ATOM     36  H   UNL     1       7.206   5.645  13.986  0.00  0.00    +0.000 HD
ENDBRANCH  31  34
ENDBRANCH  28  31
ENDBRANCH  23  25
ENDBRANCH  22  23
ENDBRANCH   7  22
TORSDOF 8
ENDMDL
MODEL 5
REMARK VINA RESULT:      -7.9      5.549     11.019
REMARK  Name = 
REMARK  10 active torsions:
REMARK  status: ('A' for Active; 'I' for Inactive)
REMARK    1  A    between atoms: C_1  and  O_2
REMARK    2  A    between atoms: O_2  and  C_3
REMARK    3  A    between atoms: C_6  and  C_7
REMARK    4  A    between atoms: C_13  and  C_14
REMARK    5  A    between atoms: C_14  and  N_15
REMARK    6  A    between atoms: N_15  and  C_16
REMARK    7  A    between atoms: C_19  and  S_20
REMARK    8  A    between atoms: S_20  and  N_21
REMARK    9  A    between atoms: C_31  and  O_32
REMARK   10  A    between atoms: O_32  and  C_33
REMARK                            x       y       z     vdW  Elec       q    Type
REMARK                         _______ _______ _______ _____ _____    ______ ____
ROOT
ATOM      1  C   UNL     1       1.040  12.109  19.256  0.00  0.00    +0.000 A 
ATOM      2  C   UNL     1       1.843  11.498  18.364  0.00  0.00    +0.000 A 
ATOM      3  C   UNL     1       1.798  10.060  18.254  0.00  0.00    +0.000 A 
ATOM      4  O   UNL     1       2.240   9.499  17.250  0.00  0.00    +0.000 OA
ATOM      5  C   UNL     1       1.276   9.340  19.396  0.00  0.00    +0.000 A 
ATOM      6  C   UNL     1       1.582   7.981  19.507  0.00  0.00    +0.000 A 
ATOM      7  C   UNL     1       1.364   7.306  20.706  0.00  0.00    +0.000 A 
ATOM      8  C   UNL     1       0.746   8.019  21.752  0.00  0.00    +0.000 A 
ATOM      9  C   UNL     1       0.366   9.380  21.598  0.00  0.00    +0.000 A 
ATOM     10  C   UNL     1       0.651  10.059  20.411  0.00  0.00    +0.000 A 
ATOM     11  O   UNL     1       0.363  11.416  20.271  0.00  0.00    +0.000 OA
ENDROOT
BRANCH   1  15
ATOM     12  C   UNL     1       0.537  16.395  18.761  0.00  0.00    +0.000 A 
ATOM     13  C   UNL     1      -0.482  15.604  19.285  0.00  0.00    +0.000 A 
ATOM     14  C   UNL     1      -0.272  14.244  19.516  0.00  0.00    +0.000 A 
ATOM     15  C   UNL     1       0.930  13.594  19.169  0.00  0.00    +0.000 A 
ATOM     16  C   UNL     1       1.964  14.403  18.703  0.00  0.00    +0.000 A 
ATOM     17  C   UNL     1       1.777  15.785  18.472  0.00  0.00    +0.000 A 
BRANCH  12  19
ATOM     18  C   UNL     1       0.048  18.096  17.161  0.00  0.00    +0.000 C 
ATOM     19  O   UNL     1       0.357  17.728  18.505  0.00  0.00    +0.000 OA
ENDBRANCH  12  19
BRANCH  17  20
ATOM     20  O   UNL     1       2.913  16.367  17.982  0.00  0.00    +0.000 OA
ATOM     21  C   UNL     1       4.148  15.685  18.119  0.00  0.00    +0.000 C 
ENDBRANCH  17  20
ENDBRANCH   1  15
BRANCH   7  22
ATOM     22  C   UNL     1       1.906   5.890  20.827  0.00  0.00    +0.000 C 
BRANCH  22  23
ATOM     23  N   UNL     1       1.970   5.236  19.524  0.00  0.00    +0.000 N 
ATOM     24  H   UNL     1       1.415   4.385  19.497  0.00  0.00    +0.000 HD
BRANCH  23  25
ATOM     25  C   UNL     1       3.215   5.089  18.888  0.00  0.00    +0.000 A 
ATOM     26  C   UNL     1       3.253   4.861  17.501  0.00  0.00    +0.000 A 
ATOM     27  C   UNL     1       4.464   4.807  16.793  0.00  0.00    +0.000 A 
ATOM     28  C   UNL     1       5.663   5.027  17.469  0.00  0.00    +0.000 A 
ATOM     29  C   UNL     1       5.661   5.248  18.843  0.00  0.00    +0.000 A 
ATOM     30  C   UNL     1       4.443   5.289  19.539  0.00  0.00    +0.000 A 
BRANCH  28  31
ATOM     31  S   UNL     1       7.190   5.002  16.577  0.00  0.00    +0.000 S 
ATOM     32  O   UNL     1       7.500   6.335  16.115  0.00  0.00    +0.000 OA
ATOM     33  O   UNL     1       8.149   4.198  17.303  0.00  0.00    +0.000 OA
BRANCH  31  34
ATOM     34  N   UNL     1       6.796   4.114  15.209  0.00  0.00    +0.000 NA
ATOM     35  H   UNL     1       5.909   3.631  15.350  0.00  0.00    +0.000 HD
ATOM     36  H   UNL     1       6.812   4.714  14.384  0.00  0.00    +0.000 HD
ENDBRANCH  31  34
ENDBRANCH  28  31
ENDBRANCH  23  25
ENDBRANCH  22  23
ENDBRANCH   7  22
TORSDOF 8
ENDMDL
MODEL 6
REMARK VINA RESULT:      -7.9      2.417      3.247
REMARK  Name = 
REMARK  10 active torsions:
REMARK  status: ('A' for Active; 'I' for Inactive)
REMARK    1  A    between atoms: C_1  and  O_2
REMARK    2  A    between atoms: O_2  and  C_3
REMARK    3  A    between atoms: C_6  and  C_7
REMARK    4  A    between atoms: C_13  and  C_14
REMARK    5  A    between atoms: C_14  and  N_15
REMARK    6  A    between atoms: N_15  and  C_16
REMARK    7  A    between atoms: C_19  and  S_20
REMARK    8  A    between atoms: S_20  and  N_21
REMARK    9  A    between atoms: C_31  and  O_32
REMARK   10  A    between atoms: O_32  and  C_33
REMARK                            x       y       z     vdW  Elec       q    Type
REMARK                         _______ _______ _______ _____ _____    ______ ____
ROOT
ATOM      1  C   UNL     1       1.517   8.259  20.139  0.00  0.00    +0.000 A 
ATOM      2  C   UNL     1       1.389   9.256  19.242  0.00  0.00    +0.000 A 
ATOM      3  C   UNL     1       1.136  10.595  19.718  0.00  0.00    +0.000 A 
ATOM      4  O   UNL     1       1.350  11.564  18.990  0.00  0.00    +0.000 OA
ATOM      5  C   UNL     1       0.566  10.713  21.044  0.00  0.00    +0.000 A 
ATOM      6  C   UNL     1      -0.063  11.914  21.380  0.00  0.00    +0.000 A 
ATOM      7  C   UNL     1      -0.873  11.992  22.511  0.00  0.00    +0.000 A 
ATOM      8  C   UNL     1      -0.953  10.853  23.335  0.00  0.00    +0.000 A 
ATOM      9  C   UNL     1      -0.243   9.661  23.023  0.00  0.00    +0.000 A 
ATOM     10  C   UNL     1       0.513   9.580  21.852  0.00  0.00    +0.000 A 
ATOM     11  O   UNL     1       1.148   8.394  21.485  0.00  0.00    +0.000 OA
ENDROOT
BRANCH   1  15
ATOM     12  C   UNL     1       2.797   4.475  18.433  0.00  0.00    +0.000 A 
ATOM     13  C   UNL     1       3.176   5.688  17.865  0.00  0.00    +0.000 A 
ATOM     14  C   UNL     1       2.827   6.894  18.475  0.00  0.00    +0.000 A 
ATOM     15  C   UNL     1       2.023   6.950  19.633  0.00  0.00    +0.000 A 
ATOM     16  C   UNL     1       1.700   5.733  20.227  0.00  0.00    +0.000 A 
ATOM     17  C   UNL     1       2.053   4.500  19.632  0.00  0.00    +0.000 A 
BRANCH  12  19
ATOM     18  C   UNL     1       4.204   2.548  18.400  0.00  0.00    +0.000 C 
ATOM     19  O   UNL     1       3.108   3.276  17.848  0.00  0.00    +0.000 OA
ENDBRANCH  12  19
BRANCH  17  20
ATOM     20  O   UNL     1       1.602   3.441  20.371  0.00  0.00    +0.000 OA
ATOM     21  C   UNL     1       2.248   3.133  21.595  0.00  0.00    +0.000 C 
ENDBRANCH  17  20
ENDBRANCH   1  15
BRANCH   7  22
ATOM     22  C   UNL     1      -1.689  13.260  22.707  0.00  0.00    +0.000 C 
BRANCH  22  23
ATOM     23  N   UNL     1      -3.090  12.952  22.977  0.00  0.00    +0.000 N 
ATOM     24  H   UNL     1      -3.191  12.181  23.630  0.00  0.00    +0.000 HD
BRANCH  23  25
ATOM     25  C   UNL     1      -3.996  12.876  21.905  0.00  0.00    +0.000 A 
ATOM     26  C   UNL     1      -3.501  12.813  20.591  0.00  0.00    +0.000 A 
ATOM     27  C   UNL     1      -4.350  12.635  19.487  0.00  0.00    +0.000 A 
ATOM     28  C   UNL     1      -5.718  12.474  19.695  0.00  0.00    +0.000 A 
ATOM     29  C   UNL     1      -6.243  12.538  20.983  0.00  0.00    +0.000 A 
ATOM     30  C   UNL     1      -5.382  12.727  22.075  0.00  0.00    +0.000 A 
BRANCH  28  31
ATOM     31  S   UNL     1      -6.790  12.207  18.314  0.00  0.00    +0.000 S 
ATOM     32  O   UNL     1      -6.961  10.788  18.103  0.00  0.00    +0.000 OA
ATOM     33  O   UNL     1      -7.915  13.111  18.407  0.00  0.00    +0.000 OA
BRANCH  31  34
ATOM     34  N   UNL     1      -5.867  12.761  17.028  0.00  0.00    +0.000 NA
ATOM     35  H   UNL     1      -5.712  13.765  17.115  0.00  0.00    +0.000 HD
ATOM     36  H   UNL     1      -5.007  12.217  16.950  0.00  0.00    +0.000 HD
ENDBRANCH  31  34
ENDBRANCH  28  31
ENDBRANCH  23  25
ENDBRANCH  22  23
ENDBRANCH   7  22
TORSDOF 8
ENDMDL
MODEL 7
REMARK VINA RESULT:      -7.9      4.275      6.081
REMARK  Name = 
REMARK  10 active torsions:
REMARK  status: ('A' for Active; 'I' for Inactive)
REMARK    1  A    between atoms: C_1  and  O_2
REMARK    2  A    between atoms: O_2  and  C_3
REMARK    3  A    between atoms: C_6  and  C_7
REMARK    4  A    between atoms: C_13  and  C_14
REMARK    5  A    between atoms: C_14  and  N_15
REMARK    6  A    between atoms: N_15  and  C_16
REMARK    7  A    between atoms: C_19  and  S_20
REMARK    8  A    between atoms: S_20  and  N_21
REMARK    9  A    between atoms: C_31  and  O_32
REMARK   10  A    between atoms: O_32  and  C_33
REMARK                            x       y       z     vdW  Elec       q    Type
REMARK                         _______ _______ _______ _____ _____    ______ ____
ROOT
ATOM      1  C   UNL     1       2.213   7.439  18.817  0.00  0.00    +0.000 A 
ATOM      2  C   UNL     1       2.061   8.389  17.874  0.00  0.00    +0.000 A 
ATOM      3  C   UNL     1       1.780   9.744  18.287  0.00  0.00    +0.000 A 
ATOM      4  O   UNL     1       1.971  10.682  17.512  0.00  0.00    +0.000 OA
ATOM      5  C   UNL     1       1.213   9.913  19.607  0.00  0.00    +0.000 A 
ATOM      6  C   UNL     1       0.559  11.116  19.889  0.00  0.00    +0.000 A 
ATOM      7  C   UNL     1      -0.249  11.231  21.018  0.00  0.00    +0.000 A 
ATOM      8  C   UNL     1      -0.301  10.131  21.896  0.00  0.00    +0.000 A 
ATOM      9  C   UNL     1       0.432   8.941  21.638  0.00  0.00    +0.000 A 
ATOM     10  C   UNL     1       1.186   8.820  20.469  0.00  0.00    +0.000 A 
ATOM     11  O   UNL     1       1.846   7.631  20.157  0.00  0.00    +0.000 OA
ENDROOT
BRANCH   1  15
ATOM     12  C   UNL     1       3.655   3.475  17.781  0.00  0.00    +0.000 A 
ATOM     13  C   UNL     1       2.300   3.790  17.719  0.00  0.00    +0.000 A 
ATOM     14  C   UNL     1       1.865   5.092  17.972  0.00  0.00    +0.000 A 
ATOM     15  C   UNL     1       2.745   6.119  18.372  0.00  0.00    +0.000 A 
ATOM     16  C   UNL     1       4.103   5.811  18.373  0.00  0.00    +0.000 A 
ATOM     17  C   UNL     1       4.567   4.502  18.108  0.00  0.00    +0.000 A 
BRANCH  12  19
ATOM     18  C   UNL     1       3.705   1.194  18.479  0.00  0.00    +0.000 C 
ATOM     19  O   UNL     1       4.112   2.204  17.557  0.00  0.00    +0.000 OA
ENDBRANCH  12  19
BRANCH  17  20
ATOM     20  O   UNL     1       5.929   4.427  18.199  0.00  0.00    +0.000 OA
ATOM     21  C   UNL     1       6.704   4.536  17.017  0.00  0.00    +0.000 C 
ENDBRANCH  17  20
ENDBRANCH   1  15
BRANCH   7  22
ATOM     22  C   UNL     1      -1.091  12.489  21.157  0.00  0.00    +0.000 C 
BRANCH  22  23
ATOM     23  N   UNL     1      -0.315  13.584  21.730  0.00  0.00    +0.000 N 
ATOM     24  H   UNL     1      -0.876  14.169  22.343  0.00  0.00    +0.000 HD
BRANCH  23  25
ATOM     25  C   UNL     1       0.537  14.332  20.900  0.00  0.00    +0.000 A 
ATOM     26  C   UNL     1       1.901  14.431  21.227  0.00  0.00    +0.000 A 
ATOM     27  C   UNL     1       2.820  15.077  20.385  0.00  0.00    +0.000 A 
ATOM     28  C   UNL     1       2.383  15.602  19.170  0.00  0.00    +0.000 A 
ATOM     29  C   UNL     1       1.038  15.528  18.819  0.00  0.00    +0.000 A 
ATOM     30  C   UNL     1       0.130  14.888  19.675  0.00  0.00    +0.000 A 
BRANCH  28  31
ATOM     31  S   UNL     1       3.542  16.382  18.085  0.00  0.00    +0.000 S 
ATOM     32  O   UNL     1       4.390  15.378  17.483  0.00  0.00    +0.000 OA
ATOM     33  O   UNL     1       2.854  17.379  17.296  0.00  0.00    +0.000 OA
BRANCH  31  34
ATOM     34  N   UNL     1       4.516  17.237  19.150  0.00  0.00    +0.000 NA
ATOM     35  H   UNL     1       4.323  18.235  19.075  0.00  0.00    +0.000 HD
ATOM     36  H   UNL     1       4.415  16.867  20.095  0.00  0.00    +0.000 HD
ENDBRANCH  31  34
ENDBRANCH  28  31
ENDBRANCH  23  25
ENDBRANCH  22  23
ENDBRANCH   7  22
TORSDOF 8
ENDMDL
MODEL 8
REMARK VINA RESULT:      -7.9      1.533      2.410
REMARK  Name = 
REMARK  10 active torsions:
REMARK  status: ('A' for Active; 'I' for Inactive)
REMARK    1  A    between atoms: C_1  and  O_2
REMARK    2  A    between atoms: O_2  and  C_3
REMARK    3  A    between atoms: C_6  and  C_7
REMARK    4  A    between atoms: C_13  and  C_14
REMARK    5  A    between atoms: C_14  and  N_15
REMARK    6  A    between atoms: N_15  and  C_16
REMARK    7  A    between atoms: C_19  and  S_20
REMARK    8  A    between atoms: S_20  and  N_21
REMARK    9  A    between atoms: C_31  and  O_32
REMARK   10  A    between atoms: O_32  and  C_33
REMARK                            x       y       z     vdW  Elec       q    Type
REMARK                         _______ _______ _______ _____ _____    ______ ____
ROOT
ATOM      1  C   UNL     1       1.595   7.727  19.993  0.00  0.00    +0.000 A 
ATOM      2  C   UNL     1       1.105   8.014  21.215  0.00  0.00    +0.000 A 
ATOM      3  C   UNL     1       0.270   9.180  21.376  0.00  0.00    +0.000 A 
ATOM      4  O   UNL     1      -0.461   9.290  22.361  0.00  0.00    +0.000 OA
ATOM      5  C   UNL     1       0.397  10.211  20.368  0.00  0.00    +0.000 A 
ATOM      6  C   UNL     1      -0.061  11.493  20.683  0.00  0.00    +0.000 A 
ATOM      7  C   UNL     1       0.289  12.581  19.886  0.00  0.00    +0.000 A 
ATOM      8  C   UNL     1       1.032  12.321  18.719  0.00  0.00    +0.000 A 
ATOM      9  C   UNL     1       1.424  11.001  18.368  0.00  0.00    +0.000 A 
ATOM     10  C   UNL     1       1.120   9.930  19.212  0.00  0.00    +0.000 A 
ATOM     11  O   UNL     1       1.567   8.640  18.928  0.00  0.00    +0.000 OA
ENDROOT
BRANCH   1  15
ATOM     12  C   UNL     1       3.601   3.883  19.741  0.00  0.00    +0.000 A 
ATOM     13  C   UNL     1       2.516   4.077  20.592  0.00  0.00    +0.000 A 
ATOM     14  C   UNL     1       1.831   5.293  20.596  0.00  0.00    +0.000 A 
ATOM     15  C   UNL     1       2.238   6.394  19.814  0.00  0.00    +0.000 A 
ATOM     16  C   UNL     1       3.285   6.171  18.923  0.00  0.00    +0.000 A 
ATOM     17  C   UNL     1       3.986   4.944  18.893  0.00  0.00    +0.000 A 
BRANCH  12  19
ATOM     18  C   UNL     1       3.780   1.644  18.935  0.00  0.00    +0.000 C 
ATOM     19  O   UNL     1       4.306   2.709  19.727  0.00  0.00    +0.000 OA
ENDBRANCH  12  19
BRANCH  17  20
ATOM     20  O   UNL     1       4.993   4.966  17.969  0.00  0.00    +0.000 OA
ATOM     21  C   UNL     1       4.708   4.591  16.632  0.00  0.00    +0.000 C 
ENDBRANCH  17  20
ENDBRANCH   1  15
BRANCH   7  22
ATOM     22  C   UNL     1      -0.067  13.970  20.394  0.00  0.00    +0.000 C 
BRANCH  22  23
ATOM     23  N   UNL     1      -1.440  14.324  20.048  0.00  0.00    +0.000 N 
ATOM     24  H   UNL     1      -1.526  15.301  19.784  0.00  0.00    +0.000 HD
BRANCH  23  25
ATOM     25  C   UNL     1      -2.491  13.892  20.875  0.00  0.00    +0.000 A 
ATOM     26  C   UNL     1      -2.630  14.451  22.158  0.00  0.00    +0.000 A 
ATOM     27  C   UNL     1      -3.715  14.136  22.989  0.00  0.00    +0.000 A 
ATOM     28  C   UNL     1      -4.710  13.278  22.523  0.00  0.00    +0.000 A 
ATOM     29  C   UNL     1      -4.600  12.702  21.260  0.00  0.00    +0.000 A 
ATOM     30  C   UNL     1      -3.504  13.019  20.444  0.00  0.00    +0.000 A 
BRANCH  28  31
ATOM     31  S   UNL     1      -6.102  12.909  23.548  0.00  0.00    +0.000 S 
ATOM     32  O   UNL     1      -6.672  14.138  24.049  0.00  0.00    +0.000 OA
ATOM     33  O   UNL     1      -6.908  11.895  22.905  0.00  0.00    +0.000 OA
BRANCH  31  34
ATOM     34  N   UNL     1      -5.390  12.154  24.866  0.00  0.00    +0.000 NA
ATOM     35  H   UNL     1      -4.427  11.902  24.647  0.00  0.00    +0.000 HD
ATOM     36  H   UNL     1      -5.484  12.737  25.699  0.00  0.00    +0.000 HD
ENDBRANCH  31  34
ENDBRANCH  28  31
ENDBRANCH  23  25
ENDBRANCH  22  23
ENDBRANCH   7  22
TORSDOF 8
ENDMDL
MODEL 9
REMARK VINA RESULT:      -7.8      1.696      2.658
REMARK  Name = 
REMARK  10 active torsions:
REMARK  status: ('A' for Active; 'I' for Inactive)
REMARK    1  A    between atoms: C_1  and  O_2
REMARK    2  A    between atoms: O_2  and  C_3
REMARK    3  A    between atoms: C_6  and  C_7
REMARK    4  A    between atoms: C_13  and  C_14
REMARK    5  A    between atoms: C_14  and  N_15
REMARK    6  A    between atoms: N_15  and  C_16
REMARK    7  A    between atoms: C_19  and  S_20
REMARK    8  A    between atoms: S_20  and  N_21
REMARK    9  A    between atoms: C_31  and  O_32
REMARK   10  A    between atoms: O_32  and  C_33
REMARK                            x       y       z     vdW  Elec       q    Type
REMARK                         _______ _______ _______ _____ _____    ______ ____
ROOT
ATOM      1  C   UNL     1       2.317   7.225  19.556  0.00  0.00    +0.000 A 
ATOM      2  C   UNL     1       2.273   7.767  18.323  0.00  0.00    +0.000 A 
ATOM      3  C   UNL     1       1.919   9.159  18.184  0.00  0.00    +0.000 A 
ATOM      4  O   UNL     1       2.193   9.771  17.151  0.00  0.00    +0.000 OA
ATOM      5  C   UNL     1       1.182   9.751  19.281  0.00  0.00    +0.000 A 
ATOM      6  C   UNL     1       0.478  10.932  19.032  0.00  0.00    +0.000 A 
ATOM      7  C   UNL     1      -0.472  11.390  19.943  0.00  0.00    +0.000 A 
ATOM      8  C   UNL     1      -0.620  10.673  21.146  0.00  0.00    +0.000 A 
ATOM      9  C   UNL     1       0.161   9.518  21.421  0.00  0.00    +0.000 A 
ATOM     10  C   UNL     1       1.062   9.036  20.469  0.00  0.00    +0.000 A 
ATOM     11  O   UNL     1       1.776   7.858  20.685  0.00  0.00    +0.000 OA
ENDROOT
BRANCH   1  15
ATOM     12  C   UNL     1       3.923   3.191  19.679  0.00  0.00    +0.000 A 
ATOM     13  C   UNL     1       4.332   4.102  18.708  0.00  0.00    +0.000 A 
ATOM     14  C   UNL     1       3.870   5.419  18.736  0.00  0.00    +0.000 A 
ATOM     15  C   UNL     1       2.924   5.869  19.681  0.00  0.00    +0.000 A 
ATOM     16  C   UNL     1       2.568   4.970  20.683  0.00  0.00    +0.000 A 
ATOM     17  C   UNL     1       3.033   3.634  20.681  0.00  0.00    +0.000 A 
BRANCH  12  19
ATOM     18  C   UNL     1       3.907   1.073  18.581  0.00  0.00    +0.000 C 
ATOM     19  O   UNL     1       4.343   1.888  19.668  0.00  0.00    +0.000 OA
ENDBRANCH  12  19
BRANCH  17  20
ATOM     20  O   UNL     1       2.526   2.928  21.736  0.00  0.00    +0.000 OA
ATOM     21  C   UNL     1       1.190   2.458  21.669  0.00  0.00    +0.000 C 
ENDBRANCH  17  20
ENDBRANCH   1  15
BRANCH   7  22
ATOM     22  C   UNL     1      -1.346  12.561  19.521  0.00  0.00    +0.000 C 
BRANCH  22  23
ATOM     23  N   UNL     1      -1.776  13.343  20.675  0.00  0.00    +0.000 N 
ATOM     24  H   UNL     1      -1.050  13.411  21.382  0.00  0.00    +0.000 HD
BRANCH  23  25
ATOM     25  C   UNL     1      -3.048  13.113  21.227  0.00  0.00    +0.000 A 
ATOM     26  C   UNL     1      -3.199  13.108  22.625  0.00  0.00    +0.000 A 
ATOM     27  C   UNL     1      -4.457  12.985  23.234  0.00  0.00    +0.000 A 
ATOM     28  C   UNL     1      -5.598  12.906  22.438  0.00  0.00    +0.000 A 
ATOM     29  C   UNL     1      -5.485  12.901  21.051  0.00  0.00    +0.000 A 
ATOM     30  C   UNL     1      -4.218  13.015  20.457  0.00  0.00    +0.000 A 
BRANCH  28  31
ATOM     31  S   UNL     1      -7.191  12.793  23.197  0.00  0.00    +0.000 S 
ATOM     32  O   UNL     1      -7.915  14.026  22.988  0.00  0.00    +0.000 OA
ATOM     33  O   UNL     1      -7.769  11.502  22.894  0.00  0.00    +0.000 OA
BRANCH  31  34
ATOM     34  N   UNL     1      -6.812  12.748  24.831  0.00  0.00    +0.000 NA
ATOM     35  H   UNL     1      -5.931  13.234  24.999  0.00  0.00    +0.000 HD
ATOM     36  H   UNL     1      -7.591  13.104  25.384  0.00  0.00    +0.000 HD
ENDBRANCH  31  34
ENDBRANCH  28  31
ENDBRANCH  23  25
ENDBRANCH  22  23
ENDBRANCH   7  22
TORSDOF 8
ENDMDL
