MODEL 1
REMARK VINA RESULT:      -8.2      0.000      0.000
REMARK  Name = 
REMARK  7 active torsions:
REMARK  status: ('A' for Active; 'I' for Inactive)
REMARK    1  A    between atoms: C_1  and  C_2
REMARK    2  A    between atoms: C_2  and  O_3
REMARK    3  A    between atoms: C_2  and  C_17
REMARK    4  A    between atoms: O_3  and  C_4
REMARK    5  A    between atoms: C_4  and  C_6
REMARK    6  A    between atoms: C_10  and  N_11
REMARK    7  A    between atoms: N_19  and  C_20
REMARK                            x       y       z     vdW  Elec       q    Type
REMARK                         _______ _______ _______ _____ _____    ______ ____
ROOT
ATOM      1  O   UNL     1       3.056   2.494  19.616  0.00  0.00    +0.000 OA
ENDROOT
BRANCH   1   3
ATOM      2  C   UNL     1       1.216   2.736  21.191  0.00  0.00    +0.000 C 
ATOM      3  C   UNL     1       2.406   3.415  20.504  0.00  0.00    +0.000 C 
BRANCH   3   4
ATOM      4  C   UNL     1       1.888   4.678  19.795  0.00  0.00    +0.000 C 
ATOM      5  O   UNL     1       1.006   4.586  18.942  0.00  0.00    +0.000 OA
ATOM      6  N   UNL     1       2.445   5.873  20.230  0.00  0.00    +0.000 N 
ATOM      7  H   UNL     1       3.306   5.804  20.760  0.00  0.00    +0.000 HD
BRANCH   6   8
ATOM      8  C   UNL     1       2.023   7.161  19.819  0.00  0.00    +0.000 A 
ATOM      9  C   UNL     1       1.311   8.028  20.663  0.00  0.00    +0.000 A 
ATOM     10  C   UNL     1       0.888   9.281  20.219  0.00  0.00    +0.000 A 
ATOM     11  C   UNL     1       1.186   9.680  18.929  0.00  0.00    +0.000 A 
ATOM     12  F   UNL     1       0.771  10.880  18.497  0.00  0.00    +0.000 F 
ATOM     13  C   UNL     1       1.911   8.852  18.078  0.00  0.00    +0.000 A 
ATOM     14  C   UNL     1       2.338   7.594  18.525  0.00  0.00    +0.000 A 
ENDBRANCH   6   8
ENDBRANCH   3   4
ENDBRANCH   1   3
BRANCH   1  15
ATOM     15  C   UNL     1       4.408   2.639  19.552  0.00  0.00    +0.000 C 
ATOM     16  O   UNL     1       5.222   2.093  20.280  0.00  0.00    +0.000 OA
BRANCH  15  17
ATOM     17  C   UNL     1       4.802   3.566  18.458  0.00  0.00    +0.000 A 
ATOM     18  C   UNL     1       4.322   3.309  17.167  0.00  0.00    +0.000 A 
ATOM     19  C   UNL     1       4.677   4.139  16.102  0.00  0.00    +0.000 A 
ATOM     20  C   UNL     1       5.525   5.227  16.313  0.00  0.00    +0.000 A 
ATOM     21  C   UNL     1       6.021   5.488  17.599  0.00  0.00    +0.000 A 
ATOM     22  C   UNL     1       5.646   4.662  18.673  0.00  0.00    +0.000 A 
BRANCH  21  23
ATOM     23  N   UNL     1       6.921   6.555  17.828  0.00  0.00    +0.000 N 
ATOM     24  C   UNL     1       7.884   6.697  18.794  0.00  0.00    +0.000 A 
ATOM     25  N   UNL     1       8.455   7.874  18.668  0.00  0.00    +0.000 NA
ATOM     26  N   UNL     1       7.843   8.471  17.598  0.00  0.00    +0.000 NA
ATOM     27  N   UNL     1       6.915   7.681  17.077  0.00  0.00    +0.000 NA
ENDBRANCH  21  23
ENDBRANCH  15  17
ENDBRANCH   1  15
TORSDOF 6
ENDMDL
MODEL 2
REMARK VINA RESULT:      -8.0      2.016      2.887
REMARK  Name = 
REMARK  7 active torsions:
REMARK  status: ('A' for Active; 'I' for Inactive)
REMARK    1  A    between atoms: C_1  and  C_2
REMARK    2  A    between atoms: C_2  and  O_3
REMARK    3  A    between atoms: C_2  and  C_17
REMARK    4  A    between atoms: O_3  and  C_4
REMARK    5  A    between atoms: C_4  and  C_6
REMARK    6  A    between atoms: C_10  and  N_11
REMARK    7  A    between atoms: N_19  and  C_20
REMARK                            x       y       z     vdW  Elec       q    Type
REMARK                         _______ _______ _______ _____ _____    ______ ____
ROOT
ATOM      1  O   UNL     1       3.357   3.491  18.892  0.00  0.00    +0.000 OA
ENDROOT
BRANCH   1   3
ATOM      2  C   UNL     1       1.284   3.719  20.149  0.00  0.00    +0.000 C 
ATOM      3  C   UNL     1       2.610   4.373  19.743  0.00  0.00    +0.000 C 
BRANCH   3   4
ATOM      4  C   UNL     1       2.290   5.725  19.084  0.00  0.00    +0.000 C 
ATOM      5  O   UNL     1       2.052   5.781  17.878  0.00  0.00    +0.000 OA
ATOM      6  N   UNL     1       2.243   6.810  19.949  0.00  0.00    +0.000 N 
ATOM      7  H   UNL     1       2.674   6.683  20.858  0.00  0.00    +0.000 HD
BRANCH   6   8
ATOM      8  C   UNL     1       1.836   8.118  19.589  0.00  0.00    +0.000 A 
ATOM      9  C   UNL     1       2.143   8.689  18.344  0.00  0.00    +0.000 A 
ATOM     10  C   UNL     1       1.748   9.991  18.030  0.00  0.00    +0.000 A 
ATOM     11  C   UNL     1       1.033  10.725  18.958  0.00  0.00    +0.000 A 
ATOM     12  F   UNL     1       0.662  11.979  18.662  0.00  0.00    +0.000 F 
ATOM     13  C   UNL     1       0.693  10.177  20.191  0.00  0.00    +0.000 A 
ATOM     14  C   UNL     1       1.088   8.869  20.505  0.00  0.00    +0.000 A 
ENDBRANCH   6   8
ENDBRANCH   3   4
ENDBRANCH   1   3
BRANCH   1  15
ATOM     15  C   UNL     1       4.651   3.313  19.271  0.00  0.00    +0.000 C 
ATOM     16  O   UNL     1       5.048   2.530  20.120  0.00  0.00    +0.000 OA
BRANCH  15  17
ATOM     17  C   UNL     1       5.567   4.204  18.508  0.00  0.00    +0.000 A 
ATOM     18  C   UNL     1       6.226   5.227  19.203  0.00  0.00    +0.000 A 
ATOM     19  C   UNL     1       7.082   6.100  18.530  0.00  0.00    +0.000 A 
ATOM     20  C   UNL     1       7.280   5.968  17.155  0.00  0.00    +0.000 A 
ATOM     21  C   UNL     1       6.618   4.955  16.447  0.00  0.00    +0.000 A 
ATOM     22  C   UNL     1       5.771   4.064  17.130  0.00  0.00    +0.000 A 
BRANCH  21  23
ATOM     23  N   UNL     1       6.765   4.832  15.045  0.00  0.00    +0.000 N 
ATOM     24  C   UNL     1       6.079   4.041  14.158  0.00  0.00    +0.000 A 
ATOM     25  N   UNL     1       6.579   4.206  12.954  0.00  0.00    +0.000 NA
ATOM     26  N   UNL     1       7.586   5.123  13.093  0.00  0.00    +0.000 NA
ATOM     27  N   UNL     1       7.706   5.514  14.353  0.00  0.00    +0.000 NA
ENDBRANCH  21  23
ENDBRANCH  15  17
ENDBRANCH   1  15
TORSDOF 6
ENDMDL
MODEL 3
REMARK VINA RESULT:      -7.9      1.754      2.689
REMARK  Name = 
REMARK  7 active torsions:
REMARK  status: ('A' for Active; 'I' for Inactive)
REMARK    1  A    between atoms: C_1  and  C_2
REMARK    2  A    between atoms: C_2  and  O_3
REMARK    3  A    between atoms: C_2  and  C_17
REMARK    4  A    between atoms: O_3  and  C_4
REMARK    5  A    between atoms: C_4  and  C_6
REMARK    6  A    between atoms: C_10  and  N_11
REMARK    7  A    between atoms: N_19  and  C_20
REMARK                            x       y       z     vdW  Elec       q    Type
REMARK                         _______ _______ _______ _____ _____    ______ ____
ROOT
ATOM      1  O   UNL     1       3.720   3.012  20.390  0.00  0.00    +0.000 OA
ENDROOT
BRANCH   1   3
ATOM      2  C   UNL     1       1.544   2.668  21.428  0.00  0.00    +0.000 C 
ATOM      3  C   UNL     1       2.648   3.674  21.078  0.00  0.00    +0.000 C 
BRANCH   3   4
ATOM      4  C   UNL     1       2.013   4.811  20.260  0.00  0.00    +0.000 C 
ATOM      5  O   UNL     1       0.991   4.603  19.608  0.00  0.00    +0.000 OA
ATOM      6  N   UNL     1       2.642   6.044  20.372  0.00  0.00    +0.000 N 
ATOM      7  H   UNL     1       3.585   6.039  20.744  0.00  0.00    +0.000 HD
BRANCH   6   8
ATOM      8  C   UNL     1       2.156   7.255  19.822  0.00  0.00    +0.000 A 
ATOM      9  C   UNL     1       2.376   7.619  18.484  0.00  0.00    +0.000 A 
ATOM     10  C   UNL     1       1.905   8.832  17.980  0.00  0.00    +0.000 A 
ATOM     11  C   UNL     1       1.201   9.685  18.810  0.00  0.00    +0.000 A 
ATOM     12  F   UNL     1       0.757  10.856  18.330  0.00  0.00    +0.000 F 
ATOM     13  C   UNL     1       0.947   9.341  20.134  0.00  0.00    +0.000 A 
ATOM     14  C   UNL     1       1.418   8.121  20.640  0.00  0.00    +0.000 A 
ENDBRANCH   6   8
ENDBRANCH   3   4
ENDBRANCH   1   3
BRANCH   1  15
ATOM     15  C   UNL     1       3.687   3.155  19.037  0.00  0.00    +0.000 C 
ATOM     16  O   UNL     1       2.829   2.713  18.290  0.00  0.00    +0.000 OA
BRANCH  15  17
ATOM     17  C   UNL     1       4.852   3.941  18.547  0.00  0.00    +0.000 A 
ATOM     18  C   UNL     1       5.557   4.725  19.470  0.00  0.00    +0.000 A 
ATOM     19  C   UNL     1       6.647   5.494  19.057  0.00  0.00    +0.000 A 
ATOM     20  C   UNL     1       7.036   5.497  17.716  0.00  0.00    +0.000 A 
ATOM     21  C   UNL     1       6.330   4.726  16.782  0.00  0.00    +0.000 A 
ATOM     22  C   UNL     1       5.246   3.936  17.204  0.00  0.00    +0.000 A 
BRANCH  21  23
ATOM     23  N   UNL     1       6.676   4.751  15.410  0.00  0.00    +0.000 N 
ATOM     24  C   UNL     1       6.184   4.006  14.369  0.00  0.00    +0.000 A 
ATOM     25  N   UNL     1       6.827   4.321  13.268  0.00  0.00    +0.000 NA
ATOM     26  N   UNL     1       7.728   5.287  13.628  0.00  0.00    +0.000 NA
ATOM     27  N   UNL     1       7.644   5.560  14.922  0.00  0.00    +0.000 NA
ENDBRANCH  21  23
ENDBRANCH  15  17
ENDBRANCH   1  15
TORSDOF 6
ENDMDL
MODEL 4
REMARK VINA RESULT:      -7.6      1.934      2.628
REMARK  Name = 
REMARK  7 active torsions:
REMARK  status: ('A' for Active; 'I' for Inactive)
REMARK    1  A    between atoms: C_1  and  C_2
REMARK    2  A    between atoms: C_2  and  O_3
REMARK    3  A    between atoms: C_2  and  C_17
REMARK    4  A    between atoms: O_3  and  C_4
REMARK    5  A    between atoms: C_4  and  C_6
REMARK    6  A    between atoms: C_10  and  N_11
REMARK    7  A    between atoms: N_19  and  C_20
REMARK                            x       y       z     vdW  Elec       q    Type
REMARK                         _______ _______ _______ _____ _____    ______ ____
ROOT
ATOM      1  O   UNL     1       2.929   3.419  19.295  0.00  0.00    +0.000 OA
ENDROOT
BRANCH   1   3
ATOM      2  C   UNL     1       2.127   3.175  21.580  0.00  0.00    +0.000 C 
ATOM      3  C   UNL     1       2.736   4.116  20.534  0.00  0.00    +0.000 C 
BRANCH   3   4
ATOM      4  C   UNL     1       1.816   5.341  20.403  0.00  0.00    +0.000 C 
ATOM      5  O   UNL     1       0.598   5.212  20.527  0.00  0.00    +0.000 OA
ATOM      6  N   UNL     1       2.465   6.552  20.202  0.00  0.00    +0.000 N 
ATOM      7  H   UNL     1       3.429   6.502  19.894  0.00  0.00    +0.000 HD
BRANCH   6   8
ATOM      8  C   UNL     1       1.833   7.819  20.190  0.00  0.00    +0.000 A 
ATOM      9  C   UNL     1       1.258   8.388  21.338  0.00  0.00    +0.000 A 
ATOM     10  C   UNL     1       0.620   9.628  21.287  0.00  0.00    +0.000 A 
ATOM     11  C   UNL     1       0.563  10.312  20.087  0.00  0.00    +0.000 A 
ATOM     12  F   UNL     1      -0.058  11.499  20.034  0.00  0.00    +0.000 F 
ATOM     13  C   UNL     1       1.145   9.786  18.938  0.00  0.00    +0.000 A 
ATOM     14  C   UNL     1       1.788   8.541  18.990  0.00  0.00    +0.000 A 
ENDBRANCH   6   8
ENDBRANCH   3   4
ENDBRANCH   1   3
BRANCH   1  15
ATOM     15  C   UNL     1       4.172   2.887  19.141  0.00  0.00    +0.000 C 
ATOM     16  O   UNL     1       4.512   1.758  19.458  0.00  0.00    +0.000 OA
BRANCH  15  17
ATOM     17  C   UNL     1       5.106   3.863  18.517  0.00  0.00    +0.000 A 
ATOM     18  C   UNL     1       5.630   4.884  19.320  0.00  0.00    +0.000 A 
ATOM     19  C   UNL     1       6.497   5.835  18.778  0.00  0.00    +0.000 A 
ATOM     20  C   UNL     1       6.841   5.781  17.427  0.00  0.00    +0.000 A 
ATOM     21  C   UNL     1       6.314   4.770  16.611  0.00  0.00    +0.000 A 
ATOM     22  C   UNL     1       5.456   3.802  17.163  0.00  0.00    +0.000 A 
BRANCH  21  23
ATOM     23  N   UNL     1       6.609   4.725  15.228  0.00  0.00    +0.000 N 
ATOM     24  C   UNL     1       6.106   3.904  14.251  0.00  0.00    +0.000 A 
ATOM     25  N   UNL     1       6.698   4.173  13.110  0.00  0.00    +0.000 NA
ATOM     26  N   UNL     1       7.579   5.187  13.379  0.00  0.00    +0.000 NA
ATOM     27  N   UNL     1       7.531   5.534  14.657  0.00  0.00    +0.000 NA
ENDBRANCH  21  23
ENDBRANCH  15  17
ENDBRANCH   1  15
TORSDOF 6
ENDMDL
MODEL 5
REMARK VINA RESULT:      -7.5      1.965      2.639
REMARK  Name = 
REMARK  7 active torsions:
REMARK  status: ('A' for Active; 'I' for Inactive)
REMARK    1  A    between atoms: C_1  and  C_2
REMARK    2  A    between atoms: C_2  and  O_3
REMARK    3  A    between atoms: C_2  and  C_17
REMARK    4  A    between atoms: O_3  and  C_4
REMARK    5  A    between atoms: C_4  and  C_6
REMARK    6  A    between atoms: C_10  and  N_11
REMARK    7  A    between atoms: N_19  and  C_20
REMARK                            x       y       z     vdW  Elec       q    Type
REMARK                         _______ _______ _______ _____ _____    ______ ____
ROOT
ATOM      1  O   UNL     1       3.363   3.094  18.658  0.00  0.00    +0.000 OA
ENDROOT
BRANCH   1   3
ATOM      2  C   UNL     1       1.153   2.280  19.275  0.00  0.00    +0.000 C 
ATOM      3  C   UNL     1       2.327   3.195  19.645  0.00  0.00    +0.000 C 
BRANCH   3   4
ATOM      4  C   UNL     1       1.782   4.624  19.808  0.00  0.00    +0.000 C 
ATOM      5  O   UNL     1       0.968   4.874  20.695  0.00  0.00    +0.000 OA
ATOM      6  N   UNL     1       2.315   5.564  18.937  0.00  0.00    +0.000 N 
ATOM      7  H   UNL     1       2.792   5.204  18.119  0.00  0.00    +0.000 HD
BRANCH   6   8
ATOM      8  C   UNL     1       2.064   6.957  18.994  0.00  0.00    +0.000 A 
ATOM      9  C   UNL     1       1.582   7.591  20.150  0.00  0.00    +0.000 A 
ATOM     10  C   UNL     1       1.321   8.962  20.166  0.00  0.00    +0.000 A 
ATOM     11  C   UNL     1       1.552   9.710  19.026  0.00  0.00    +0.000 A 
ATOM     12  F   UNL     1       1.293  11.025  19.036  0.00  0.00    +0.000 F 
ATOM     13  C   UNL     1       2.053   9.114  17.873  0.00  0.00    +0.000 A 
ATOM     14  C   UNL     1       2.317   7.737  17.858  0.00  0.00    +0.000 A 
ENDBRANCH   6   8
ENDBRANCH   3   4
ENDBRANCH   1   3
BRANCH   1  15
ATOM     15  C   UNL     1       4.623   3.079  19.170  0.00  0.00    +0.000 C 
ATOM     16  O   UNL     1       5.018   2.367  20.081  0.00  0.00    +0.000 OA
BRANCH  15  17
ATOM     17  C   UNL     1       5.503   4.057  18.475  0.00  0.00    +0.000 A 
ATOM     18  C   UNL     1       6.055   5.102  19.227  0.00  0.00    +0.000 A 
ATOM     19  C   UNL     1       6.874   6.055  18.618  0.00  0.00    +0.000 A 
ATOM     20  C   UNL     1       7.139   5.981  17.250  0.00  0.00    +0.000 A 
ATOM     21  C   UNL     1       6.583   4.946  16.485  0.00  0.00    +0.000 A 
ATOM     22  C   UNL     1       5.775   3.975  17.104  0.00  0.00    +0.000 A 
BRANCH  21  23
ATOM     23  N   UNL     1       6.798   4.878  15.088  0.00  0.00    +0.000 N 
ATOM     24  C   UNL     1       6.115   4.172  14.130  0.00  0.00    +0.000 A 
ATOM     25  N   UNL     1       6.688   4.360  12.963  0.00  0.00    +0.000 NA
ATOM     26  N   UNL     1       7.739   5.206  13.197  0.00  0.00    +0.000 NA
ATOM     27  N   UNL     1       7.814   5.531  14.479  0.00  0.00    +0.000 NA
ENDBRANCH  21  23
ENDBRANCH  15  17
ENDBRANCH   1  15
TORSDOF 6
ENDMDL
MODEL 6
REMARK VINA RESULT:      -7.4      2.693      3.990
REMARK  Name = 
REMARK  7 active torsions:
REMARK  status: ('A' for Active; 'I' for Inactive)
REMARK    1  A    between atoms: C_1  and  C_2
REMARK    2  A    between atoms: C_2  and  O_3
REMARK    3  A    between atoms: C_2  and  C_17
REMARK    4  A    between atoms: O_3  and  C_4
REMARK    5  A    between atoms: C_4  and  C_6
REMARK    6  A    between atoms: C_10  and  N_11
REMARK    7  A    between atoms: N_19  and  C_20
REMARK                            x       y       z     vdW  Elec       q    Type
REMARK                         _______ _______ _______ _____ _____    ______ ____
ROOT
ATOM      1  O   UNL     1       2.017   6.284  18.124  0.00  0.00    +0.000 OA
ENDROOT
BRANCH   1   3
ATOM      2  C   UNL     1       1.742   7.219  20.355  0.00  0.00    +0.000 C 
ATOM      3  C   UNL     1       2.411   7.364  18.982  0.00  0.00    +0.000 C 
BRANCH   3   4
ATOM      4  C   UNL     1       2.047   8.749  18.420  0.00  0.00    +0.000 C 
ATOM      5  O   UNL     1       2.187   8.982  17.221  0.00  0.00    +0.000 OA
ATOM      6  N   UNL     1       1.518   9.642  19.343  0.00  0.00    +0.000 N 
ATOM      7  H   UNL     1       1.662   9.421  20.321  0.00  0.00    +0.000 HD
BRANCH   6   8
ATOM      8  C   UNL     1       0.989  10.917  19.025  0.00  0.00    +0.000 A 
ATOM      9  C   UNL     1       1.782  12.074  18.977  0.00  0.00    +0.000 A 
ATOM     10  C   UNL     1       1.225  13.320  18.686  0.00  0.00    +0.000 A 
ATOM     11  C   UNL     1      -0.131  13.413  18.431  0.00  0.00    +0.000 A 
ATOM     12  F   UNL     1      -0.670  14.611  18.162  0.00  0.00    +0.000 F 
ATOM     13  C   UNL     1      -0.939  12.281  18.448  0.00  0.00    +0.000 A 
ATOM     14  C   UNL     1      -0.378  11.029  18.738  0.00  0.00    +0.000 A 
ENDBRANCH   6   8
ENDBRANCH   3   4
ENDBRANCH   1   3
BRANCH   1  15
ATOM     15  C   UNL     1       2.550   5.079  18.463  0.00  0.00    +0.000 C 
ATOM     16  O   UNL     1       1.933   4.122  18.906  0.00  0.00    +0.000 OA
BRANCH  15  17
ATOM     17  C   UNL     1       4.018   5.048  18.225  0.00  0.00    +0.000 A 
ATOM     18  C   UNL     1       4.871   5.148  19.332  0.00  0.00    +0.000 A 
ATOM     19  C   UNL     1       6.256   5.142  19.160  0.00  0.00    +0.000 A 
ATOM     20  C   UNL     1       6.804   5.047  17.880  0.00  0.00    +0.000 A 
ATOM     21  C   UNL     1       5.961   4.958  16.764  0.00  0.00    +0.000 A 
ATOM     22  C   UNL     1       4.566   4.944  16.940  0.00  0.00    +0.000 A 
BRANCH  21  23
ATOM     23  N   UNL     1       6.492   4.911  15.453  0.00  0.00    +0.000 N 
ATOM     24  C   UNL     1       6.098   4.162  14.374  0.00  0.00    +0.000 A 
ATOM     25  N   UNL     1       6.907   4.393  13.365  0.00  0.00    +0.000 NA
ATOM     26  N   UNL     1       7.815   5.310  13.822  0.00  0.00    +0.000 NA
ATOM     27  N   UNL     1       7.573   5.636  15.083  0.00  0.00    +0.000 NA
ENDBRANCH  21  23
ENDBRANCH  15  17
ENDBRANCH   1  15
TORSDOF 6
ENDMDL
MODEL 7
REMARK VINA RESULT:      -7.4      2.958      4.487
REMARK  Name = 
REMARK  7 active torsions:
REMARK  status: ('A' for Active; 'I' for Inactive)
REMARK    1  A    between atoms: C_1  and  C_2
REMARK    2  A    between atoms: C_2  and  O_3
REMARK    3  A    between atoms: C_2  and  C_17
REMARK    4  A    between atoms: O_3  and  C_4
REMARK    5  A    between atoms: C_4  and  C_6
REMARK    6  A    between atoms: C_10  and  N_11
REMARK    7  A    between atoms: N_19  and  C_20
REMARK                            x       y       z     vdW  Elec       q    Type
REMARK                         _______ _______ _______ _____ _____    ______ ____
ROOT
ATOM      1  O   UNL     1       2.390   7.812  19.668  0.00  0.00    +0.000 OA
ENDROOT
BRANCH   1   3
ATOM      2  C   UNL     1       2.349   9.009  17.548  0.00  0.00    +0.000 C 
ATOM      3  C   UNL     1       1.524   8.428  18.703  0.00  0.00    +0.000 C 
BRANCH   3   4
ATOM      4  C   UNL     1       0.668   9.561  19.293  0.00  0.00    +0.000 C 
ATOM      5  O   UNL     1      -0.241  10.055  18.627  0.00  0.00    +0.000 OA
ATOM      6  N   UNL     1       0.969   9.912  20.602  0.00  0.00    +0.000 N 
ATOM      7  H   UNL     1       1.866   9.603  20.958  0.00  0.00    +0.000 HD
BRANCH   6   8
ATOM      8  C   UNL     1       0.227  10.827  21.388  0.00  0.00    +0.000 A 
ATOM      9  C   UNL     1       0.321  12.217  21.220  0.00  0.00    +0.000 A 
ATOM     10  C   UNL     1      -0.405  13.093  22.028  0.00  0.00    +0.000 A 
ATOM     11  C   UNL     1      -1.240  12.580  23.004  0.00  0.00    +0.000 A 
ATOM     12  F   UNL     1      -1.930  13.421  23.788  0.00  0.00    +0.000 F 
ATOM     13  C   UNL     1      -1.373  11.207  23.178  0.00  0.00    +0.000 A 
ATOM     14  C   UNL     1      -0.645  10.327  22.364  0.00  0.00    +0.000 A 
ENDBRANCH   6   8
ENDBRANCH   3   4
ENDBRANCH   1   3
BRANCH   1  15
ATOM     15  C   UNL     1       2.128   6.496  19.893  0.00  0.00    +0.000 C 
ATOM     16  O   UNL     1       1.497   6.042  20.835  0.00  0.00    +0.000 OA
BRANCH  15  17
ATOM     17  C   UNL     1       2.712   5.637  18.828  0.00  0.00    +0.000 A 
ATOM     18  C   UNL     1       2.035   4.460  18.481  0.00  0.00    +0.000 A 
ATOM     19  C   UNL     1       2.550   3.611  17.499  0.00  0.00    +0.000 A 
ATOM     20  C   UNL     1       3.752   3.923  16.863  0.00  0.00    +0.000 A 
ATOM     21  C   UNL     1       4.444   5.092  17.210  0.00  0.00    +0.000 A 
ATOM     22  C   UNL     1       3.914   5.956  18.184  0.00  0.00    +0.000 A 
BRANCH  21  23
ATOM     23  N   UNL     1       5.689   5.403  16.613  0.00  0.00    +0.000 N 
ATOM     24  C   UNL     1       6.393   4.726  15.650  0.00  0.00    +0.000 A 
ATOM     25  N   UNL     1       7.529   5.346  15.426  0.00  0.00    +0.000 NA
ATOM     26  N   UNL     1       7.529   6.433  16.258  0.00  0.00    +0.000 NA
ATOM     27  N   UNL     1       6.418   6.483  16.979  0.00  0.00    +0.000 NA
ENDBRANCH  21  23
ENDBRANCH  15  17
ENDBRANCH   1  15
TORSDOF 6
ENDMDL
MODEL 8
REMARK VINA RESULT:      -7.3      2.371      3.144
REMARK  Name = 
REMARK  7 active torsions:
REMARK  status: ('A' for Active; 'I' for Inactive)
REMARK    1  A    between atoms: C_1  and  C_2
REMARK    2  A    between atoms: C_2  and  O_3
REMARK    3  A    between atoms: C_2  and  C_17
REMARK    4  A    between atoms: O_3  and  C_4
REMARK    5  A    between atoms: C_4  and  C_6
REMARK    6  A    between atoms: C_10  and  N_11
REMARK    7  A    between atoms: N_19  and  C_20
REMARK                            x       y       z     vdW  Elec       q    Type
REMARK                         _______ _______ _______ _____ _____    ______ ____
ROOT
ATOM      1  O   UNL     1       4.253   3.246  19.643  0.00  0.00    +0.000 OA
ENDROOT
BRANCH   1   3
ATOM      2  C   UNL     1       2.119   2.509  20.553  0.00  0.00    +0.000 C 
ATOM      3  C   UNL     1       3.106   3.672  20.392  0.00  0.00    +0.000 C 
BRANCH   3   4
ATOM      4  C   UNL     1       2.357   4.845  19.739  0.00  0.00    +0.000 C 
ATOM      5  O   UNL     1       1.308   4.641  19.128  0.00  0.00    +0.000 OA
ATOM      6  N   UNL     1       2.920   6.097  19.945  0.00  0.00    +0.000 N 
ATOM      7  H   UNL     1       3.883   6.114  20.260  0.00  0.00    +0.000 HD
BRANCH   6   8
ATOM      8  C   UNL     1       2.332   7.325  19.557  0.00  0.00    +0.000 A 
ATOM      9  C   UNL     1       2.520   7.883  18.282  0.00  0.00    +0.000 A 
ATOM     10  C   UNL     1       1.947   9.108  17.939  0.00  0.00    +0.000 A 
ATOM     11  C   UNL     1       1.171   9.778  18.867  0.00  0.00    +0.000 A 
ATOM     12  F   UNL     1       0.628  10.961  18.543  0.00  0.00    +0.000 F 
ATOM     13  C   UNL     1       0.947   9.239  20.130  0.00  0.00    +0.000 A 
ATOM     14  C   UNL     1       1.521   8.007  20.474  0.00  0.00    +0.000 A 
ENDBRANCH   6   8
ENDBRANCH   3   4
ENDBRANCH   1   3
BRANCH   1  15
ATOM     15  C   UNL     1       4.067   3.232  18.296  0.00  0.00    +0.000 C 
ATOM     16  O   UNL     1       3.179   2.642  17.701  0.00  0.00    +0.000 OA
BRANCH  15  17
ATOM     17  C   UNL     1       5.098   4.047  17.598  0.00  0.00    +0.000 A 
ATOM     18  C   UNL     1       5.732   5.069  18.316  0.00  0.00    +0.000 A 
ATOM     19  C   UNL     1       6.694   5.873  17.701  0.00  0.00    +0.000 A 
ATOM     20  C   UNL     1       7.024   5.672  16.360  0.00  0.00    +0.000 A 
ATOM     21  C   UNL     1       6.387   4.659  15.628  0.00  0.00    +0.000 A 
ATOM     22  C   UNL     1       5.433   3.838  16.254  0.00  0.00    +0.000 A 
BRANCH  21  23
ATOM     23  N   UNL     1       6.669   4.469  14.255  0.00  0.00    +0.000 N 
ATOM     24  C   UNL     1       7.571   5.115  13.448  0.00  0.00    +0.000 A 
ATOM     25  N   UNL     1       7.464   4.654  12.222  0.00  0.00    +0.000 NA
ATOM     26  N   UNL     1       6.486   3.698  12.269  0.00  0.00    +0.000 NA
ATOM     27  N   UNL     1       5.999   3.572  13.495  0.00  0.00    +0.000 NA
ENDBRANCH  21  23
ENDBRANCH  15  17
ENDBRANCH   1  15
TORSDOF 6
ENDMDL
MODEL 9
REMARK VINA RESULT:      -7.3      3.744      7.391
REMARK  Name = 
REMARK  7 active torsions:
REMARK  status: ('A' for Active; 'I' for Inactive)
REMARK    1  A    between atoms: C_1  and  C_2
REMARK    2  A    between atoms: C_2  and  O_3
REMARK    3  A    between atoms: C_2  and  C_17
REMARK    4  A    between atoms: O_3  and  C_4
REMARK    5  A    between atoms: C_4  and  C_6
REMARK    6  A    between atoms: C_10  and  N_11
REMARK    7  A    between atoms: N_19  and  C_20
REMARK                            x       y       z     vdW  Elec       q    Type
REMARK                         _______ _______ _______ _____ _____    ______ ____
ROOT
ATOM      1  O   UNL     1       4.166   6.280  18.556  0.00  0.00    +0.000 OA
ENDROOT
BRANCH   1   3
ATOM      2  C   UNL     1       6.303   5.373  19.289  0.00  0.00    +0.000 C 
ATOM      3  C   UNL     1       4.944   5.077  18.642  0.00  0.00    +0.000 C 
BRANCH   3   4
ATOM      4  C   UNL     1       5.201   4.422  17.275  0.00  0.00    +0.000 C 
ATOM      5  O   UNL     1       4.637   3.369  16.982  0.00  0.00    +0.000 OA
ATOM      6  N   UNL     1       6.044   5.129  16.428  0.00  0.00    +0.000 N 
ATOM      7  H   UNL     1       6.617   5.847  16.856  0.00  0.00    +0.000 HD
BRANCH   6   8
ATOM      8  C   UNL     1       6.312   4.787  15.080  0.00  0.00    +0.000 A 
ATOM      9  C   UNL     1       5.479   3.935  14.337  0.00  0.00    +0.000 A 
ATOM     10  C   UNL     1       5.786   3.598  13.017  0.00  0.00    +0.000 A 
ATOM     11  C   UNL     1       6.923   4.121  12.430  0.00  0.00    +0.000 A 
ATOM     12  F   UNL     1       7.224   3.790  11.166  0.00  0.00    +0.000 F 
ATOM     13  C   UNL     1       7.754   4.987  13.134  0.00  0.00    +0.000 A 
ATOM     14  C   UNL     1       7.445   5.327  14.458  0.00  0.00    +0.000 A 
ENDBRANCH   6   8
ENDBRANCH   3   4
ENDBRANCH   1   3
BRANCH   1  15
ATOM     15  C   UNL     1       2.913   6.172  19.075  0.00  0.00    +0.000 C 
ATOM     16  O   UNL     1       2.388   5.145  19.474  0.00  0.00    +0.000 OA
BRANCH  15  17
ATOM     17  C   UNL     1       2.225   7.491  19.108  0.00  0.00    +0.000 A 
ATOM     18  C   UNL     1       2.184   8.247  17.929  0.00  0.00    +0.000 A 
ATOM     19  C   UNL     1       1.565   9.498  17.913  0.00  0.00    +0.000 A 
ATOM     20  C   UNL     1       0.991  10.013  19.076  0.00  0.00    +0.000 A 
ATOM     21  C   UNL     1       1.036   9.270  20.265  0.00  0.00    +0.000 A 
ATOM     22  C   UNL     1       1.641   8.002  20.275  0.00  0.00    +0.000 A 
BRANCH  21  23
ATOM     23  N   UNL     1       0.504   9.792  21.468  0.00  0.00    +0.000 N 
ATOM     24  C   UNL     1      -0.149  10.977  21.695  0.00  0.00    +0.000 A 
ATOM     25  N   UNL     1      -0.424  11.082  22.976  0.00  0.00    +0.000 NA
ATOM     26  N   UNL     1       0.056   9.937  23.553  0.00  0.00    +0.000 NA
ATOM     27  N   UNL     1       0.617   9.145  22.651  0.00  0.00    +0.000 NA
ENDBRANCH  21  23
ENDBRANCH  15  17
ENDBRANCH   1  15
TORSDOF 6
ENDMDL
