MODEL 1
REMARK VINA RESULT:      -9.3      0.000      0.000
REMARK  Name = 
REMARK  8 active torsions:
REMARK  status: ('A' for Active; 'I' for Inactive)
REMARK    1  A    between atoms: C_2  and  O_3
REMARK    2  A    between atoms: C_2  and  C_4
REMARK    3  A    between atoms: N_12  and  C_13
REMARK    4  A    between atoms: C_17  and  C_18
REMARK    5  A    between atoms: C_18  and  O_20
REMARK    6  A    between atoms: O_20  and  C_21
REMARK    7  A    between atoms: C_21  and  C_22
REMARK    8  A    between atoms: C_22  and  C_24
REMARK                            x       y       z     vdW  Elec       q    Type
REMARK                         _______ _______ _______ _____ _____    ______ ____
ROOT
ATOM      1  C   UNL     1       3.040   5.713  18.234  0.00  0.00    +0.000 A 
ATOM      2  C   UNL     1       2.285   4.597  17.848  0.00  0.00    +0.000 A 
ATOM      3  C   UNL     1       2.889   3.485  17.259  0.00  0.00    +0.000 A 
ATOM      4  C   UNL     1       4.268   3.460  17.079  0.00  0.00    +0.000 A 
ATOM      5  C   UNL     1       5.045   4.558  17.457  0.00  0.00    +0.000 A 
ATOM      6  C   UNL     1       4.426   5.691  18.006  0.00  0.00    +0.000 A 
ENDROOT
BRANCH   1  15
ATOM      7  C   UNL     1       0.274  10.014  21.399  0.00  0.00    +0.000 A 
ATOM      8  C   UNL     1       0.520  10.779  20.233  0.00  0.00    +0.000 A 
ATOM      9  C   UNL     1       1.179  10.220  19.135  0.00  0.00    +0.000 A 
ATOM     10  C   UNL     1       1.581   8.904  19.244  0.00  0.00    +0.000 A 
ATOM     11  C   UNL     1       1.319   8.144  20.364  0.00  0.00    +0.000 A 
ATOM     12  C   UNL     1       0.683   8.670  21.472  0.00  0.00    +0.000 A 
ATOM     13  C   UNL     1       1.829   6.799  20.110  0.00  0.00    +0.000 C 
ATOM     14  O   UNL     1       1.713   5.911  20.933  0.00  0.00    +0.000 OA
ATOM     15  N   UNL     1       2.416   6.824  18.859  0.00  0.00    +0.000 N 
ATOM     16  C   UNL     1       2.311   8.075  18.294  0.00  0.00    +0.000 C 
ATOM     17  O   UNL     1       2.667   8.515  17.216  0.00  0.00    +0.000 OA
BRANCH   7  19
ATOM     18  O   UNL     1      -0.354  11.812  22.814  0.00  0.00    +0.000 OA
ATOM     19  C   UNL     1      -0.361  10.613  22.599  0.00  0.00    +0.000 C 
BRANCH  19  20
ATOM     20  O   UNL     1      -0.922   9.713  23.430  0.00  0.00    +0.000 OA
ATOM     21  H   UNL     1      -0.488   8.842  23.473  0.00  0.00    +0.000 HD
ENDBRANCH  19  20
ENDBRANCH   7  19
ENDBRANCH   1  15
BRANCH   5  22
ATOM     22  C   UNL     1       6.525   4.422  17.367  0.00  0.00    +0.000 C 
ATOM     23  O   UNL     1       7.272   4.562  18.323  0.00  0.00    +0.000 OA
BRANCH  22  24
ATOM     24  O   UNL     1       6.920   4.240  16.083  0.00  0.00    +0.000 OA
BRANCH  24  25
ATOM     25  C   UNL     1       6.670   5.373  15.243  0.00  0.00    +0.000 C 
BRANCH  25  26
ATOM     26  C   UNL     1       7.287   5.103  13.873  0.00  0.00    +0.000 C 
ATOM     27  O   UNL     1       8.277   5.707  13.457  0.00  0.00    +0.000 OA
BRANCH  26  28
ATOM     28  C   UNL     1       6.627   4.116  12.980  0.00  0.00    +0.000 A 
ATOM     29  C   UNL     1       5.226   4.057  12.989  0.00  0.00    +0.000 A 
ATOM     30  C   UNL     1       4.556   3.146  12.172  0.00  0.00    +0.000 A 
ATOM     31  C   UNL     1       5.282   2.300  11.336  0.00  0.00    +0.000 A 
ATOM     32  C   UNL     1       6.675   2.363  11.314  0.00  0.00    +0.000 A 
ATOM     33  C   UNL     1       7.351   3.268  12.137  0.00  0.00    +0.000 A 
ENDBRANCH  26  28
ENDBRANCH  25  26
ENDBRANCH  24  25
ENDBRANCH  22  24
ENDBRANCH   5  22
TORSDOF 8
ENDMDL
MODEL 2
REMARK VINA RESULT:      -8.9      1.278      1.679
REMARK  Name = 
REMARK  8 active torsions:
REMARK  status: ('A' for Active; 'I' for Inactive)
REMARK    1  A    between atoms: C_2  and  O_3
REMARK    2  A    between atoms: C_2  and  C_4
REMARK    3  A    between atoms: N_12  and  C_13
REMARK    4  A    between atoms: C_17  and  C_18
REMARK    5  A    between atoms: C_18  and  O_20
REMARK    6  A    between atoms: O_20  and  C_21
REMARK    7  A    between atoms: C_21  and  C_22
REMARK    8  A    between atoms: C_22  and  C_24
REMARK                            x       y       z     vdW  Elec       q    Type
REMARK                         _______ _______ _______ _____ _____    ______ ____
ROOT
ATOM      1  C   UNL     1       2.601   6.508  18.727  0.00  0.00    +0.000 A 
ATOM      2  C   UNL     1       1.862   5.495  18.101  0.00  0.00    +0.000 A 
ATOM      3  C   UNL     1       2.473   4.319  17.664  0.00  0.00    +0.000 A 
ATOM      4  C   UNL     1       3.834   4.124  17.878  0.00  0.00    +0.000 A 
ATOM      5  C   UNL     1       4.595   5.117  18.502  0.00  0.00    +0.000 A 
ATOM      6  C   UNL     1       3.982   6.315  18.898  0.00  0.00    +0.000 A 
ENDROOT
BRANCH   1  15
ATOM      7  C   UNL     1      -0.211  11.172  21.278  0.00  0.00    +0.000 A 
ATOM      8  C   UNL     1      -0.019  11.754  20.001  0.00  0.00    +0.000 A 
ATOM      9  C   UNL     1       0.628  11.049  18.982  0.00  0.00    +0.000 A 
ATOM     10  C   UNL     1       1.072   9.777  19.280  0.00  0.00    +0.000 A 
ATOM     11  C   UNL     1       0.864   9.192  20.511  0.00  0.00    +0.000 A 
ATOM     12  C   UNL     1       0.241   9.866  21.544  0.00  0.00    +0.000 A 
ATOM     13  C   UNL     1       1.407   7.838  20.451  0.00  0.00    +0.000 C 
ATOM     14  O   UNL     1       1.340   7.085  21.404  0.00  0.00    +0.000 OA
ATOM     15  N   UNL     1       1.960   7.685  19.193  0.00  0.00    +0.000 N 
ATOM     16  C   UNL     1       1.802   8.831  18.446  0.00  0.00    +0.000 C 
ATOM     17  O   UNL     1       2.116   9.109  17.303  0.00  0.00    +0.000 OA
BRANCH   7  19
ATOM     18  O   UNL     1      -1.944  11.678  22.817  0.00  0.00    +0.000 OA
ATOM     19  C   UNL     1      -0.832  11.932  22.392  0.00  0.00    +0.000 C 
BRANCH  19  20
ATOM     20  O   UNL     1      -0.064  12.932  22.868  0.00  0.00    +0.000 OA
ATOM     21  H   UNL     1       0.213  12.853  23.798  0.00  0.00    +0.000 HD
ENDBRANCH  19  20
ENDBRANCH   7  19
ENDBRANCH   1  15
BRANCH   5  22
ATOM     22  C   UNL     1       6.012   4.799  18.828  0.00  0.00    +0.000 C 
ATOM     23  O   UNL     1       6.598   5.254  19.798  0.00  0.00    +0.000 OA
BRANCH  22  24
ATOM     24  O   UNL     1       6.577   4.043  17.854  0.00  0.00    +0.000 OA
BRANCH  24  25
ATOM     25  C   UNL     1       7.622   4.717  17.144  0.00  0.00    +0.000 C 
BRANCH  25  26
ATOM     26  C   UNL     1       6.990   5.550  16.031  0.00  0.00    +0.000 C 
ATOM     27  O   UNL     1       6.624   6.715  16.196  0.00  0.00    +0.000 OA
BRANCH  26  28
ATOM     28  C   UNL     1       6.747   4.906  14.714  0.00  0.00    +0.000 A 
ATOM     29  C   UNL     1       5.567   4.165  14.554  0.00  0.00    +0.000 A 
ATOM     30  C   UNL     1       5.292   3.538  13.338  0.00  0.00    +0.000 A 
ATOM     31  C   UNL     1       6.188   3.656  12.278  0.00  0.00    +0.000 A 
ATOM     32  C   UNL     1       7.357   4.402  12.429  0.00  0.00    +0.000 A 
ATOM     33  C   UNL     1       7.641   5.026  13.647  0.00  0.00    +0.000 A 
ENDBRANCH  26  28
ENDBRANCH  25  26
ENDBRANCH  24  25
ENDBRANCH  22  24
ENDBRANCH   5  22
TORSDOF 8
ENDMDL
MODEL 3
REMARK VINA RESULT:      -8.8      1.946      2.961
REMARK  Name = 
REMARK  8 active torsions:
REMARK  status: ('A' for Active; 'I' for Inactive)
REMARK    1  A    between atoms: C_2  and  O_3
REMARK    2  A    between atoms: C_2  and  C_4
REMARK    3  A    between atoms: N_12  and  C_13
REMARK    4  A    between atoms: C_17  and  C_18
REMARK    5  A    between atoms: C_18  and  O_20
REMARK    6  A    between atoms: O_20  and  C_21
REMARK    7  A    between atoms: C_21  and  C_22
REMARK    8  A    between atoms: C_22  and  C_24
REMARK                            x       y       z     vdW  Elec       q    Type
REMARK                         _______ _______ _______ _____ _____    ______ ____
ROOT
ATOM      1  C   UNL     1       2.512   6.439  19.688  0.00  0.00    +0.000 A 
ATOM      2  C   UNL     1       1.783   5.325  20.128  0.00  0.00    +0.000 A 
ATOM      3  C   UNL     1       2.353   4.052  20.153  0.00  0.00    +0.000 A 
ATOM      4  C   UNL     1       3.679   3.879  19.768  0.00  0.00    +0.000 A 
ATOM      5  C   UNL     1       4.430   4.973  19.327  0.00  0.00    +0.000 A 
ATOM      6  C   UNL     1       3.836   6.242  19.262  0.00  0.00    +0.000 A 
ENDROOT
BRANCH   1  15
ATOM      7  C   UNL     1       0.212  11.963  19.083  0.00  0.00    +0.000 A 
ATOM      8  C   UNL     1      -0.062  11.804  20.463  0.00  0.00    +0.000 A 
ATOM      9  C   UNL     1       0.287  10.627  21.132  0.00  0.00    +0.000 A 
ATOM     10  C   UNL     1       0.896   9.637  20.390  0.00  0.00    +0.000 A 
ATOM     11  C   UNL     1       1.193   9.795  19.052  0.00  0.00    +0.000 A 
ATOM     12  C   UNL     1       0.848  10.939  18.358  0.00  0.00    +0.000 A 
ATOM     13  C   UNL     1       1.881   8.585  18.610  0.00  0.00    +0.000 C 
ATOM     14  O   UNL     1       2.276   8.463  17.466  0.00  0.00    +0.000 OA
ATOM     15  N   UNL     1       1.928   7.732  19.697  0.00  0.00    +0.000 N 
ATOM     16  C   UNL     1       1.333   8.308  20.797  0.00  0.00    +0.000 C 
ATOM     17  O   UNL     1       1.182   7.917  21.940  0.00  0.00    +0.000 OA
BRANCH   7  19
ATOM     18  O   UNL     1       0.277  14.272  18.541  0.00  0.00    +0.000 OA
ATOM     19  C   UNL     1      -0.216  13.176  18.342  0.00  0.00    +0.000 C 
BRANCH  19  20
ATOM     20  O   UNL     1      -1.204  12.956  17.454  0.00  0.00    +0.000 OA
ATOM     21  H   UNL     1      -0.926  12.675  16.563  0.00  0.00    +0.000 HD
ENDBRANCH  19  20
ENDBRANCH   7  19
ENDBRANCH   1  15
BRANCH   5  22
ATOM     22  C   UNL     1       5.878   4.753  19.060  0.00  0.00    +0.000 C 
ATOM     23  O   UNL     1       6.766   5.157  19.794  0.00  0.00    +0.000 OA
BRANCH  22  24
ATOM     24  O   UNL     1       6.066   4.159  17.856  0.00  0.00    +0.000 OA
BRANCH  24  25
ATOM     25  C   UNL     1       7.226   4.631  17.162  0.00  0.00    +0.000 C 
BRANCH  25  26
ATOM     26  C   UNL     1       6.769   5.516  16.004  0.00  0.00    +0.000 C 
ATOM     27  O   UNL     1       6.375   6.672  16.164  0.00  0.00    +0.000 OA
BRANCH  26  28
ATOM     28  C   UNL     1       6.738   4.935  14.637  0.00  0.00    +0.000 A 
ATOM     29  C   UNL     1       5.728   4.010  14.339  0.00  0.00    +0.000 A 
ATOM     30  C   UNL     1       5.656   3.433  13.071  0.00  0.00    +0.000 A 
ATOM     31  C   UNL     1       6.585   3.784  12.095  0.00  0.00    +0.000 A 
ATOM     32  C   UNL     1       7.586   4.713  12.383  0.00  0.00    +0.000 A 
ATOM     33  C   UNL     1       7.667   5.289  13.654  0.00  0.00    +0.000 A 
ENDBRANCH  26  28
ENDBRANCH  25  26
ENDBRANCH  24  25
ENDBRANCH  22  24
ENDBRANCH   5  22
TORSDOF 8
ENDMDL
MODEL 4
REMARK VINA RESULT:      -8.7      0.765      1.855
REMARK  Name = 
REMARK  8 active torsions:
REMARK  status: ('A' for Active; 'I' for Inactive)
REMARK    1  A    between atoms: C_2  and  O_3
REMARK    2  A    between atoms: C_2  and  C_4
REMARK    3  A    between atoms: N_12  and  C_13
REMARK    4  A    between atoms: C_17  and  C_18
REMARK    5  A    between atoms: C_18  and  O_20
REMARK    6  A    between atoms: O_20  and  C_21
REMARK    7  A    between atoms: C_21  and  C_22
REMARK    8  A    between atoms: C_22  and  C_24
REMARK                            x       y       z     vdW  Elec       q    Type
REMARK                         _______ _______ _______ _____ _____    ______ ____
ROOT
ATOM      1  C   UNL     1       3.030   5.762  18.255  0.00  0.00    +0.000 A 
ATOM      2  C   UNL     1       2.261   4.673  17.820  0.00  0.00    +0.000 A 
ATOM      3  C   UNL     1       2.855   3.565  17.215  0.00  0.00    +0.000 A 
ATOM      4  C   UNL     1       4.237   3.514  17.066  0.00  0.00    +0.000 A 
ATOM      5  C   UNL     1       5.028   4.584  17.493  0.00  0.00    +0.000 A 
ATOM      6  C   UNL     1       4.421   5.715  18.059  0.00  0.00    +0.000 A 
ENDROOT
BRANCH   1  15
ATOM      7  C   UNL     1       0.519  10.787  20.401  0.00  0.00    +0.000 A 
ATOM      8  C   UNL     1       0.419  10.015  21.584  0.00  0.00    +0.000 A 
ATOM      9  C   UNL     1       0.879   8.696  21.622  0.00  0.00    +0.000 A 
ATOM     10  C   UNL     1       1.422   8.186  20.461  0.00  0.00    +0.000 A 
ATOM     11  C   UNL     1       1.550   8.939  19.312  0.00  0.00    +0.000 A 
ATOM     12  C   UNL     1       1.092  10.241  19.238  0.00  0.00    +0.000 A 
ATOM     13  C   UNL     1       2.213   8.106  18.313  0.00  0.00    +0.000 C 
ATOM     14  O   UNL     1       2.470   8.531  17.203  0.00  0.00    +0.000 OA
ATOM     15  N   UNL     1       2.415   6.868  18.895  0.00  0.00    +0.000 N 
ATOM     16  C   UNL     1       1.943   6.852  20.188  0.00  0.00    +0.000 C 
ATOM     17  O   UNL     1       1.942   5.988  21.046  0.00  0.00    +0.000 OA
BRANCH   7  19
ATOM     18  O   UNL     1       0.395  12.995  19.541  0.00  0.00    +0.000 OA
ATOM     19  C   UNL     1      -0.030  12.164  20.324  0.00  0.00    +0.000 C 
BRANCH  19  20
ATOM     20  O   UNL     1      -1.017  12.411  21.206  0.00  0.00    +0.000 OA
ATOM     21  H   UNL     1      -1.606  13.157  20.993  0.00  0.00    +0.000 HD
ENDBRANCH  19  20
ENDBRANCH   7  19
ENDBRANCH   1  15
BRANCH   5  22
ATOM     22  C   UNL     1       6.506   4.417  17.434  0.00  0.00    +0.000 C 
ATOM     23  O   UNL     1       7.237   4.545  18.405  0.00  0.00    +0.000 OA
BRANCH  22  24
ATOM     24  O   UNL     1       6.924   4.224  16.159  0.00  0.00    +0.000 OA
BRANCH  24  25
ATOM     25  C   UNL     1       6.566   5.291  15.273  0.00  0.00    +0.000 C 
BRANCH  25  26
ATOM     26  C   UNL     1       7.226   5.035  13.919  0.00  0.00    +0.000 C 
ATOM     27  O   UNL     1       8.235   5.635  13.546  0.00  0.00    +0.000 OA
BRANCH  26  28
ATOM     28  C   UNL     1       6.585   4.070  12.989  0.00  0.00    +0.000 A 
ATOM     29  C   UNL     1       5.185   4.043  12.934  0.00  0.00    +0.000 A 
ATOM     30  C   UNL     1       4.533   3.153  12.079  0.00  0.00    +0.000 A 
ATOM     31  C   UNL     1       5.277   2.296  11.271  0.00  0.00    +0.000 A 
ATOM     32  C   UNL     1       6.671   2.328  11.314  0.00  0.00    +0.000 A 
ATOM     33  C   UNL     1       7.329   3.212  12.173  0.00  0.00    +0.000 A 
ENDBRANCH  26  28
ENDBRANCH  25  26
ENDBRANCH  24  25
ENDBRANCH  22  24
ENDBRANCH   5  22
TORSDOF 8
ENDMDL
MODEL 5
REMARK VINA RESULT:      -8.6      2.165      2.873
REMARK  Name = 
REMARK  8 active torsions:
REMARK  status: ('A' for Active; 'I' for Inactive)
REMARK    1  A    between atoms: C_2  and  O_3
REMARK    2  A    between atoms: C_2  and  C_4
REMARK    3  A    between atoms: N_12  and  C_13
REMARK    4  A    between atoms: C_17  and  C_18
REMARK    5  A    between atoms: C_18  and  O_20
REMARK    6  A    between atoms: O_20  and  C_21
REMARK    7  A    between atoms: C_21  and  C_22
REMARK    8  A    between atoms: C_22  and  C_24
REMARK                            x       y       z     vdW  Elec       q    Type
REMARK                         _______ _______ _______ _____ _____    ______ ____
ROOT
ATOM      1  C   UNL     1       2.336   6.772  18.830  0.00  0.00    +0.000 A 
ATOM      2  C   UNL     1       1.555   5.891  18.069  0.00  0.00    +0.000 A 
ATOM      3  C   UNL     1       2.033   4.631  17.707  0.00  0.00    +0.000 A 
ATOM      4  C   UNL     1       3.292   4.219  18.131  0.00  0.00    +0.000 A 
ATOM      5  C   UNL     1       4.090   5.076  18.893  0.00  0.00    +0.000 A 
ATOM      6  C   UNL     1       3.622   6.359  19.216  0.00  0.00    +0.000 A 
ENDROOT
BRANCH   1  15
ATOM      7  C   UNL     1       0.055  11.867  21.068  0.00  0.00    +0.000 A 
ATOM      8  C   UNL     1       0.275  12.332  19.749  0.00  0.00    +0.000 A 
ATOM      9  C   UNL     1       0.827  11.494  18.776  0.00  0.00    +0.000 A 
ATOM     10  C   UNL     1       1.150  10.209  19.161  0.00  0.00    +0.000 A 
ATOM     11  C   UNL     1       0.912   9.739  20.435  0.00  0.00    +0.000 A 
ATOM     12  C   UNL     1       0.381  10.546  21.424  0.00  0.00    +0.000 A 
ATOM     13  C   UNL     1       1.317   8.337  20.468  0.00  0.00    +0.000 C 
ATOM     14  O   UNL     1       1.197   7.665  21.475  0.00  0.00    +0.000 OA
ATOM     15  N   UNL     1       1.825   8.038  19.217  0.00  0.00    +0.000 N 
ATOM     16  C   UNL     1       1.764   9.136  18.389  0.00  0.00    +0.000 C 
ATOM     17  O   UNL     1       2.078   9.298  17.224  0.00  0.00    +0.000 OA
BRANCH   7  19
ATOM     18  O   UNL     1      -1.552  12.602  22.652  0.00  0.00    +0.000 OA
ATOM     19  C   UNL     1      -0.463  12.764  22.131  0.00  0.00    +0.000 C 
BRANCH  19  20
ATOM     20  O   UNL     1       0.367  13.777  22.446  0.00  0.00    +0.000 OA
ATOM     21  H   UNL     1       1.141  13.893  21.865  0.00  0.00    +0.000 HD
ENDBRANCH  19  20
ENDBRANCH   7  19
ENDBRANCH   1  15
BRANCH   5  22
ATOM     22  C   UNL     1       5.367   4.533  19.434  0.00  0.00    +0.000 C 
ATOM     23  O   UNL     1       5.602   3.338  19.530  0.00  0.00    +0.000 OA
BRANCH  22  24
ATOM     24  O   UNL     1       6.161   5.528  19.900  0.00  0.00    +0.000 OA
BRANCH  24  25
ATOM     25  C   UNL     1       7.490   5.493  19.368  0.00  0.00    +0.000 C 
BRANCH  25  26
ATOM     26  C   UNL     1       7.517   6.316  18.082  0.00  0.00    +0.000 C 
ATOM     27  O   UNL     1       8.023   7.437  18.018  0.00  0.00    +0.000 OA
BRANCH  26  28
ATOM     28  C   UNL     1       6.848   5.766  16.875  0.00  0.00    +0.000 A 
ATOM     29  C   UNL     1       5.831   6.528  16.283  0.00  0.00    +0.000 A 
ATOM     30  C   UNL     1       5.169   6.055  15.150  0.00  0.00    +0.000 A 
ATOM     31  C   UNL     1       5.526   4.827  14.599  0.00  0.00    +0.000 A 
ATOM     32  C   UNL     1       6.546   4.070  15.177  0.00  0.00    +0.000 A 
ATOM     33  C   UNL     1       7.208   4.535  16.316  0.00  0.00    +0.000 A 
ENDBRANCH  26  28
ENDBRANCH  25  26
ENDBRANCH  24  25
ENDBRANCH  22  24
ENDBRANCH   5  22
TORSDOF 8
ENDMDL
MODEL 6
REMARK VINA RESULT:      -8.6      0.986      1.197
REMARK  Name = 
REMARK  8 active torsions:
REMARK  status: ('A' for Active; 'I' for Inactive)
REMARK    1  A    between atoms: C_2  and  O_3
REMARK    2  A    between atoms: C_2  and  C_4
REMARK    3  A    between atoms: N_12  and  C_13
REMARK    4  A    between atoms: C_17  and  C_18
REMARK    5  A    between atoms: C_18  and  O_20
REMARK    6  A    between atoms: O_20  and  C_21
REMARK    7  A    between atoms: C_21  and  C_22
REMARK    8  A    between atoms: C_22  and  C_24
REMARK                            x       y       z     vdW  Elec       q    Type
REMARK                         _______ _______ _______ _____ _____    ______ ____
ROOT
ATOM      1  C   UNL     1       2.776   6.776  18.285  0.00  0.00    +0.000 A 
ATOM      2  C   UNL     1       2.207   5.497  18.194  0.00  0.00    +0.000 A 
ATOM      3  C   UNL     1       2.899   4.438  17.606  0.00  0.00    +0.000 A 
ATOM      4  C   UNL     1       4.191   4.635  17.128  0.00  0.00    +0.000 A 
ATOM      5  C   UNL     1       4.784   5.899  17.209  0.00  0.00    +0.000 A 
ATOM      6  C   UNL     1       4.064   6.970  17.760  0.00  0.00    +0.000 A 
ENDROOT
BRANCH   1  15
ATOM      7  C   UNL     1      -0.253  10.870  21.483  0.00  0.00    +0.000 A 
ATOM      8  C   UNL     1      -0.167  11.610  20.279  0.00  0.00    +0.000 A 
ATOM      9  C   UNL     1       0.481  11.082  19.158  0.00  0.00    +0.000 A 
ATOM     10  C   UNL     1       1.033   9.824  19.284  0.00  0.00    +0.000 A 
ATOM     11  C   UNL     1       0.929   9.086  20.444  0.00  0.00    +0.000 A 
ATOM     12  C   UNL     1       0.308   9.583  21.574  0.00  0.00    +0.000 A 
ATOM     13  C   UNL     1       1.570   7.796  20.201  0.00  0.00    +0.000 C 
ATOM     14  O   UNL     1       1.606   6.935  21.059  0.00  0.00    +0.000 OA
ATOM     15  N   UNL     1       2.071   7.835  18.913  0.00  0.00    +0.000 N 
ATOM     16  C   UNL     1       1.791   9.043  18.315  0.00  0.00    +0.000 C 
ATOM     17  O   UNL     1       2.027   9.476  17.202  0.00  0.00    +0.000 OA
BRANCH   7  19
ATOM     18  O   UNL     1      -1.736  10.859  23.336  0.00  0.00    +0.000 OA
ATOM     19  C   UNL     1      -0.875  11.444  22.703  0.00  0.00    +0.000 C 
BRANCH  19  20
ATOM     20  O   UNL     1      -0.416  12.668  23.028  0.00  0.00    +0.000 OA
ATOM     21  H   UNL     1      -0.432  13.334  22.318  0.00  0.00    +0.000 HD
ENDBRANCH  19  20
ENDBRANCH   7  19
ENDBRANCH   1  15
BRANCH   5  22
ATOM     22  C   UNL     1       6.212   6.018  16.809  0.00  0.00    +0.000 C 
ATOM     23  O   UNL     1       7.110   6.288  17.592  0.00  0.00    +0.000 OA
BRANCH  22  24
ATOM     24  O   UNL     1       6.353   5.903  15.465  0.00  0.00    +0.000 OA
BRANCH  24  25
ATOM     25  C   UNL     1       7.094   4.744  15.066  0.00  0.00    +0.000 C 
BRANCH  25  26
ATOM     26  C   UNL     1       7.313   4.809  13.555  0.00  0.00    +0.000 C 
ATOM     27  O   UNL     1       8.054   5.638  13.024  0.00  0.00    +0.000 OA
BRANCH  26  28
ATOM     28  C   UNL     1       6.551   3.874  12.688  0.00  0.00    +0.000 A 
ATOM     29  C   UNL     1       5.154   3.987  12.671  0.00  0.00    +0.000 A 
ATOM     30  C   UNL     1       4.390   3.132  11.875  0.00  0.00    +0.000 A 
ATOM     31  C   UNL     1       5.019   2.170  11.089  0.00  0.00    +0.000 A 
ATOM     32  C   UNL     1       6.410   2.062  11.093  0.00  0.00    +0.000 A 
ATOM     33  C   UNL     1       7.179   2.911  11.894  0.00  0.00    +0.000 A 
ENDBRANCH  26  28
ENDBRANCH  25  26
ENDBRANCH  24  25
ENDBRANCH  22  24
ENDBRANCH   5  22
TORSDOF 8
ENDMDL
MODEL 7
REMARK VINA RESULT:      -8.4      3.173      4.974
REMARK  Name = 
REMARK  8 active torsions:
REMARK  status: ('A' for Active; 'I' for Inactive)
REMARK    1  A    between atoms: C_2  and  O_3
REMARK    2  A    between atoms: C_2  and  C_4
REMARK    3  A    between atoms: N_12  and  C_13
REMARK    4  A    between atoms: C_17  and  C_18
REMARK    5  A    between atoms: C_18  and  O_20
REMARK    6  A    between atoms: O_20  and  C_21
REMARK    7  A    between atoms: C_21  and  C_22
REMARK    8  A    between atoms: C_22  and  C_24
REMARK                            x       y       z     vdW  Elec       q    Type
REMARK                         _______ _______ _______ _____ _____    ______ ____
ROOT
ATOM      1  C   UNL     1       1.308   8.827  19.633  0.00  0.00    +0.000 A 
ATOM      2  C   UNL     1       2.014   9.039  18.440  0.00  0.00    +0.000 A 
ATOM      3  C   UNL     1       2.798   8.032  17.875  0.00  0.00    +0.000 A 
ATOM      4  C   UNL     1       2.860   6.781  18.480  0.00  0.00    +0.000 A 
ATOM      5  C   UNL     1       2.164   6.541  19.668  0.00  0.00    +0.000 A 
ATOM      6  C   UNL     1       1.415   7.572  20.255  0.00  0.00    +0.000 A 
ENDROOT
BRANCH   1  15
ATOM      7  C   UNL     1      -1.799  13.098  22.509  0.00  0.00    +0.000 A 
ATOM      8  C   UNL     1      -2.534  13.124  21.298  0.00  0.00    +0.000 A 
ATOM      9  C   UNL     1      -2.198  12.279  20.237  0.00  0.00    +0.000 A 
ATOM     10  C   UNL     1      -1.123  11.434  20.420  0.00  0.00    +0.000 A 
ATOM     11  C   UNL     1      -0.420  11.381  21.605  0.00  0.00    +0.000 A 
ATOM     12  C   UNL     1      -0.717  12.213  22.669  0.00  0.00    +0.000 A 
ATOM     13  C   UNL     1       0.600  10.346  21.465  0.00  0.00    +0.000 C 
ATOM     14  O   UNL     1       1.357  10.074  22.377  0.00  0.00    +0.000 OA
ATOM     15  N   UNL     1       0.491   9.850  20.179  0.00  0.00    +0.000 N 
ATOM     16  C   UNL     1      -0.523  10.482  19.495  0.00  0.00    +0.000 C 
ATOM     17  O   UNL     1      -0.961  10.337  18.368  0.00  0.00    +0.000 OA
BRANCH   7  19
ATOM     18  O   UNL     1      -3.234  14.359  23.915  0.00  0.00    +0.000 OA
ATOM     19  C   UNL     1      -2.098  14.037  23.618  0.00  0.00    +0.000 C 
BRANCH  19  20
ATOM     20  O   UNL     1      -1.004  14.511  24.245  0.00  0.00    +0.000 OA
ATOM     21  H   UNL     1      -1.153  15.231  24.883  0.00  0.00    +0.000 HD
ENDBRANCH  19  20
ENDBRANCH   7  19
ENDBRANCH   1  15
BRANCH   5  22
ATOM     22  C   UNL     1       2.157   5.149  20.195  0.00  0.00    +0.000 C 
ATOM     23  O   UNL     1       2.377   4.870  21.363  0.00  0.00    +0.000 OA
BRANCH  22  24
ATOM     24  O   UNL     1       1.990   4.250  19.193  0.00  0.00    +0.000 OA
BRANCH  24  25
ATOM     25  C   UNL     1       2.455   2.936  19.521  0.00  0.00    +0.000 C 
BRANCH  25  26
ATOM     26  C   UNL     1       3.518   2.532  18.502  0.00  0.00    +0.000 C 
ATOM     27  O   UNL     1       3.667   1.371  18.118  0.00  0.00    +0.000 OA
BRANCH  26  28
ATOM     28  C   UNL     1       4.453   3.574  18.002  0.00  0.00    +0.000 A 
ATOM     29  C   UNL     1       4.345   3.964  16.660  0.00  0.00    +0.000 A 
ATOM     30  C   UNL     1       5.200   4.936  16.141  0.00  0.00    +0.000 A 
ATOM     31  C   UNL     1       6.158   5.528  16.961  0.00  0.00    +0.000 A 
ATOM     32  C   UNL     1       6.261   5.152  18.300  0.00  0.00    +0.000 A 
ATOM     33  C   UNL     1       5.412   4.173  18.824  0.00  0.00    +0.000 A 
ENDBRANCH  26  28
ENDBRANCH  25  26
ENDBRANCH  24  25
ENDBRANCH  22  24
ENDBRANCH   5  22
TORSDOF 8
ENDMDL
MODEL 8
REMARK VINA RESULT:      -8.3      3.117      5.300
REMARK  Name = 
REMARK  8 active torsions:
REMARK  status: ('A' for Active; 'I' for Inactive)
REMARK    1  A    between atoms: C_2  and  O_3
REMARK    2  A    between atoms: C_2  and  C_4
REMARK    3  A    between atoms: N_12  and  C_13
REMARK    4  A    between atoms: C_17  and  C_18
REMARK    5  A    between atoms: C_18  and  O_20
REMARK    6  A    between atoms: O_20  and  C_21
REMARK    7  A    between atoms: C_21  and  C_22
REMARK    8  A    between atoms: C_22  and  C_24
REMARK                            x       y       z     vdW  Elec       q    Type
REMARK                         _______ _______ _______ _____ _____    ______ ____
ROOT
ATOM      1  C   UNL     1       1.226   9.000  19.562  0.00  0.00    +0.000 A 
ATOM      2  C   UNL     1       1.890   9.258  18.355  0.00  0.00    +0.000 A 
ATOM      3  C   UNL     1       2.709   8.297  17.761  0.00  0.00    +0.000 A 
ATOM      4  C   UNL     1       2.850   7.046  18.352  0.00  0.00    +0.000 A 
ATOM      5  C   UNL     1       2.197   6.760  19.555  0.00  0.00    +0.000 A 
ATOM      6  C   UNL     1       1.411   7.747  20.170  0.00  0.00    +0.000 A 
ENDROOT
BRANCH   1  15
ATOM      7  C   UNL     1      -2.706  13.157  21.413  0.00  0.00    +0.000 A 
ATOM      8  C   UNL     1      -1.939  13.092  22.602  0.00  0.00    +0.000 A 
ATOM      9  C   UNL     1      -0.847  12.227  22.704  0.00  0.00    +0.000 A 
ATOM     10  C   UNL     1      -0.560  11.442  21.606  0.00  0.00    +0.000 A 
ATOM     11  C   UNL     1      -1.284  11.519  20.435  0.00  0.00    +0.000 A 
ATOM     12  C   UNL     1      -2.378  12.354  20.306  0.00  0.00    +0.000 A 
ATOM     13  C   UNL     1      -0.671  10.600  19.480  0.00  0.00    +0.000 C 
ATOM     14  O   UNL     1      -1.102  10.482  18.348  0.00  0.00    +0.000 OA
ATOM     15  N   UNL     1       0.372   9.976  20.138  0.00  0.00    +0.000 N 
ATOM     16  C   UNL     1       0.477  10.433  21.433  0.00  0.00    +0.000 C 
ATOM     17  O   UNL     1       1.256  10.169  22.330  0.00  0.00    +0.000 OA
BRANCH   7  19
ATOM     18  O   UNL     1      -4.767  14.049  22.179  0.00  0.00    +0.000 OA
ATOM     19  C   UNL     1      -3.911  14.018  21.313  0.00  0.00    +0.000 C 
BRANCH  19  20
ATOM     20  O   UNL     1      -3.977  14.739  20.177  0.00  0.00    +0.000 OA
ATOM     21  H   UNL     1      -4.809  14.672  19.675  0.00  0.00    +0.000 HD
ENDBRANCH  19  20
ENDBRANCH   7  19
ENDBRANCH   1  15
BRANCH   5  22
ATOM     22  C   UNL     1       2.273   5.365  20.068  0.00  0.00    +0.000 C 
ATOM     23  O   UNL     1       2.295   5.086  21.257  0.00  0.00    +0.000 OA
BRANCH  22  24
ATOM     24  O   UNL     1       2.427   4.481  19.053  0.00  0.00    +0.000 OA
BRANCH  24  25
ATOM     25  C   UNL     1       2.886   3.194  19.481  0.00  0.00    +0.000 C 
BRANCH  25  26
ATOM     26  C   UNL     1       4.409   3.163  19.372  0.00  0.00    +0.000 C 
ATOM     27  O   UNL     1       5.112   2.420  20.058  0.00  0.00    +0.000 OA
BRANCH  26  28
ATOM     28  C   UNL     1       5.072   4.116  18.444  0.00  0.00    +0.000 A 
ATOM     29  C   UNL     1       4.824   3.976  17.072  0.00  0.00    +0.000 A 
ATOM     30  C   UNL     1       5.424   4.843  16.158  0.00  0.00    +0.000 A 
ATOM     31  C   UNL     1       6.263   5.858  16.612  0.00  0.00    +0.000 A 
ATOM     32  C   UNL     1       6.504   6.009  17.978  0.00  0.00    +0.000 A 
ATOM     33  C   UNL     1       5.911   5.138  18.897  0.00  0.00    +0.000 A 
ENDBRANCH  26  28
ENDBRANCH  25  26
ENDBRANCH  24  25
ENDBRANCH  22  24
ENDBRANCH   5  22
TORSDOF 8
ENDMDL
MODEL 9
REMARK VINA RESULT:      -8.3      2.527      4.812
REMARK  Name = 
REMARK  8 active torsions:
REMARK  status: ('A' for Active; 'I' for Inactive)
REMARK    1  A    between atoms: C_2  and  O_3
REMARK    2  A    between atoms: C_2  and  C_4
REMARK    3  A    between atoms: N_12  and  C_13
REMARK    4  A    between atoms: C_17  and  C_18
REMARK    5  A    between atoms: C_18  and  O_20
REMARK    6  A    between atoms: O_20  and  C_21
REMARK    7  A    between atoms: C_21  and  C_22
REMARK    8  A    between atoms: C_22  and  C_24
REMARK                            x       y       z     vdW  Elec       q    Type
REMARK                         _______ _______ _______ _____ _____    ______ ____
ROOT
ATOM      1  C   UNL     1       1.310   9.093  19.353  0.00  0.00    +0.000 A 
ATOM      2  C   UNL     1       1.975   9.408  18.159  0.00  0.00    +0.000 A 
ATOM      3  C   UNL     1       2.820   8.486  17.539  0.00  0.00    +0.000 A 
ATOM      4  C   UNL     1       2.985   7.219  18.087  0.00  0.00    +0.000 A 
ATOM      5  C   UNL     1       2.331   6.877  19.275  0.00  0.00    +0.000 A 
ATOM      6  C   UNL     1       1.520   7.824  19.917  0.00  0.00    +0.000 A 
ENDROOT
BRANCH   1  15
ATOM      7  C   UNL     1      -2.736  13.082  21.324  0.00  0.00    +0.000 A 
ATOM      8  C   UNL     1      -1.955  13.019  22.504  0.00  0.00    +0.000 A 
ATOM      9  C   UNL     1      -0.834  12.188  22.578  0.00  0.00    +0.000 A 
ATOM     10  C   UNL     1      -0.533  11.434  21.462  0.00  0.00    +0.000 A 
ATOM     11  C   UNL     1      -1.271  11.511  20.300  0.00  0.00    +0.000 A 
ATOM     12  C   UNL     1      -2.393  12.312  20.198  0.00  0.00    +0.000 A 
ATOM     13  C   UNL     1      -0.639  10.632  19.321  0.00  0.00    +0.000 C 
ATOM     14  O   UNL     1      -1.077  10.521  18.191  0.00  0.00    +0.000 OA
ATOM     15  N   UNL     1       0.431  10.029  19.956  0.00  0.00    +0.000 N 
ATOM     16  C   UNL     1       0.535  10.464  21.258  0.00  0.00    +0.000 C 
ATOM     17  O   UNL     1       1.331  10.208  22.143  0.00  0.00    +0.000 OA
BRANCH   7  19
ATOM     18  O   UNL     1      -4.901  13.755  22.023  0.00  0.00    +0.000 OA
ATOM     19  C   UNL     1      -3.969  13.905  21.253  0.00  0.00    +0.000 C 
BRANCH  19  20
ATOM     20  O   UNL     1      -3.968  14.809  20.255  0.00  0.00    +0.000 OA
ATOM     21  H   UNL     1      -3.274  15.491  20.295  0.00  0.00    +0.000 HD
ENDBRANCH  19  20
ENDBRANCH   7  19
ENDBRANCH   1  15
BRANCH   5  22
ATOM     22  C   UNL     1       2.436   5.467  19.740  0.00  0.00    +0.000 C 
ATOM     23  O   UNL     1       1.482   4.707  19.801  0.00  0.00    +0.000 OA
BRANCH  22  24
ATOM     24  O   UNL     1       3.687   5.193  20.185  0.00  0.00    +0.000 OA
BRANCH  24  25
ATOM     25  C   UNL     1       4.318   4.116  19.484  0.00  0.00    +0.000 C 
BRANCH  25  26
ATOM     26  C   UNL     1       5.675   4.600  18.977  0.00  0.00    +0.000 C 
ATOM     27  O   UNL     1       6.549   5.040  19.726  0.00  0.00    +0.000 OA
BRANCH  26  28
ATOM     28  C   UNL     1       5.926   4.600  17.512  0.00  0.00    +0.000 A 
ATOM     29  C   UNL     1       4.833   4.394  16.659  0.00  0.00    +0.000 A 
ATOM     30  C   UNL     1       5.014   4.381  15.276  0.00  0.00    +0.000 A 
ATOM     31  C   UNL     1       6.284   4.585  14.741  0.00  0.00    +0.000 A 
ATOM     32  C   UNL     1       7.373   4.802  15.585  0.00  0.00    +0.000 A 
ATOM     33  C   UNL     1       7.198   4.808  16.972  0.00  0.00    +0.000 A 
ENDBRANCH  26  28
ENDBRANCH  25  26
ENDBRANCH  24  25
ENDBRANCH  22  24
ENDBRANCH   5  22
TORSDOF 8
ENDMDL
