MODEL 1
REMARK VINA RESULT:      -7.8      0.000      0.000
REMARK  Name = 
REMARK  10 active torsions:
REMARK  status: ('A' for Active; 'I' for Inactive)
REMARK    1  A    between atoms: C_1  and  C_2
REMARK    2  A    between atoms: C_4  and  C_5
REMARK    3  A    between atoms: C_5  and  C_6
REMARK    4  A    between atoms: C_5  and  N_7
REMARK    5  A    between atoms: C_5  and  C_25
REMARK    6  A    between atoms: C_8  and  C_10
REMARK    7  A    between atoms: C_12  and  O_13
REMARK    8  A    between atoms: O_13  and  C_14
REMARK    9  A    between atoms: C_14  and  C_15
REMARK   10  A    between atoms: C_19  and  C_20
REMARK                            x       y       z     vdW  Elec       q    Type
REMARK                         _______ _______ _______ _____ _____    ______ ____
ROOT
ATOM      1  N   UNL     1       1.396   9.109  19.571  0.00  0.00    +0.000 N 
ATOM      2  C   UNL     1       1.611   8.717  18.267  0.00  0.00    +0.000 C 
ATOM      3  O   UNL     1       1.073   9.229  17.289  0.00  0.00    +0.000 OA
ATOM      4  H   UNL     1       2.055   8.752  20.255  0.00  0.00    +0.000 HD
ENDROOT
BRANCH   2   5
ATOM      5  C   UNL     1       2.567   7.576  18.074  0.00  0.00    +0.000 A 
ATOM      6  C   UNL     1       2.201   6.309  18.511  0.00  0.00    +0.000 A 
ATOM      7  C   UNL     1       3.100   5.260  18.333  0.00  0.00    +0.000 A 
ATOM      8  C   UNL     1       4.355   5.489  17.735  0.00  0.00    +0.000 A 
ATOM      9  C   UNL     1       4.606   6.809  17.339  0.00  0.00    +0.000 A 
ATOM     10  N   UNL     1       3.759   7.859  17.490  0.00  0.00    +0.000 NA
BRANCH   8  11
ATOM     11  C   UNL     1       5.358   4.385  17.456  0.00  0.00    +0.000 C 
ATOM     12  C   UNL     1       5.498   3.782  16.074  0.00  0.00    +0.000 C 
ATOM     13  C   UNL     1       6.589   4.651  16.616  0.00  0.00    +0.000 C 
ENDBRANCH   8  11
BRANCH   7  14
ATOM     14  O   UNL     1       2.810   3.953  18.629  0.00  0.00    +0.000 OA
BRANCH  14  15
ATOM     15  C   UNL     1       2.710   3.578  20.010  0.00  0.00    +0.000 C 
BRANCH  15  16
ATOM     16  C   UNL     1       1.255   3.282  20.377  0.00  0.00    +0.000 C 
ATOM     17  F   UNL     1       1.136   2.564  21.514  0.00  0.00    +0.000 F 
ATOM     18  F   UNL     1       0.553   4.427  20.546  0.00  0.00    +0.000 F 
ATOM     19  F   UNL     1       0.645   2.580  19.392  0.00  0.00    +0.000 F 
ENDBRANCH  15  16
ENDBRANCH  14  15
ENDBRANCH   7  14
ENDBRANCH   2   5
BRANCH   1  20
ATOM     20  C   UNL     1       0.512  10.225  19.959  0.00  0.00    +0.000 C 
ATOM     21  C   UNL     1      -0.717  10.277  19.003  0.00  0.00    +0.000 C 
BRANCH  20  25
ATOM     22  C   UNL     1       3.255  14.067  18.305  0.00  0.00    +0.000 C 
ATOM     23  C   UNL     1       2.443  13.107  19.078  0.00  0.00    +0.000 A 
ATOM     24  N   UNL     1       1.732  12.087  18.682  0.00  0.00    +0.000 NA
ATOM     25  C   UNL     1       1.301  11.533  19.875  0.00  0.00    +0.000 A 
ATOM     26  N   UNL     1       1.679  12.231  20.964  0.00  0.00    +0.000 NA
ATOM     27  O   UNL     1       2.438  13.274  20.433  0.00  0.00    +0.000 OA
ENDBRANCH  20  25
BRANCH  20  28
ATOM     28  C   UNL     1      -0.081   9.870  21.341  0.00  0.00    +0.000 C 
ATOM     29  C   UNL     1      -0.423   8.481  21.835  0.00  0.00    +0.000 C 
ATOM     30  C   UNL     1       0.745   9.218  22.431  0.00  0.00    +0.000 C 
ENDBRANCH  20  28
ENDBRANCH   1  20
TORSDOF 8
ENDMDL
MODEL 2
REMARK VINA RESULT:      -7.7      0.945      1.162
REMARK  Name = 
REMARK  10 active torsions:
REMARK  status: ('A' for Active; 'I' for Inactive)
REMARK    1  A    between atoms: C_1  and  C_2
REMARK    2  A    between atoms: C_4  and  C_5
REMARK    3  A    between atoms: C_5  and  C_6
REMARK    4  A    between atoms: C_5  and  N_7
REMARK    5  A    between atoms: C_5  and  C_25
REMARK    6  A    between atoms: C_8  and  C_10
REMARK    7  A    between atoms: C_12  and  O_13
REMARK    8  A    between atoms: O_13  and  C_14
REMARK    9  A    between atoms: C_14  and  C_15
REMARK   10  A    between atoms: C_19  and  C_20
REMARK                            x       y       z     vdW  Elec       q    Type
REMARK                         _______ _______ _______ _____ _____    ______ ____
ROOT
ATOM      1  N   UNL     1       1.259   9.253  19.930  0.00  0.00    +0.000 N 
ATOM      2  C   UNL     1       1.513   8.892  18.623  0.00  0.00    +0.000 C 
ATOM      3  O   UNL     1       1.018   9.439  17.642  0.00  0.00    +0.000 OA
ATOM      4  H   UNL     1       1.889   8.866  20.626  0.00  0.00    +0.000 HD
ENDROOT
BRANCH   2   5
ATOM      5  C   UNL     1       2.458   7.741  18.432  0.00  0.00    +0.000 A 
ATOM      6  C   UNL     1       2.304   6.606  19.219  0.00  0.00    +0.000 A 
ATOM      7  C   UNL     1       3.192   5.548  19.037  0.00  0.00    +0.000 A 
ATOM      8  C   UNL     1       4.226   5.639  18.084  0.00  0.00    +0.000 A 
ATOM      9  C   UNL     1       4.276   6.834  17.357  0.00  0.00    +0.000 A 
ATOM     10  N   UNL     1       3.431   7.887  17.499  0.00  0.00    +0.000 NA
BRANCH   8  11
ATOM     11  C   UNL     1       5.191   4.504  17.792  0.00  0.00    +0.000 C 
ATOM     12  C   UNL     1       5.123   3.733  16.491  0.00  0.00    +0.000 C 
ATOM     13  C   UNL     1       6.271   4.658  16.745  0.00  0.00    +0.000 C 
ENDBRANCH   8  11
BRANCH   7  14
ATOM     14  O   UNL     1       3.077   4.342  19.680  0.00  0.00    +0.000 OA
BRANCH  14  15
ATOM     15  C   UNL     1       1.773   3.753  19.785  0.00  0.00    +0.000 C 
BRANCH  15  16
ATOM     16  C   UNL     1       1.384   3.086  18.465  0.00  0.00    +0.000 C 
ATOM     17  F   UNL     1       2.401   2.397  17.904  0.00  0.00    +0.000 F 
ATOM     18  F   UNL     1       0.359   2.220  18.641  0.00  0.00    +0.000 F 
ATOM     19  F   UNL     1       0.977   4.009  17.561  0.00  0.00    +0.000 F 
ENDBRANCH  15  16
ENDBRANCH  14  15
ENDBRANCH   7  14
ENDBRANCH   2   5
BRANCH   1  20
ATOM     20  C   UNL     1       0.379  10.372  20.318  0.00  0.00    +0.000 C 
ATOM     21  C   UNL     1      -0.876  10.396  19.396  0.00  0.00    +0.000 C 
BRANCH  20  25
ATOM     22  C   UNL     1       3.003  14.220  18.491  0.00  0.00    +0.000 C 
ATOM     23  C   UNL     1       2.244  13.258  19.314  0.00  0.00    +0.000 A 
ATOM     24  N   UNL     1       1.511  12.235  18.965  0.00  0.00    +0.000 NA
ATOM     25  C   UNL     1       1.159  11.682  20.183  0.00  0.00    +0.000 A 
ATOM     26  N   UNL     1       1.602  12.382  21.246  0.00  0.00    +0.000 NA
ATOM     27  O   UNL     1       2.324  13.426  20.667  0.00  0.00    +0.000 OA
ENDBRANCH  20  25
BRANCH  20  28
ATOM     28  C   UNL     1      -0.172  10.044  21.724  0.00  0.00    +0.000 C 
ATOM     29  C   UNL     1      -0.567   8.674  22.231  0.00  0.00    +0.000 C 
ATOM     30  C   UNL     1       0.663   9.345  22.776  0.00  0.00    +0.000 C 
ENDBRANCH  20  28
ENDBRANCH   1  20
TORSDOF 8
ENDMDL
MODEL 3
REMARK VINA RESULT:      -7.7      1.213      1.493
REMARK  Name = 
REMARK  10 active torsions:
REMARK  status: ('A' for Active; 'I' for Inactive)
REMARK    1  A    between atoms: C_1  and  C_2
REMARK    2  A    between atoms: C_4  and  C_5
REMARK    3  A    between atoms: C_5  and  C_6
REMARK    4  A    between atoms: C_5  and  N_7
REMARK    5  A    between atoms: C_5  and  C_25
REMARK    6  A    between atoms: C_8  and  C_10
REMARK    7  A    between atoms: C_12  and  O_13
REMARK    8  A    between atoms: O_13  and  C_14
REMARK    9  A    between atoms: C_14  and  C_15
REMARK   10  A    between atoms: C_19  and  C_20
REMARK                            x       y       z     vdW  Elec       q    Type
REMARK                         _______ _______ _______ _____ _____    ______ ____
ROOT
ATOM      1  N   UNL     1       0.857   9.212  20.057  0.00  0.00    +0.000 N 
ATOM      2  C   UNL     1       1.437   9.135  18.808  0.00  0.00    +0.000 C 
ATOM      3  O   UNL     1       1.236   9.933  17.897  0.00  0.00    +0.000 OA
ATOM      4  H   UNL     1       1.267   8.622  20.772  0.00  0.00    +0.000 HD
ENDROOT
BRANCH   2   5
ATOM      5  C   UNL     1       2.363   7.974  18.586  0.00  0.00    +0.000 A 
ATOM      6  C   UNL     1       2.245   6.853  19.399  0.00  0.00    +0.000 A 
ATOM      7  C   UNL     1       3.115   5.786  19.188  0.00  0.00    +0.000 A 
ATOM      8  C   UNL     1       4.097   5.854  18.179  0.00  0.00    +0.000 A 
ATOM      9  C   UNL     1       4.114   7.036  17.430  0.00  0.00    +0.000 A 
ATOM     10  N   UNL     1       3.285   8.097  17.598  0.00  0.00    +0.000 NA
BRANCH   8  11
ATOM     11  C   UNL     1       5.037   4.708  17.854  0.00  0.00    +0.000 C 
ATOM     12  C   UNL     1       4.762   3.772  16.696  0.00  0.00    +0.000 C 
ATOM     13  C   UNL     1       5.898   4.741  16.611  0.00  0.00    +0.000 C 
ENDBRANCH   8  11
BRANCH   7  14
ATOM     14  O   UNL     1       3.027   4.592  19.856  0.00  0.00    +0.000 OA
BRANCH  14  15
ATOM     15  C   UNL     1       1.730   4.002  20.019  0.00  0.00    +0.000 C 
BRANCH  15  16
ATOM     16  C   UNL     1       1.346   3.209  18.768  0.00  0.00    +0.000 C 
ATOM     17  F   UNL     1       1.077   4.000  17.707  0.00  0.00    +0.000 F 
ATOM     18  F   UNL     1       2.340   2.366  18.403  0.00  0.00    +0.000 F 
ATOM     19  F   UNL     1       0.245   2.455  18.997  0.00  0.00    +0.000 F 
ENDBRANCH  15  16
ENDBRANCH  14  15
ENDBRANCH   7  14
ENDBRANCH   2   5
BRANCH   1  20
ATOM     20  C   UNL     1      -0.059  10.292  20.472  0.00  0.00    +0.000 C 
ATOM     21  C   UNL     1      -1.228  10.410  19.449  0.00  0.00    +0.000 C 
BRANCH  20  25
ATOM     22  C   UNL     1       1.594  14.930  19.585  0.00  0.00    +0.000 C 
ATOM     23  C   UNL     1       1.331  13.568  20.092  0.00  0.00    +0.000 A 
ATOM     24  N   UNL     1       0.345  12.748  19.850  0.00  0.00    +0.000 NA
ATOM     25  C   UNL     1       0.722  11.606  20.534  0.00  0.00    +0.000 A 
ATOM     26  N   UNL     1       1.868  11.744  21.229  0.00  0.00    +0.000 NA
ATOM     27  O   UNL     1       2.272  13.045  20.933  0.00  0.00    +0.000 OA
ENDBRANCH  20  25
BRANCH  20  28
ATOM     28  C   UNL     1      -0.731   9.831  21.785  0.00  0.00    +0.000 C 
ATOM     29  C   UNL     1      -0.028   9.542  23.093  0.00  0.00    +0.000 C 
ATOM     30  C   UNL     1      -0.906  10.757  22.971  0.00  0.00    +0.000 C 
ENDBRANCH  20  28
ENDBRANCH   1  20
TORSDOF 8
ENDMDL
MODEL 4
REMARK VINA RESULT:      -7.6      1.209      1.454
REMARK  Name = 
REMARK  10 active torsions:
REMARK  status: ('A' for Active; 'I' for Inactive)
REMARK    1  A    between atoms: C_1  and  C_2
REMARK    2  A    between atoms: C_4  and  C_5
REMARK    3  A    between atoms: C_5  and  C_6
REMARK    4  A    between atoms: C_5  and  N_7
REMARK    5  A    between atoms: C_5  and  C_25
REMARK    6  A    between atoms: C_8  and  C_10
REMARK    7  A    between atoms: C_12  and  O_13
REMARK    8  A    between atoms: O_13  and  C_14
REMARK    9  A    between atoms: C_14  and  C_15
REMARK   10  A    between atoms: C_19  and  C_20
REMARK                            x       y       z     vdW  Elec       q    Type
REMARK                         _______ _______ _______ _____ _____    ______ ____
ROOT
ATOM      1  N   UNL     1       1.230   9.773  20.351  0.00  0.00    +0.000 N 
ATOM      2  C   UNL     1       1.279   9.343  19.041  0.00  0.00    +0.000 C 
ATOM      3  O   UNL     1       0.661   9.863  18.115  0.00  0.00    +0.000 OA
ATOM      4  H   UNL     1       1.943   9.396  20.966  0.00  0.00    +0.000 HD
ENDROOT
BRANCH   2   5
ATOM      5  C   UNL     1       2.152   8.152  18.773  0.00  0.00    +0.000 A 
ATOM      6  C   UNL     1       2.216   7.138  19.722  0.00  0.00    +0.000 A 
ATOM      7  C   UNL     1       3.036   6.041  19.464  0.00  0.00    +0.000 A 
ATOM      8  C   UNL     1       3.788   5.974  18.274  0.00  0.00    +0.000 A 
ATOM      9  C   UNL     1       3.637   7.058  17.402  0.00  0.00    +0.000 A 
ATOM     10  N   UNL     1       2.849   8.144  17.609  0.00  0.00    +0.000 NA
BRANCH   8  11
ATOM     11  C   UNL     1       4.654   4.785  17.903  0.00  0.00    +0.000 C 
ATOM     12  C   UNL     1       4.062   3.564  17.229  0.00  0.00    +0.000 C 
ATOM     13  C   UNL     1       4.962   4.474  16.454  0.00  0.00    +0.000 C 
ENDBRANCH   8  11
BRANCH   7  14
ATOM     14  O   UNL     1       3.101   4.937  20.274  0.00  0.00    +0.000 OA
BRANCH  14  15
ATOM     15  C   UNL     1       1.955   4.615  21.074  0.00  0.00    +0.000 C 
BRANCH  15  16
ATOM     16  C   UNL     1       1.410   3.238  20.693  0.00  0.00    +0.000 C 
ATOM     17  F   UNL     1       0.436   3.297  19.759  0.00  0.00    +0.000 F 
ATOM     18  F   UNL     1       2.392   2.446  20.202  0.00  0.00    +0.000 F 
ATOM     19  F   UNL     1       0.892   2.609  21.775  0.00  0.00    +0.000 F 
ENDBRANCH  15  16
ENDBRANCH  14  15
ENDBRANCH   7  14
ENDBRANCH   2   5
BRANCH   1  20
ATOM     20  C   UNL     1       0.449  10.939  20.805  0.00  0.00    +0.000 C 
ATOM     21  C   UNL     1      -0.946  10.938  20.113  0.00  0.00    +0.000 C 
BRANCH  20  25
ATOM     22  C   UNL     1       2.306  14.884  18.351  0.00  0.00    +0.000 C 
ATOM     23  C   UNL     1       1.927  13.848  19.333  0.00  0.00    +0.000 A 
ATOM     24  N   UNL     1       1.004  12.926  19.279  0.00  0.00    +0.000 NA
ATOM     25  C   UNL     1       1.215  12.215  20.447  0.00  0.00    +0.000 A 
ATOM     26  N   UNL     1       2.189  12.727  21.225  0.00  0.00    +0.000 NA
ATOM     27  O   UNL     1       2.662  13.808  20.483  0.00  0.00    +0.000 OA
ENDBRANCH  20  25
BRANCH  20  28
ATOM     28  C   UNL     1       0.145  10.720  22.304  0.00  0.00    +0.000 C 
ATOM     29  C   UNL     1      -1.224  10.742  22.949  0.00  0.00    +0.000 C 
ATOM     30  C   UNL     1      -0.480   9.441  22.823  0.00  0.00    +0.000 C 
ENDBRANCH  20  28
ENDBRANCH   1  20
TORSDOF 8
ENDMDL
MODEL 5
REMARK VINA RESULT:      -7.6      2.196      3.381
REMARK  Name = 
REMARK  10 active torsions:
REMARK  status: ('A' for Active; 'I' for Inactive)
REMARK    1  A    between atoms: C_1  and  C_2
REMARK    2  A    between atoms: C_4  and  C_5
REMARK    3  A    between atoms: C_5  and  C_6
REMARK    4  A    between atoms: C_5  and  N_7
REMARK    5  A    between atoms: C_5  and  C_25
REMARK    6  A    between atoms: C_8  and  C_10
REMARK    7  A    between atoms: C_12  and  O_13
REMARK    8  A    between atoms: O_13  and  C_14
REMARK    9  A    between atoms: C_14  and  C_15
REMARK   10  A    between atoms: C_19  and  C_20
REMARK                            x       y       z     vdW  Elec       q    Type
REMARK                         _______ _______ _______ _____ _____    ______ ____
ROOT
ATOM      1  N   UNL     1       0.671   9.890  18.719  0.00  0.00    +0.000 N 
ATOM      2  C   UNL     1       1.232   9.067  19.674  0.00  0.00    +0.000 C 
ATOM      3  O   UNL     1       1.046   9.176  20.883  0.00  0.00    +0.000 OA
ATOM      4  H   UNL     1       0.734   9.563  17.761  0.00  0.00    +0.000 HD
ENDROOT
BRANCH   2   5
ATOM      5  C   UNL     1       2.133   7.983  19.157  0.00  0.00    +0.000 A 
ATOM      6  C   UNL     1       2.192   6.774  19.841  0.00  0.00    +0.000 A 
ATOM      7  C   UNL     1       3.038   5.779  19.355  0.00  0.00    +0.000 A 
ATOM      8  C   UNL     1       3.820   6.005  18.205  0.00  0.00    +0.000 A 
ATOM      9  C   UNL     1       3.671   7.263  17.609  0.00  0.00    +0.000 A 
ATOM     10  N   UNL     1       2.859   8.259  18.044  0.00  0.00    +0.000 NA
BRANCH   8  11
ATOM     11  C   UNL     1       4.716   4.947  17.587  0.00  0.00    +0.000 C 
ATOM     12  C   UNL     1       4.183   3.970  16.561  0.00  0.00    +0.000 C 
ATOM     13  C   UNL     1       5.138   5.041  16.137  0.00  0.00    +0.000 C 
ENDBRANCH   8  11
BRANCH   7  14
ATOM     14  O   UNL     1       3.103   4.515  19.883  0.00  0.00    +0.000 OA
BRANCH  14  15
ATOM     15  C   UNL     1       1.872   3.849  20.196  0.00  0.00    +0.000 C 
BRANCH  15  16
ATOM     16  C   UNL     1       1.348   3.097  18.971  0.00  0.00    +0.000 C 
ATOM     17  F   UNL     1       0.210   2.413  19.221  0.00  0.00    +0.000 F 
ATOM     18  F   UNL     1       1.091   3.948  17.951  0.00  0.00    +0.000 F 
ATOM     19  F   UNL     1       2.265   2.204  18.527  0.00  0.00    +0.000 F 
ENDBRANCH  15  16
ENDBRANCH  14  15
ENDBRANCH   7  14
ENDBRANCH   2   5
BRANCH   1  20
ATOM     20  C   UNL     1      -0.258  10.993  19.030  0.00  0.00    +0.000 C 
ATOM     21  C   UNL     1      -0.760  10.860  20.498  0.00  0.00    +0.000 C 
BRANCH  20  25
ATOM     22  C   UNL     1      -3.224   9.887  15.155  0.00  0.00    +0.000 C 
ATOM     23  C   UNL     1      -2.612  10.390  16.401  0.00  0.00    +0.000 A 
ATOM     24  N   UNL     1      -1.527  10.017  17.023  0.00  0.00    +0.000 NA
ATOM     25  C   UNL     1      -1.441  10.930  18.060  0.00  0.00    +0.000 A 
ATOM     26  N   UNL     1      -2.477  11.790  18.113  0.00  0.00    +0.000 NA
ATOM     27  O   UNL     1      -3.252  11.432  17.010  0.00  0.00    +0.000 OA
ENDBRANCH  20  25
BRANCH  20  28
ATOM     28  C   UNL     1       0.571  12.297  19.015  0.00  0.00    +0.000 C 
ATOM     29  C   UNL     1       1.680  12.660  19.979  0.00  0.00    +0.000 C 
ATOM     30  C   UNL     1       2.012  12.332  18.549  0.00  0.00    +0.000 C 
ENDBRANCH  20  28
ENDBRANCH   1  20
TORSDOF 8
ENDMDL
MODEL 6
REMARK VINA RESULT:      -7.6      2.036      3.235
REMARK  Name = 
REMARK  10 active torsions:
REMARK  status: ('A' for Active; 'I' for Inactive)
REMARK    1  A    between atoms: C_1  and  C_2
REMARK    2  A    between atoms: C_4  and  C_5
REMARK    3  A    between atoms: C_5  and  C_6
REMARK    4  A    between atoms: C_5  and  N_7
REMARK    5  A    between atoms: C_5  and  C_25
REMARK    6  A    between atoms: C_8  and  C_10
REMARK    7  A    between atoms: C_12  and  O_13
REMARK    8  A    between atoms: O_13  and  C_14
REMARK    9  A    between atoms: C_14  and  C_15
REMARK   10  A    between atoms: C_19  and  C_20
REMARK                            x       y       z     vdW  Elec       q    Type
REMARK                         _______ _______ _______ _____ _____    ______ ____
ROOT
ATOM      1  N   UNL     1       1.093  10.037  19.296  0.00  0.00    +0.000 N 
ATOM      2  C   UNL     1       1.132   8.838  19.977  0.00  0.00    +0.000 C 
ATOM      3  O   UNL     1       0.475   8.589  20.985  0.00  0.00    +0.000 OA
ATOM      4  H   UNL     1       1.514  10.035  18.373  0.00  0.00    +0.000 HD
ENDROOT
BRANCH   2   5
ATOM      5  C   UNL     1       2.059   7.797  19.421  0.00  0.00    +0.000 A 
ATOM      6  C   UNL     1       2.239   6.611  20.122  0.00  0.00    +0.000 A 
ATOM      7  C   UNL     1       3.108   5.656  19.599  0.00  0.00    +0.000 A 
ATOM      8  C   UNL     1       3.794   5.900  18.392  0.00  0.00    +0.000 A 
ATOM      9  C   UNL     1       3.528   7.132  17.783  0.00  0.00    +0.000 A 
ATOM     10  N   UNL     1       2.689   8.089  18.254  0.00  0.00    +0.000 NA
BRANCH   8  11
ATOM     11  C   UNL     1       4.708   4.883  17.735  0.00  0.00    +0.000 C 
ATOM     12  C   UNL     1       4.160   3.826  16.799  0.00  0.00    +0.000 C 
ATOM     13  C   UNL     1       4.991   4.942  16.249  0.00  0.00    +0.000 C 
ENDBRANCH   8  11
BRANCH   7  14
ATOM     14  O   UNL     1       3.286   4.412  20.146  0.00  0.00    +0.000 OA
BRANCH  14  15
ATOM     15  C   UNL     1       2.491   4.053  21.285  0.00  0.00    +0.000 C 
BRANCH  15  16
ATOM     16  C   UNL     1       1.423   3.033  20.887  0.00  0.00    +0.000 C 
ATOM     17  F   UNL     1       0.833   2.449  21.953  0.00  0.00    +0.000 F 
ATOM     18  F   UNL     1       0.446   3.612  20.152  0.00  0.00    +0.000 F 
ATOM     19  F   UNL     1       1.960   2.044  20.133  0.00  0.00    +0.000 F 
ENDBRANCH  15  16
ENDBRANCH  14  15
ENDBRANCH   7  14
ENDBRANCH   2   5
BRANCH   1  20
ATOM     20  C   UNL     1       0.226  11.169  19.675  0.00  0.00    +0.000 C 
ATOM     21  C   UNL     1      -0.062  11.121  21.205  0.00  0.00    +0.000 C 
BRANCH  20  25
ATOM     22  C   UNL     1      -3.183  10.184  16.149  0.00  0.00    +0.000 C 
ATOM     23  C   UNL     1      -2.439  10.600  17.354  0.00  0.00    +0.000 A 
ATOM     24  N   UNL     1      -1.232  10.298  17.752  0.00  0.00    +0.000 NA
ATOM     25  C   UNL     1      -1.083  11.075  18.887  0.00  0.00    +0.000 A 
ATOM     26  N   UNL     1      -2.186  11.776  19.214  0.00  0.00    +0.000 NA
ATOM     27  O   UNL     1      -3.083  11.462  18.194  0.00  0.00    +0.000 OA
ENDBRANCH  20  25
BRANCH  20  28
ATOM     28  C   UNL     1       1.056  12.458  19.473  0.00  0.00    +0.000 C 
ATOM     29  C   UNL     1       2.131  12.672  18.430  0.00  0.00    +0.000 C 
ATOM     30  C   UNL     1       0.819  13.396  18.308  0.00  0.00    +0.000 C 
ENDBRANCH  20  28
ENDBRANCH   1  20
TORSDOF 8
ENDMDL
MODEL 7
REMARK VINA RESULT:      -7.5      2.026      3.398
REMARK  Name = 
REMARK  10 active torsions:
REMARK  status: ('A' for Active; 'I' for Inactive)
REMARK    1  A    between atoms: C_1  and  C_2
REMARK    2  A    between atoms: C_4  and  C_5
REMARK    3  A    between atoms: C_5  and  C_6
REMARK    4  A    between atoms: C_5  and  N_7
REMARK    5  A    between atoms: C_5  and  C_25
REMARK    6  A    between atoms: C_8  and  C_10
REMARK    7  A    between atoms: C_12  and  O_13
REMARK    8  A    between atoms: O_13  and  C_14
REMARK    9  A    between atoms: C_14  and  C_15
REMARK   10  A    between atoms: C_19  and  C_20
REMARK                            x       y       z     vdW  Elec       q    Type
REMARK                         _______ _______ _______ _____ _____    ______ ____
ROOT
ATOM      1  N   UNL     1       1.014  10.128  18.791  0.00  0.00    +0.000 N 
ATOM      2  C   UNL     1       1.157   9.042  19.629  0.00  0.00    +0.000 C 
ATOM      3  O   UNL     1       0.583   8.915  20.707  0.00  0.00    +0.000 OA
ATOM      4  H   UNL     1       1.372  10.009  17.849  0.00  0.00    +0.000 HD
ENDROOT
BRANCH   2   5
ATOM      5  C   UNL     1       2.095   7.969  19.158  0.00  0.00    +0.000 A 
ATOM      6  C   UNL     1       2.235   6.814  19.920  0.00  0.00    +0.000 A 
ATOM      7  C   UNL     1       3.113   5.829  19.475  0.00  0.00    +0.000 A 
ATOM      8  C   UNL     1       3.849   6.011  18.287  0.00  0.00    +0.000 A 
ATOM      9  C   UNL     1       3.620   7.216  17.612  0.00  0.00    +0.000 A 
ATOM     10  N   UNL     1       2.773   8.200  18.005  0.00  0.00    +0.000 NA
BRANCH   8  11
ATOM     11  C   UNL     1       4.778   4.957  17.713  0.00  0.00    +0.000 C 
ATOM     12  C   UNL     1       4.253   3.850  16.822  0.00  0.00    +0.000 C 
ATOM     13  C   UNL     1       5.103   4.933  16.236  0.00  0.00    +0.000 C 
ENDBRANCH   8  11
BRANCH   7  14
ATOM     14  O   UNL     1       3.257   4.610  20.085  0.00  0.00    +0.000 OA
BRANCH  14  15
ATOM     15  C   UNL     1       2.402   4.304  21.195  0.00  0.00    +0.000 C 
BRANCH  15  16
ATOM     16  C   UNL     1       1.431   3.181  20.824  0.00  0.00    +0.000 C 
ATOM     17  F   UNL     1       2.018   2.192  20.116  0.00  0.00    +0.000 F 
ATOM     18  F   UNL     1       0.891   2.620  21.931  0.00  0.00    +0.000 F 
ATOM     19  F   UNL     1       0.407   3.659  20.077  0.00  0.00    +0.000 F 
ENDBRANCH  15  16
ENDBRANCH  14  15
ENDBRANCH   7  14
ENDBRANCH   2   5
BRANCH   1  20
ATOM     20  C   UNL     1       0.121  11.268  19.069  0.00  0.00    +0.000 C 
ATOM     21  C   UNL     1      -0.154  11.358  20.599  0.00  0.00    +0.000 C 
BRANCH  20  25
ATOM     22  C   UNL     1      -4.620  11.628  17.513  0.00  0.00    +0.000 C 
ATOM     23  C   UNL     1      -3.195  11.304  17.721  0.00  0.00    +0.000 A 
ATOM     24  N   UNL     1      -2.287  11.900  18.445  0.00  0.00    +0.000 NA
ATOM     25  C   UNL     1      -1.191  11.066  18.307  0.00  0.00    +0.000 A 
ATOM     26  N   UNL     1      -1.399  10.030  17.471  0.00  0.00    +0.000 NA
ATOM     27  O   UNL     1      -2.730  10.188  17.085  0.00  0.00    +0.000 OA
ENDBRANCH  20  25
BRANCH  20  28
ATOM     28  C   UNL     1       0.914  12.552  18.737  0.00  0.00    +0.000 C 
ATOM     29  C   UNL     1       2.061  13.126  19.541  0.00  0.00    +0.000 C 
ATOM     30  C   UNL     1       2.329  12.511  18.196  0.00  0.00    +0.000 C 
ENDBRANCH  20  28
ENDBRANCH   1  20
TORSDOF 8
ENDMDL
MODEL 8
REMARK VINA RESULT:      -7.5      1.196      1.448
REMARK  Name = 
REMARK  10 active torsions:
REMARK  status: ('A' for Active; 'I' for Inactive)
REMARK    1  A    between atoms: C_1  and  C_2
REMARK    2  A    between atoms: C_4  and  C_5
REMARK    3  A    between atoms: C_5  and  C_6
REMARK    4  A    between atoms: C_5  and  N_7
REMARK    5  A    between atoms: C_5  and  C_25
REMARK    6  A    between atoms: C_8  and  C_10
REMARK    7  A    between atoms: C_12  and  O_13
REMARK    8  A    between atoms: O_13  and  C_14
REMARK    9  A    between atoms: C_14  and  C_15
REMARK   10  A    between atoms: C_19  and  C_20
REMARK                            x       y       z     vdW  Elec       q    Type
REMARK                         _______ _______ _______ _____ _____    ______ ____
ROOT
ATOM      1  N   UNL     1       0.797   9.670  19.625  0.00  0.00    +0.000 N 
ATOM      2  C   UNL     1       1.642   9.464  18.554  0.00  0.00    +0.000 C 
ATOM      3  O   UNL     1       1.820  10.270  17.644  0.00  0.00    +0.000 OA
ATOM      4  H   UNL     1       0.905   9.027  20.402  0.00  0.00    +0.000 HD
ENDROOT
BRANCH   2   5
ATOM      5  C   UNL     1       2.366   8.150  18.532  0.00  0.00    +0.000 A 
ATOM      6  C   UNL     1       2.188   7.266  19.590  0.00  0.00    +0.000 A 
ATOM      7  C   UNL     1       2.872   6.052  19.561  0.00  0.00    +0.000 A 
ATOM      8  C   UNL     1       3.731   5.741  18.488  0.00  0.00    +0.000 A 
ATOM      9  C   UNL     1       3.825   6.714  17.487  0.00  0.00    +0.000 A 
ATOM     10  N   UNL     1       3.177   7.906  17.472  0.00  0.00    +0.000 NA
BRANCH   8  11
ATOM     11  C   UNL     1       4.459   4.415  18.363  0.00  0.00    +0.000 C 
ATOM     12  C   UNL     1       3.830   3.239  17.646  0.00  0.00    +0.000 C 
ATOM     13  C   UNL     1       4.993   3.949  17.026  0.00  0.00    +0.000 C 
ENDBRANCH   8  11
BRANCH   7  14
ATOM     14  O   UNL     1       2.697   5.061  20.493  0.00  0.00    +0.000 OA
BRANCH  14  15
ATOM     15  C   UNL     1       1.382   4.513  20.659  0.00  0.00    +0.000 C 
BRANCH  15  16
ATOM     16  C   UNL     1       1.448   2.986  20.729  0.00  0.00    +0.000 C 
ATOM     17  F   UNL     1       2.709   2.510  20.641  0.00  0.00    +0.000 F 
ATOM     18  F   UNL     1       0.925   2.530  21.891  0.00  0.00    +0.000 F 
ATOM     19  F   UNL     1       0.735   2.427  19.722  0.00  0.00    +0.000 F 
ENDBRANCH  15  16
ENDBRANCH  14  15
ENDBRANCH   7  14
ENDBRANCH   2   5
BRANCH   1  20
ATOM     20  C   UNL     1       0.021  10.906  19.833  0.00  0.00    +0.000 C 
ATOM     21  C   UNL     1      -0.968  11.111  18.647  0.00  0.00    +0.000 C 
BRANCH  20  25
ATOM     22  C   UNL     1       2.632  15.050  18.816  0.00  0.00    +0.000 C 
ATOM     23  C   UNL     1       2.022  13.843  19.408  0.00  0.00    +0.000 A 
ATOM     24  N   UNL     1       0.987  13.143  19.029  0.00  0.00    +0.000 NA
ATOM     25  C   UNL     1       0.988  12.088  19.925  0.00  0.00    +0.000 A 
ATOM     26  N   UNL     1       1.950  12.175  20.865  0.00  0.00    +0.000 NA
ATOM     27  O   UNL     1       2.637  13.339  20.518  0.00  0.00    +0.000 OA
ENDBRANCH  20  25
BRANCH  20  28
ATOM     28  C   UNL     1      -0.886  10.666  21.062  0.00  0.00    +0.000 C 
ATOM     29  C   UNL     1      -0.437  10.622  22.507  0.00  0.00    +0.000 C 
ATOM     30  C   UNL     1      -1.264  11.779  22.017  0.00  0.00    +0.000 C 
ENDBRANCH  20  28
ENDBRANCH   1  20
TORSDOF 8
ENDMDL
MODEL 9
REMARK VINA RESULT:      -7.5      2.166      3.335
REMARK  Name = 
REMARK  10 active torsions:
REMARK  status: ('A' for Active; 'I' for Inactive)
REMARK    1  A    between atoms: C_1  and  C_2
REMARK    2  A    between atoms: C_4  and  C_5
REMARK    3  A    between atoms: C_5  and  C_6
REMARK    4  A    between atoms: C_5  and  N_7
REMARK    5  A    between atoms: C_5  and  C_25
REMARK    6  A    between atoms: C_8  and  C_10
REMARK    7  A    between atoms: C_12  and  O_13
REMARK    8  A    between atoms: O_13  and  C_14
REMARK    9  A    between atoms: C_14  and  C_15
REMARK   10  A    between atoms: C_19  and  C_20
REMARK                            x       y       z     vdW  Elec       q    Type
REMARK                         _______ _______ _______ _____ _____    ______ ____
ROOT
ATOM      1  N   UNL     1       0.701   9.783  18.777  0.00  0.00    +0.000 N 
ATOM      2  C   UNL     1       1.270   8.974  19.739  0.00  0.00    +0.000 C 
ATOM      3  O   UNL     1       1.100   9.106  20.948  0.00  0.00    +0.000 OA
ATOM      4  H   UNL     1       0.749   9.437  17.825  0.00  0.00    +0.000 HD
ENDROOT
BRANCH   2   5
ATOM      5  C   UNL     1       2.156   7.874  19.230  0.00  0.00    +0.000 A 
ATOM      6  C   UNL     1       2.281   6.710  19.979  0.00  0.00    +0.000 A 
ATOM      7  C   UNL     1       3.113   5.700  19.499  0.00  0.00    +0.000 A 
ATOM      8  C   UNL     1       3.817   5.868  18.290  0.00  0.00    +0.000 A 
ATOM      9  C   UNL     1       3.607   7.086  17.632  0.00  0.00    +0.000 A 
ATOM     10  N   UNL     1       2.806   8.094  18.059  0.00  0.00    +0.000 NA
BRANCH   8  11
ATOM     11  C   UNL     1       4.692   4.789  17.680  0.00  0.00    +0.000 C 
ATOM     12  C   UNL     1       4.102   3.702  16.806  0.00  0.00    +0.000 C 
ATOM     13  C   UNL     1       4.962   4.761  16.191  0.00  0.00    +0.000 C 
ENDBRANCH   8  11
BRANCH   7  14
ATOM     14  O   UNL     1       3.235   4.471  20.095  0.00  0.00    +0.000 OA
BRANCH  14  15
ATOM     15  C   UNL     1       2.415   4.189  21.237  0.00  0.00    +0.000 C 
BRANCH  15  16
ATOM     16  C   UNL     1       1.392   3.103  20.901  0.00  0.00    +0.000 C 
ATOM     17  F   UNL     1       0.351   3.567  20.175  0.00  0.00    +0.000 F 
ATOM     18  F   UNL     1       1.962   2.100  20.194  0.00  0.00    +0.000 F 
ATOM     19  F   UNL     1       0.882   2.556  22.031  0.00  0.00    +0.000 F 
ENDBRANCH  15  16
ENDBRANCH  14  15
ENDBRANCH   7  14
ENDBRANCH   2   5
BRANCH   1  20
ATOM     20  C   UNL     1      -0.217  10.897  19.080  0.00  0.00    +0.000 C 
ATOM     21  C   UNL     1      -0.771  10.743  20.527  0.00  0.00    +0.000 C 
BRANCH  20  25
ATOM     22  C   UNL     1      -3.132   9.824  15.157  0.00  0.00    +0.000 C 
ATOM     23  C   UNL     1      -2.523  10.344  16.398  0.00  0.00    +0.000 A 
ATOM     24  N   UNL     1      -1.494   9.918  17.081  0.00  0.00    +0.000 NA
ATOM     25  C   UNL     1      -1.367  10.879  18.069  0.00  0.00    +0.000 A 
ATOM     26  N   UNL     1      -2.327  11.823  18.035  0.00  0.00    +0.000 NA
ATOM     27  O   UNL     1      -3.091  11.469  16.924  0.00  0.00    +0.000 OA
ENDBRANCH  20  25
BRANCH  20  28
ATOM     28  C   UNL     1       0.637  12.184  19.121  0.00  0.00    +0.000 C 
ATOM     29  C   UNL     1       0.312  13.448  19.888  0.00  0.00    +0.000 C 
ATOM     30  C   UNL     1       1.451  12.575  20.338  0.00  0.00    +0.000 C 
ENDBRANCH  20  28
ENDBRANCH   1  20
TORSDOF 8
ENDMDL
