MODEL 1
REMARK VINA RESULT:      -8.0      0.000      0.000
REMARK  Name = 
REMARK  8 active torsions:
REMARK  status: ('A' for Active; 'I' for Inactive)
REMARK    1  A    between atoms: C_1  and  C_2
REMARK    2  A    between atoms: C_2  and  O_3
REMARK    3  A    between atoms: O_3  and  C_4
REMARK    4  A    between atoms: C_4  and  C_6
REMARK    5  A    between atoms: C_10  and  C_11
REMARK    6  A    between atoms: C_13  and  C_14
REMARK    7  A    between atoms: C_17  and  O_18
REMARK    8  A    between atoms: C_20  and  C_21
REMARK                            x       y       z     vdW  Elec       q    Type
REMARK                         _______ _______ _______ _____ _____    ______ ____
ROOT
ATOM      1  C   UNL     1       3.790   5.227  17.825  0.00  0.00    +0.000 C 
ATOM      2  C   UNL     1       4.236   3.809  17.531  0.00  0.00    +0.000 C 
ATOM      3  O   UNL     1       3.966   2.851  18.252  0.00  0.00    +0.000 OA
ATOM      4  C   UNL     1       4.947   3.545  16.257  0.00  0.00    +0.000 C 
ATOM      5  C   UNL     1       5.190   4.546  15.396  0.00  0.00    +0.000 C 
ATOM      6  C   UNL     1       4.816   5.981  15.651  0.00  0.00    +0.000 C 
ATOM      7  C   UNL     1       4.675   6.294  17.158  0.00  0.00    +0.000 C 
ENDROOT
BRANCH   5   8
ATOM      8  C   UNL     1       5.853   4.232  14.122  0.00  0.00    +0.000 A 
ATOM      9  C   UNL     1       5.218   3.385  13.201  0.00  0.00    +0.000 A 
ATOM     10  C   UNL     1       5.805   3.117  11.955  0.00  0.00    +0.000 A 
ATOM     11  C   UNL     1       5.125   2.231  10.951  0.00  0.00    +0.000 C 
ATOM     12  C   UNL     1       7.040   3.699  11.640  0.00  0.00    +0.000 A 
ATOM     13  C   UNL     1       7.680   4.542  12.549  0.00  0.00    +0.000 A 
ATOM     14  C   UNL     1       7.085   4.807  13.782  0.00  0.00    +0.000 A 
BRANCH  14  15
ATOM     15  O   UNL     1       7.702   5.644  14.673  0.00  0.00    +0.000 OA
ATOM     16  H   UNL     1       7.160   6.444  14.774  0.00  0.00    +0.000 HD
ENDBRANCH  14  15
ENDBRANCH   5   8
BRANCH   7  17
ATOM     17  C   UNL     1       6.040   6.559  17.797  0.00  0.00    +0.000 A 
ATOM     18  C   UNL     1       6.728   5.611  18.571  0.00  0.00    +0.000 A 
ATOM     19  C   UNL     1       7.968   5.905  19.144  0.00  0.00    +0.000 A 
ATOM     20  C   UNL     1       8.550   7.152  18.949  0.00  0.00    +0.000 A 
ATOM     21  C   UNL     1       7.887   8.102  18.178  0.00  0.00    +0.000 A 
ATOM     22 CL   UNL     1       8.599   9.651  17.943  0.00  0.00    +0.000 Cl
ATOM     23  C   UNL     1       6.648   7.812  17.600  0.00  0.00    +0.000 A 
ENDBRANCH   7  17
BRANCH   1  24
ATOM     24  C   UNL     1       3.606   5.501  19.298  0.00  0.00    +0.000 C 
ATOM     25  O   UNL     1       4.411   5.260  20.181  0.00  0.00    +0.000 OA
BRANCH  24  26
ATOM     26  O   UNL     1       2.368   6.050  19.502  0.00  0.00    +0.000 OA
BRANCH  26  28
ATOM     27  C   UNL     1       1.095   4.166  20.235  0.00  0.00    +0.000 C 
ATOM     28  C   UNL     1       1.651   5.521  20.629  0.00  0.00    +0.000 C 
ENDBRANCH  26  28
ENDBRANCH  24  26
ENDBRANCH   1  24
TORSDOF 6
ENDMDL
MODEL 2
REMARK VINA RESULT:      -7.3      6.601      9.039
REMARK  Name = 
REMARK  8 active torsions:
REMARK  status: ('A' for Active; 'I' for Inactive)
REMARK    1  A    between atoms: C_1  and  C_2
REMARK    2  A    between atoms: C_2  and  O_3
REMARK    3  A    between atoms: O_3  and  C_4
REMARK    4  A    between atoms: C_4  and  C_6
REMARK    5  A    between atoms: C_10  and  C_11
REMARK    6  A    between atoms: C_13  and  C_14
REMARK    7  A    between atoms: C_17  and  O_18
REMARK    8  A    between atoms: C_20  and  C_21
REMARK                            x       y       z     vdW  Elec       q    Type
REMARK                         _______ _______ _______ _____ _____    ______ ____
ROOT
ATOM      1  C   UNL     1      -1.154  10.882  21.871  0.00  0.00    +0.000 C 
ATOM      2  C   UNL     1      -0.006  10.150  22.536  0.00  0.00    +0.000 C 
ATOM      3  O   UNL     1       0.157  10.110  23.753  0.00  0.00    +0.000 OA
ATOM      4  C   UNL     1       0.910   9.356  21.682  0.00  0.00    +0.000 C 
ATOM      5  C   UNL     1       0.721   9.299  20.355  0.00  0.00    +0.000 C 
ATOM      6  C   UNL     1      -0.369  10.040  19.630  0.00  0.00    +0.000 C 
ATOM      7  C   UNL     1      -0.861  11.278  20.413  0.00  0.00    +0.000 C 
ENDROOT
BRANCH   5   8
ATOM      8  C   UNL     1       1.624   8.460  19.552  0.00  0.00    +0.000 A 
ATOM      9  C   UNL     1       2.010   7.199  20.034  0.00  0.00    +0.000 A 
ATOM     10  C   UNL     1       2.823   6.357  19.261  0.00  0.00    +0.000 A 
ATOM     11  C   UNL     1       3.223   4.997  19.756  0.00  0.00    +0.000 C 
ATOM     12  C   UNL     1       3.254   6.790  18.000  0.00  0.00    +0.000 A 
ATOM     13  C   UNL     1       2.877   8.042  17.512  0.00  0.00    +0.000 A 
ATOM     14  C   UNL     1       2.063   8.868  18.286  0.00  0.00    +0.000 A 
BRANCH  14  15
ATOM     15  O   UNL     1       1.678  10.092  17.807  0.00  0.00    +0.000 OA
ATOM     16  H   UNL     1       2.443  10.514  17.382  0.00  0.00    +0.000 HD
ENDBRANCH  14  15
ENDBRANCH   5   8
BRANCH   7  17
ATOM     17  C   UNL     1       0.068  12.474  20.195  0.00  0.00    +0.000 A 
ATOM     18  C   UNL     1       1.411  12.495  20.602  0.00  0.00    +0.000 A 
ATOM     19  C   UNL     1       2.216  13.617  20.391  0.00  0.00    +0.000 A 
ATOM     20  C   UNL     1       1.695  14.742  19.763  0.00  0.00    +0.000 A 
ATOM     21  C   UNL     1       0.368  14.738  19.345  0.00  0.00    +0.000 A 
ATOM     22 CL   UNL     1      -0.284  16.133  18.575  0.00  0.00    +0.000 Cl
ATOM     23  C   UNL     1      -0.440  13.617  19.551  0.00  0.00    +0.000 A 
ENDBRANCH   7  17
BRANCH   1  24
ATOM     24  C   UNL     1      -1.658  12.056  22.674  0.00  0.00    +0.000 C 
ATOM     25  O   UNL     1      -0.978  12.816  23.343  0.00  0.00    +0.000 OA
BRANCH  24  26
ATOM     26  O   UNL     1      -3.021  12.129  22.558  0.00  0.00    +0.000 OA
BRANCH  26  28
ATOM     27  C   UNL     1      -4.249  12.474  24.578  0.00  0.00    +0.000 C 
ATOM     28  C   UNL     1      -3.643  13.146  23.360  0.00  0.00    +0.000 C 
ENDBRANCH  26  28
ENDBRANCH  24  26
ENDBRANCH   1  24
TORSDOF 6
ENDMDL
MODEL 3
REMARK VINA RESULT:      -7.3      3.413      7.418
REMARK  Name = 
REMARK  8 active torsions:
REMARK  status: ('A' for Active; 'I' for Inactive)
REMARK    1  A    between atoms: C_1  and  C_2
REMARK    2  A    between atoms: C_2  and  O_3
REMARK    3  A    between atoms: O_3  and  C_4
REMARK    4  A    between atoms: C_4  and  C_6
REMARK    5  A    between atoms: C_10  and  C_11
REMARK    6  A    between atoms: C_13  and  C_14
REMARK    7  A    between atoms: C_17  and  O_18
REMARK    8  A    between atoms: C_20  and  C_21
REMARK                            x       y       z     vdW  Elec       q    Type
REMARK                         _______ _______ _______ _____ _____    ______ ____
ROOT
ATOM      1  C   UNL     1       4.507   5.508  16.657  0.00  0.00    +0.000 C 
ATOM      2  C   UNL     1       5.080   6.664  17.450  0.00  0.00    +0.000 C 
ATOM      3  O   UNL     1       6.255   7.018  17.379  0.00  0.00    +0.000 OA
ATOM      4  C   UNL     1       4.156   7.476  18.278  0.00  0.00    +0.000 C 
ATOM      5  C   UNL     1       2.848   7.181  18.321  0.00  0.00    +0.000 C 
ATOM      6  C   UNL     1       2.225   6.019  17.595  0.00  0.00    +0.000 C 
ATOM      7  C   UNL     1       3.245   4.898  17.294  0.00  0.00    +0.000 C 
ENDROOT
BRANCH   5   8
ATOM      8  C   UNL     1       1.958   8.042  19.115  0.00  0.00    +0.000 A 
ATOM      9  C   UNL     1       1.405   9.192  18.532  0.00  0.00    +0.000 A 
ATOM     10  C   UNL     1       0.510   9.998  19.251  0.00  0.00    +0.000 A 
ATOM     11  C   UNL     1      -0.106  11.218  18.630  0.00  0.00    +0.000 C 
ATOM     12  C   UNL     1       0.175   9.645  20.565  0.00  0.00    +0.000 A 
ATOM     13  C   UNL     1       0.720   8.504  21.155  0.00  0.00    +0.000 A 
ATOM     14  C   UNL     1       1.604   7.707  20.429  0.00  0.00    +0.000 A 
BRANCH  14  15
ATOM     15  O   UNL     1       2.131   6.578  20.997  0.00  0.00    +0.000 OA
ATOM     16  H   UNL     1       1.549   6.293  21.720  0.00  0.00    +0.000 HD
ENDBRANCH  14  15
ENDBRANCH   5   8
BRANCH   7  17
ATOM     17  C   UNL     1       3.453   3.998  18.513  0.00  0.00    +0.000 A 
ATOM     18  C   UNL     1       4.672   3.368  18.811  0.00  0.00    +0.000 A 
ATOM     19  C   UNL     1       4.808   2.545  19.931  0.00  0.00    +0.000 A 
ATOM     20  C   UNL     1       3.729   2.338  20.782  0.00  0.00    +0.000 A 
ATOM     21  C   UNL     1       2.514   2.959  20.508  0.00  0.00    +0.000 A 
ATOM     22 CL   UNL     1       1.172   2.698  21.553  0.00  0.00    +0.000 Cl
ATOM     23  C   UNL     1       2.374   3.787  19.390  0.00  0.00    +0.000 A 
ENDBRANCH   7  17
BRANCH   1  24
ATOM     24  C   UNL     1       5.529   4.447  16.324  0.00  0.00    +0.000 C 
ATOM     25  O   UNL     1       6.492   4.137  17.005  0.00  0.00    +0.000 OA
BRANCH  24  26
ATOM     26  O   UNL     1       5.220   3.890  15.112  0.00  0.00    +0.000 OA
BRANCH  26  28
ATOM     27  C   UNL     1       5.690   3.514  12.800  0.00  0.00    +0.000 C 
ATOM     28  C   UNL     1       6.264   3.970  14.128  0.00  0.00    +0.000 C 
ENDBRANCH  26  28
ENDBRANCH  24  26
ENDBRANCH   1  24
TORSDOF 6
ENDMDL
MODEL 4
REMARK VINA RESULT:      -7.2      1.190      1.621
REMARK  Name = 
REMARK  8 active torsions:
REMARK  status: ('A' for Active; 'I' for Inactive)
REMARK    1  A    between atoms: C_1  and  C_2
REMARK    2  A    between atoms: C_2  and  O_3
REMARK    3  A    between atoms: O_3  and  C_4
REMARK    4  A    between atoms: C_4  and  C_6
REMARK    5  A    between atoms: C_10  and  C_11
REMARK    6  A    between atoms: C_13  and  C_14
REMARK    7  A    between atoms: C_17  and  O_18
REMARK    8  A    between atoms: C_20  and  C_21
REMARK                            x       y       z     vdW  Elec       q    Type
REMARK                         _______ _______ _______ _____ _____    ______ ____
ROOT
ATOM      1  C   UNL     1       3.794   5.423  17.720  0.00  0.00    +0.000 C 
ATOM      2  C   UNL     1       4.312   4.012  17.532  0.00  0.00    +0.000 C 
ATOM      3  O   UNL     1       4.099   3.101  18.329  0.00  0.00    +0.000 OA
ATOM      4  C   UNL     1       5.026   3.686  16.274  0.00  0.00    +0.000 C 
ATOM      5  C   UNL     1       5.208   4.626  15.335  0.00  0.00    +0.000 C 
ATOM      6  C   UNL     1       4.761   6.055  15.481  0.00  0.00    +0.000 C 
ATOM      7  C   UNL     1       4.616   6.479  16.959  0.00  0.00    +0.000 C 
ENDROOT
BRANCH   5   8
ATOM      8  C   UNL     1       5.878   4.247  14.081  0.00  0.00    +0.000 A 
ATOM      9  C   UNL     1       5.233   3.378  13.187  0.00  0.00    +0.000 A 
ATOM     10  C   UNL     1       5.826   3.048  11.960  0.00  0.00    +0.000 A 
ATOM     11  C   UNL     1       5.136   2.138  10.985  0.00  0.00    +0.000 C 
ATOM     12  C   UNL     1       7.077   3.590  11.635  0.00  0.00    +0.000 A 
ATOM     13  C   UNL     1       7.726   4.454  12.518  0.00  0.00    +0.000 A 
ATOM     14  C   UNL     1       7.125   4.781  13.732  0.00  0.00    +0.000 A 
BRANCH  14  15
ATOM     15  O   UNL     1       7.751   5.639  14.596  0.00  0.00    +0.000 OA
ATOM     16  H   UNL     1       7.571   6.551  14.313  0.00  0.00    +0.000 HD
ENDBRANCH  14  15
ENDBRANCH   5   8
BRANCH   7  17
ATOM     17  C   UNL     1       5.970   6.864  17.559  0.00  0.00    +0.000 A 
ATOM     18  C   UNL     1       6.635   8.064  17.260  0.00  0.00    +0.000 A 
ATOM     19  C   UNL     1       7.877   8.365  17.825  0.00  0.00    +0.000 A 
ATOM     20  C   UNL     1       8.478   7.474  18.706  0.00  0.00    +0.000 A 
ATOM     21  C   UNL     1       7.831   6.283  19.021  0.00  0.00    +0.000 A 
ATOM     22 CL   UNL     1       8.576   5.172  20.104  0.00  0.00    +0.000 Cl
ATOM     23  C   UNL     1       6.587   5.979  18.461  0.00  0.00    +0.000 A 
ENDBRANCH   7  17
BRANCH   1  24
ATOM     24  C   UNL     1       3.608   5.803  19.169  0.00  0.00    +0.000 C 
ATOM     25  O   UNL     1       4.016   5.181  20.134  0.00  0.00    +0.000 OA
BRANCH  24  26
ATOM     26  O   UNL     1       2.877   6.959  19.239  0.00  0.00    +0.000 OA
BRANCH  26  28
ATOM     27  C   UNL     1       1.461   8.404  20.510  0.00  0.00    +0.000 C 
ATOM     28  C   UNL     1       1.845   6.962  20.239  0.00  0.00    +0.000 C 
ENDBRANCH  26  28
ENDBRANCH  24  26
ENDBRANCH   1  24
TORSDOF 6
ENDMDL
MODEL 5
REMARK VINA RESULT:      -7.1      2.223      6.400
REMARK  Name = 
REMARK  8 active torsions:
REMARK  status: ('A' for Active; 'I' for Inactive)
REMARK    1  A    between atoms: C_1  and  C_2
REMARK    2  A    between atoms: C_2  and  O_3
REMARK    3  A    between atoms: O_3  and  C_4
REMARK    4  A    between atoms: C_4  and  C_6
REMARK    5  A    between atoms: C_10  and  C_11
REMARK    6  A    between atoms: C_13  and  C_14
REMARK    7  A    between atoms: C_17  and  O_18
REMARK    8  A    between atoms: C_20  and  C_21
REMARK                            x       y       z     vdW  Elec       q    Type
REMARK                         _______ _______ _______ _____ _____    ______ ____
ROOT
ATOM      1  C   UNL     1       6.022   6.771  18.013  0.00  0.00    +0.000 C 
ATOM      2  C   UNL     1       6.231   5.705  19.069  0.00  0.00    +0.000 C 
ATOM      3  O   UNL     1       7.248   5.619  19.753  0.00  0.00    +0.000 OA
ATOM      4  C   UNL     1       5.111   4.777  19.363  0.00  0.00    +0.000 C 
ATOM      5  C   UNL     1       3.950   4.887  18.701  0.00  0.00    +0.000 C 
ATOM      6  C   UNL     1       3.696   5.892  17.610  0.00  0.00    +0.000 C 
ATOM      7  C   UNL     1       5.001   6.369  16.934  0.00  0.00    +0.000 C 
ENDROOT
BRANCH   5   8
ATOM      8  C   UNL     1       2.849   3.979  19.059  0.00  0.00    +0.000 A 
ATOM      9  C   UNL     1       2.622   3.664  20.407  0.00  0.00    +0.000 A 
ATOM     10  C   UNL     1       1.543   2.848  20.778  0.00  0.00    +0.000 A 
ATOM     11  C   UNL     1       1.276   2.523  22.220  0.00  0.00    +0.000 C 
ATOM     12  C   UNL     1       0.694   2.341  19.785  0.00  0.00    +0.000 A 
ATOM     13  C   UNL     1       0.912   2.647  18.442  0.00  0.00    +0.000 A 
ATOM     14  C   UNL     1       1.983   3.465  18.085  0.00  0.00    +0.000 A 
BRANCH  14  15
ATOM     15  O   UNL     1       2.194   3.780  16.769  0.00  0.00    +0.000 OA
ATOM     16  H   UNL     1       2.960   3.277  16.447  0.00  0.00    +0.000 HD
ENDBRANCH  14  15
ENDBRANCH   5   8
BRANCH   7  17
ATOM     17  C   UNL     1       5.472   5.370  15.875  0.00  0.00    +0.000 A 
ATOM     18  C   UNL     1       5.122   4.011  15.884  0.00  0.00    +0.000 A 
ATOM     19  C   UNL     1       5.587   3.135  14.900  0.00  0.00    +0.000 A 
ATOM     20  C   UNL     1       6.409   3.603  13.881  0.00  0.00    +0.000 A 
ATOM     21  C   UNL     1       6.761   4.948  13.850  0.00  0.00    +0.000 A 
ATOM     22 CL   UNL     1       7.787   5.530  12.597  0.00  0.00    +0.000 Cl
ATOM     23  C   UNL     1       6.295   5.829  14.831  0.00  0.00    +0.000 A 
ENDBRANCH   7  17
BRANCH   1  24
ATOM     24  C   UNL     1       7.311   7.265  17.400  0.00  0.00    +0.000 C 
ATOM     25  O   UNL     1       8.111   6.595  16.769  0.00  0.00    +0.000 OA
BRANCH  24  26
ATOM     26  O   UNL     1       7.462   8.596  17.683  0.00  0.00    +0.000 OA
BRANCH  26  28
ATOM     27  C   UNL     1       8.870  10.417  18.323  0.00  0.00    +0.000 C 
ATOM     28  C   UNL     1       8.636   8.923  18.444  0.00  0.00    +0.000 C 
ENDBRANCH  26  28
ENDBRANCH  24  26
ENDBRANCH   1  24
TORSDOF 6
ENDMDL
MODEL 6
REMARK VINA RESULT:      -7.0      3.162      6.253
REMARK  Name = 
REMARK  8 active torsions:
REMARK  status: ('A' for Active; 'I' for Inactive)
REMARK    1  A    between atoms: C_1  and  C_2
REMARK    2  A    between atoms: C_2  and  O_3
REMARK    3  A    between atoms: O_3  and  C_4
REMARK    4  A    between atoms: C_4  and  C_6
REMARK    5  A    between atoms: C_10  and  C_11
REMARK    6  A    between atoms: C_13  and  C_14
REMARK    7  A    between atoms: C_17  and  O_18
REMARK    8  A    between atoms: C_20  and  C_21
REMARK                            x       y       z     vdW  Elec       q    Type
REMARK                         _______ _______ _______ _____ _____    ______ ____
ROOT
ATOM      1  C   UNL     1       3.247   3.479  19.401  0.00  0.00    +0.000 C 
ATOM      2  C   UNL     1       2.154   3.866  18.426  0.00  0.00    +0.000 C 
ATOM      3  O   UNL     1       1.492   3.048  17.792  0.00  0.00    +0.000 OA
ATOM      4  C   UNL     1       1.795   5.300  18.303  0.00  0.00    +0.000 C 
ATOM      5  C   UNL     1       2.433   6.223  19.039  0.00  0.00    +0.000 C 
ATOM      6  C   UNL     1       3.557   5.910  19.988  0.00  0.00    +0.000 C 
ATOM      7  C   UNL     1       4.284   4.595  19.627  0.00  0.00    +0.000 C 
ENDROOT
BRANCH   5   8
ATOM      8  C   UNL     1       2.011   7.627  18.923  0.00  0.00    +0.000 A 
ATOM      9  C   UNL     1       1.209   8.194  19.925  0.00  0.00    +0.000 A 
ATOM     10  C   UNL     1       0.841   9.547  19.866  0.00  0.00    +0.000 A 
ATOM     11  C   UNL     1       0.002  10.171  20.944  0.00  0.00    +0.000 C 
ATOM     12  C   UNL     1       1.280  10.329  18.789  0.00  0.00    +0.000 A 
ATOM     13  C   UNL     1       2.077   9.775  17.787  0.00  0.00    +0.000 A 
ATOM     14  C   UNL     1       2.442   8.431  17.860  0.00  0.00    +0.000 A 
BRANCH  14  15
ATOM     15  O   UNL     1       3.236   7.885  16.887  0.00  0.00    +0.000 OA
ATOM     16  H   UNL     1       2.823   7.063  16.573  0.00  0.00    +0.000 HD
ENDBRANCH  14  15
ENDBRANCH   5   8
BRANCH   7  17
ATOM     17  C   UNL     1       5.312   4.818  18.516  0.00  0.00    +0.000 A 
ATOM     18  C   UNL     1       6.596   5.337  18.744  0.00  0.00    +0.000 A 
ATOM     19  C   UNL     1       7.496   5.535  17.694  0.00  0.00    +0.000 A 
ATOM     20  C   UNL     1       7.132   5.210  16.392  0.00  0.00    +0.000 A 
ATOM     21  C   UNL     1       5.867   4.687  16.147  0.00  0.00    +0.000 A 
ATOM     22 CL   UNL     1       5.409   4.293  14.536  0.00  0.00    +0.000 Cl
ATOM     23  C   UNL     1       4.964   4.485  17.195  0.00  0.00    +0.000 A 
ENDBRANCH   7  17
BRANCH   1  24
ATOM     24  C   UNL     1       3.911   2.166  19.064  0.00  0.00    +0.000 C 
ATOM     25  O   UNL     1       3.553   1.379  18.204  0.00  0.00    +0.000 OA
BRANCH  24  26
ATOM     26  O   UNL     1       4.979   1.975  19.899  0.00  0.00    +0.000 OA
BRANCH  26  28
ATOM     27  C   UNL     1       5.705   0.443  21.583  0.00  0.00    +0.000 C 
ATOM     28  C   UNL     1       4.646   1.459  21.198  0.00  0.00    +0.000 C 
ENDBRANCH  26  28
ENDBRANCH  24  26
ENDBRANCH   1  24
TORSDOF 6
ENDMDL
MODEL 7
REMARK VINA RESULT:      -7.0      6.646      9.075
REMARK  Name = 
REMARK  8 active torsions:
REMARK  status: ('A' for Active; 'I' for Inactive)
REMARK    1  A    between atoms: C_1  and  C_2
REMARK    2  A    between atoms: C_2  and  O_3
REMARK    3  A    between atoms: O_3  and  C_4
REMARK    4  A    between atoms: C_4  and  C_6
REMARK    5  A    between atoms: C_10  and  C_11
REMARK    6  A    between atoms: C_13  and  C_14
REMARK    7  A    between atoms: C_17  and  O_18
REMARK    8  A    between atoms: C_20  and  C_21
REMARK                            x       y       z     vdW  Elec       q    Type
REMARK                         _______ _______ _______ _____ _____    ______ ____
ROOT
ATOM      1  C   UNL     1      -1.269  11.017  21.497  0.00  0.00    +0.000 C 
ATOM      2  C   UNL     1      -0.155  10.315  22.246  0.00  0.00    +0.000 C 
ATOM      3  O   UNL     1      -0.053  10.322  23.470  0.00  0.00    +0.000 OA
ATOM      4  C   UNL     1       0.805   9.493  21.470  0.00  0.00    +0.000 C 
ATOM      5  C   UNL     1       0.683   9.385  20.138  0.00  0.00    +0.000 C 
ATOM      6  C   UNL     1      -0.371  10.093  19.332  0.00  0.00    +0.000 C 
ATOM      7  C   UNL     1      -0.904  11.358  20.041  0.00  0.00    +0.000 C 
ENDROOT
BRANCH   5   8
ATOM      8  C   UNL     1       1.627   8.519  19.415  0.00  0.00    +0.000 A 
ATOM      9  C   UNL     1       2.009   7.290  19.975  0.00  0.00    +0.000 A 
ATOM     10  C   UNL     1       2.862   6.422  19.277  0.00  0.00    +0.000 A 
ATOM     11  C   UNL     1       3.260   5.095  19.856  0.00  0.00    +0.000 C 
ATOM     12  C   UNL     1       3.337   6.797  18.013  0.00  0.00    +0.000 A 
ATOM     13  C   UNL     1       2.963   8.017  17.448  0.00  0.00    +0.000 A 
ATOM     14  C   UNL     1       2.110   8.869  18.147  0.00  0.00    +0.000 A 
BRANCH  14  15
ATOM     15  O   UNL     1       1.729  10.061  17.591  0.00  0.00    +0.000 OA
ATOM     16  H   UNL     1       2.516  10.620  17.484  0.00  0.00    +0.000 HD
ENDBRANCH  14  15
ENDBRANCH   5   8
BRANCH   7  17
ATOM     17  C   UNL     1       0.032  12.549  19.825  0.00  0.00    +0.000 A 
ATOM     18  C   UNL     1       1.397  12.529  20.152  0.00  0.00    +0.000 A 
ATOM     19  C   UNL     1       2.209  13.647  19.947  0.00  0.00    +0.000 A 
ATOM     20  C   UNL     1       1.673  14.809  19.403  0.00  0.00    +0.000 A 
ATOM     21  C   UNL     1       0.324  14.846  19.065  0.00  0.00    +0.000 A 
ATOM     22 CL   UNL     1      -0.346  16.285  18.401  0.00  0.00    +0.000 Cl
ATOM     23  C   UNL     1      -0.492  13.729  19.266  0.00  0.00    +0.000 A 
ENDBRANCH   7  17
BRANCH   1  24
ATOM     24  C   UNL     1      -1.816  12.219  22.228  0.00  0.00    +0.000 C 
ATOM     25  O   UNL     1      -2.983  12.570  22.264  0.00  0.00    +0.000 OA
BRANCH  24  26
ATOM     26  O   UNL     1      -0.785  12.882  22.837  0.00  0.00    +0.000 OA
BRANCH  26  28
ATOM     27  C   UNL     1      -0.112  15.172  22.732  0.00  0.00    +0.000 C 
ATOM     28  C   UNL     1      -1.112  14.195  23.320  0.00  0.00    +0.000 C 
ENDBRANCH  26  28
ENDBRANCH  24  26
ENDBRANCH   1  24
TORSDOF 6
ENDMDL
MODEL 8
REMARK VINA RESULT:      -6.9      3.384      7.359
REMARK  Name = 
REMARK  8 active torsions:
REMARK  status: ('A' for Active; 'I' for Inactive)
REMARK    1  A    between atoms: C_1  and  C_2
REMARK    2  A    between atoms: C_2  and  O_3
REMARK    3  A    between atoms: O_3  and  C_4
REMARK    4  A    between atoms: C_4  and  C_6
REMARK    5  A    between atoms: C_10  and  C_11
REMARK    6  A    between atoms: C_13  and  C_14
REMARK    7  A    between atoms: C_17  and  O_18
REMARK    8  A    between atoms: C_20  and  C_21
REMARK                            x       y       z     vdW  Elec       q    Type
REMARK                         _______ _______ _______ _____ _____    ______ ____
ROOT
ATOM      1  C   UNL     1       4.697   5.495  16.687  0.00  0.00    +0.000 C 
ATOM      2  C   UNL     1       5.244   6.665  17.478  0.00  0.00    +0.000 C 
ATOM      3  O   UNL     1       6.427   6.997  17.465  0.00  0.00    +0.000 OA
ATOM      4  C   UNL     1       4.288   7.515  18.229  0.00  0.00    +0.000 C 
ATOM      5  C   UNL     1       2.975   7.243  18.204  0.00  0.00    +0.000 C 
ATOM      6  C   UNL     1       2.374   6.071  17.477  0.00  0.00    +0.000 C 
ATOM      7  C   UNL     1       3.390   4.925  17.267  0.00  0.00    +0.000 C 
ENDROOT
BRANCH   5   8
ATOM      8  C   UNL     1       2.057   8.141  18.921  0.00  0.00    +0.000 A 
ATOM      9  C   UNL     1       1.661   7.827  20.230  0.00  0.00    +0.000 A 
ATOM     10  C   UNL     1       0.833   8.697  20.954  0.00  0.00    +0.000 A 
ATOM     11  C   UNL     1       0.421   8.382  22.363  0.00  0.00    +0.000 C 
ATOM     12  C   UNL     1       0.398   9.886  20.354  0.00  0.00    +0.000 A 
ATOM     13  C   UNL     1       0.786  10.208  19.054  0.00  0.00    +0.000 A 
ATOM     14  C   UNL     1       1.614   9.339  18.345  0.00  0.00    +0.000 A 
BRANCH  14  15
ATOM     15  O   UNL     1       2.010   9.657  17.073  0.00  0.00    +0.000 OA
ATOM     16  H   UNL     1       2.482  10.505  17.097  0.00  0.00    +0.000 HD
ENDBRANCH  14  15
ENDBRANCH   5   8
BRANCH   7  17
ATOM     17  C   UNL     1       3.512   4.058  18.521  0.00  0.00    +0.000 A 
ATOM     18  C   UNL     1       4.698   3.410  18.902  0.00  0.00    +0.000 A 
ATOM     19  C   UNL     1       4.755   2.618  20.051  0.00  0.00    +0.000 A 
ATOM     20  C   UNL     1       3.628   2.461  20.849  0.00  0.00    +0.000 A 
ATOM     21  C   UNL     1       2.445   3.101  20.493  0.00  0.00    +0.000 A 
ATOM     22 CL   UNL     1       1.044   2.902  21.472  0.00  0.00    +0.000 Cl
ATOM     23  C   UNL     1       2.383   3.897  19.345  0.00  0.00    +0.000 A 
ENDBRANCH   7  17
BRANCH   1  24
ATOM     24  C   UNL     1       5.716   4.409  16.444  0.00  0.00    +0.000 C 
ATOM     25  O   UNL     1       6.684   4.161  17.143  0.00  0.00    +0.000 OA
BRANCH  24  26
ATOM     26  O   UNL     1       5.400   3.746  15.288  0.00  0.00    +0.000 OA
BRANCH  26  28
ATOM     27  C   UNL     1       5.581   3.569  12.912  0.00  0.00    +0.000 C 
ATOM     28  C   UNL     1       6.286   3.998  14.185  0.00  0.00    +0.000 C 
ENDBRANCH  26  28
ENDBRANCH  24  26
ENDBRANCH   1  24
TORSDOF 6
ENDMDL
MODEL 9
REMARK VINA RESULT:      -6.9      2.865      6.159
REMARK  Name = 
REMARK  8 active torsions:
REMARK  status: ('A' for Active; 'I' for Inactive)
REMARK    1  A    between atoms: C_1  and  C_2
REMARK    2  A    between atoms: C_2  and  O_3
REMARK    3  A    between atoms: O_3  and  C_4
REMARK    4  A    between atoms: C_4  and  C_6
REMARK    5  A    between atoms: C_10  and  C_11
REMARK    6  A    between atoms: C_13  and  C_14
REMARK    7  A    between atoms: C_17  and  O_18
REMARK    8  A    between atoms: C_20  and  C_21
REMARK                            x       y       z     vdW  Elec       q    Type
REMARK                         _______ _______ _______ _____ _____    ______ ____
ROOT
ATOM      1  C   UNL     1       3.287   3.549  19.289  0.00  0.00    +0.000 C 
ATOM      2  C   UNL     1       2.092   3.934  18.442  0.00  0.00    +0.000 C 
ATOM      3  O   UNL     1       1.372   3.116  17.875  0.00  0.00    +0.000 OA
ATOM      4  C   UNL     1       1.709   5.366  18.375  0.00  0.00    +0.000 C 
ATOM      5  C   UNL     1       2.414   6.288  19.047  0.00  0.00    +0.000 C 
ATOM      6  C   UNL     1       3.637   5.977  19.866  0.00  0.00    +0.000 C 
ATOM      7  C   UNL     1       4.332   4.673  19.414  0.00  0.00    +0.000 C 
ENDROOT
BRANCH   5   8
ATOM      8  C   UNL     1       1.969   7.689  18.993  0.00  0.00    +0.000 A 
ATOM      9  C   UNL     1       1.198   8.212  20.042  0.00  0.00    +0.000 A 
ATOM     10  C   UNL     1       0.811   9.560  20.041  0.00  0.00    +0.000 A 
ATOM     11  C   UNL     1       0.005  10.137  21.169  0.00  0.00    +0.000 C 
ATOM     12  C   UNL     1       1.198  10.383  18.974  0.00  0.00    +0.000 A 
ATOM     13  C   UNL     1       1.965   9.873  17.926  0.00  0.00    +0.000 A 
ATOM     14  C   UNL     1       2.349   8.533  17.941  0.00  0.00    +0.000 A 
BRANCH  14  15
ATOM     15  O   UNL     1       3.113   8.030  16.922  0.00  0.00    +0.000 OA
ATOM     16  H   UNL     1       2.665   7.251  16.553  0.00  0.00    +0.000 HD
ENDBRANCH  14  15
ENDBRANCH   5   8
BRANCH   7  17
ATOM     17  C   UNL     1       5.232   4.918  18.202  0.00  0.00    +0.000 A 
ATOM     18  C   UNL     1       5.252   4.084  17.072  0.00  0.00    +0.000 A 
ATOM     19  C   UNL     1       6.102   4.343  15.994  0.00  0.00    +0.000 A 
ATOM     20  C   UNL     1       6.946   5.447  16.019  0.00  0.00    +0.000 A 
ATOM     21  C   UNL     1       6.935   6.290  17.126  0.00  0.00    +0.000 A 
ATOM     22 CL   UNL     1       7.985   7.653  17.166  0.00  0.00    +0.000 Cl
ATOM     23  C   UNL     1       6.084   6.037  18.206  0.00  0.00    +0.000 A 
ENDBRANCH   7  17
BRANCH   1  24
ATOM     24  C   UNL     1       3.922   2.246  18.869  0.00  0.00    +0.000 C 
ATOM     25  O   UNL     1       3.565   1.537  17.943  0.00  0.00    +0.000 OA
BRANCH  24  26
ATOM     26  O   UNL     1       4.964   1.961  19.710  0.00  0.00    +0.000 OA
BRANCH  26  28
ATOM     27  C   UNL     1       5.623   0.629  21.581  0.00  0.00    +0.000 C 
ATOM     28  C   UNL     1       4.579   1.589  21.044  0.00  0.00    +0.000 C 
ENDBRANCH  26  28
ENDBRANCH  24  26
ENDBRANCH   1  24
TORSDOF 6
ENDMDL
