MODEL 1
REMARK VINA RESULT:      -8.3      0.000      0.000
REMARK  Name = 
REMARK  8 active torsions:
REMARK  status: ('A' for Active; 'I' for Inactive)
REMARK    1  A    between atoms: C_2  and  C_3
REMARK    2  A    between atoms: C_6  and  O_7
REMARK    3  A    between atoms: O_7  and  C_8
REMARK    4  A    between atoms: N_10  and  S_11
REMARK    5  A    between atoms: S_11  and  C_14
REMARK    6  A    between atoms: C_22  and  O_23
REMARK    7  A    between atoms: C_22  and  C_24
REMARK    8  A    between atoms: C_24  and  N_25
REMARK                            x       y       z     vdW  Elec       q    Type
REMARK                         _______ _______ _______ _____ _____    ______ ____
ROOT
ATOM      1  C   UNL     1       2.239   5.020  19.133  0.00  0.00    +0.000 C 
ATOM      2  C   UNL     1       3.057   4.954  17.832  0.00  0.00    +0.000 C 
ATOM      3  N   UNL     1       4.324   4.217  18.162  0.00  0.00    +0.000 NA
ATOM      4  C   UNL     1       4.222   3.765  19.594  0.00  0.00    +0.000 C 
ATOM      5  C   UNL     1       2.717   3.771  19.898  0.00  0.00    +0.000 C 
ENDROOT
BRANCH   3   6
ATOM      6  S   UNL     1       5.785   5.059  17.826  0.00  0.00    +0.000 S 
ATOM      7  O   UNL     1       5.548   6.472  18.019  0.00  0.00    +0.000 OA
ATOM      8  O   UNL     1       6.820   4.375  18.584  0.00  0.00    +0.000 OA
BRANCH   6   9
ATOM      9  C   UNL     1       6.122   4.762  16.082  0.00  0.00    +0.000 A 
ATOM     10  C   UNL     1       5.266   3.964  15.332  0.00  0.00    +0.000 A 
ATOM     11  C   UNL     1       5.582   3.747  13.990  0.00  0.00    +0.000 A 
ATOM     12  C   UNL     1       6.728   4.333  13.458  0.00  0.00    +0.000 A 
ATOM     13 CL   UNL     1       7.142   4.097  11.809  0.00  0.00    +0.000 Cl
ATOM     14  C   UNL     1       7.518   5.121  14.287  0.00  0.00    +0.000 A 
ATOM     15  N   UNL     1       7.245   5.361  15.594  0.00  0.00    +0.000 NA
ENDBRANCH   6   9
ENDBRANCH   3   6
BRANCH   5  16
ATOM     16  O   UNL     1       2.096   2.591  19.343  0.00  0.00    +0.000 OA
ATOM     17  H   UNL     1       2.639   2.301  18.586  0.00  0.00    +0.000 HD
ENDBRANCH   5  16
BRANCH   1  18
ATOM     18  O   UNL     1       2.586   6.185  19.889  0.00  0.00    +0.000 OA
BRANCH  18  22
ATOM     19  C   UNL     1       1.122   9.995  19.063  0.00  0.00    +0.000 A 
ATOM     20  C   UNL     1       1.786   9.305  18.044  0.00  0.00    +0.000 A 
ATOM     21  C   UNL     1       2.279   8.012  18.266  0.00  0.00    +0.000 A 
ATOM     22  C   UNL     1       2.118   7.408  19.513  0.00  0.00    +0.000 A 
ATOM     23  C   UNL     1       1.427   8.087  20.519  0.00  0.00    +0.000 A 
ATOM     24  C   UNL     1       0.935   9.370  20.292  0.00  0.00    +0.000 A 
ATOM     25  F   UNL     1       0.285   9.996  21.282  0.00  0.00    +0.000 F 
BRANCH  19  27
ATOM     26  N   UNL     1       0.317  12.428  18.691  0.00  0.00    +0.000 NA
ATOM     27  C   UNL     1       0.657  11.327  18.851  0.00  0.00    +0.000 C 
ENDBRANCH  19  27
ENDBRANCH  18  22
ENDBRANCH   1  18
BRANCH   5  28
ATOM     28  C   UNL     1       2.376   3.847  21.405  0.00  0.00    +0.000 C 
BRANCH  28  29
ATOM     29  N   UNL     1       1.799   2.627  21.977  0.00  0.00    +0.000 NA
ATOM     30  H   UNL     1       1.367   2.818  22.878  0.00  0.00    +0.000 HD
ATOM     31  H   UNL     1       2.549   1.953  22.139  0.00  0.00    +0.000 HD
ENDBRANCH  28  29
ENDBRANCH   5  28
TORSDOF 8
ENDMDL
MODEL 2
REMARK VINA RESULT:      -8.3      0.926      1.309
REMARK  Name = 
REMARK  8 active torsions:
REMARK  status: ('A' for Active; 'I' for Inactive)
REMARK    1  A    between atoms: C_2  and  C_3
REMARK    2  A    between atoms: C_6  and  O_7
REMARK    3  A    between atoms: O_7  and  C_8
REMARK    4  A    between atoms: N_10  and  S_11
REMARK    5  A    between atoms: S_11  and  C_14
REMARK    6  A    between atoms: C_22  and  O_23
REMARK    7  A    between atoms: C_22  and  C_24
REMARK    8  A    between atoms: C_24  and  N_25
REMARK                            x       y       z     vdW  Elec       q    Type
REMARK                         _______ _______ _______ _____ _____    ______ ____
ROOT
ATOM      1  C   UNL     1       2.330   5.311  19.106  0.00  0.00    +0.000 C 
ATOM      2  C   UNL     1       3.129   5.214  17.795  0.00  0.00    +0.000 C 
ATOM      3  N   UNL     1       4.340   4.376  18.096  0.00  0.00    +0.000 NA
ATOM      4  C   UNL     1       4.215   3.899  19.518  0.00  0.00    +0.000 C 
ATOM      5  C   UNL     1       2.718   4.012  19.837  0.00  0.00    +0.000 C 
ENDROOT
BRANCH   3   6
ATOM      6  S   UNL     1       5.857   5.113  17.764  0.00  0.00    +0.000 S 
ATOM      7  O   UNL     1       5.719   6.539  17.956  0.00  0.00    +0.000 OA
ATOM      8  O   UNL     1       6.839   4.358  18.525  0.00  0.00    +0.000 OA
BRANCH   6   9
ATOM      9  C   UNL     1       6.178   4.793  16.022  0.00  0.00    +0.000 A 
ATOM     10  C   UNL     1       5.327   3.965  15.296  0.00  0.00    +0.000 A 
ATOM     11  C   UNL     1       5.631   3.732  13.954  0.00  0.00    +0.000 A 
ATOM     12  C   UNL     1       6.758   4.330  13.397  0.00  0.00    +0.000 A 
ATOM     13 CL   UNL     1       7.156   4.075  11.748  0.00  0.00    +0.000 Cl
ATOM     14  C   UNL     1       7.543   5.148  14.202  0.00  0.00    +0.000 A 
ATOM     15  N   UNL     1       7.282   5.405  15.508  0.00  0.00    +0.000 NA
ENDBRANCH   6   9
ENDBRANCH   3   6
BRANCH   5  16
ATOM     16  O   UNL     1       2.005   2.895  19.262  0.00  0.00    +0.000 OA
ATOM     17  H   UNL     1       2.525   2.575  18.500  0.00  0.00    +0.000 HD
ENDBRANCH   5  16
BRANCH   1  18
ATOM     18  O   UNL     1       2.769   6.429  19.885  0.00  0.00    +0.000 OA
BRANCH  18  22
ATOM     19  C   UNL     1       0.359   9.824  19.922  0.00  0.00    +0.000 A 
ATOM     20  C   UNL     1       0.406   9.031  21.073  0.00  0.00    +0.000 A 
ATOM     21  C   UNL     1       1.218   7.891  21.118  0.00  0.00    +0.000 A 
ATOM     22  C   UNL     1       1.979   7.531  20.005  0.00  0.00    +0.000 A 
ATOM     23  C   UNL     1       1.954   8.341  18.868  0.00  0.00    +0.000 A 
ATOM     24  C   UNL     1       1.149   9.477  18.831  0.00  0.00    +0.000 A 
ATOM     25  F   UNL     1       1.143  10.226  17.720  0.00  0.00    +0.000 F 
BRANCH  19  27
ATOM     26  N   UNL     1      -1.233  11.864  19.812  0.00  0.00    +0.000 NA
ATOM     27  C   UNL     1      -0.499  10.962  19.861  0.00  0.00    +0.000 C 
ENDBRANCH  19  27
ENDBRANCH  18  22
ENDBRANCH   1  18
BRANCH   5  28
ATOM     28  C   UNL     1       2.396   4.078  21.350  0.00  0.00    +0.000 C 
BRANCH  28  29
ATOM     29  N   UNL     1       2.034   2.799  21.967  0.00  0.00    +0.000 NA
ATOM     30  H   UNL     1       1.640   2.943  22.894  0.00  0.00    +0.000 HD
ATOM     31  H   UNL     1       2.880   2.239  22.084  0.00  0.00    +0.000 HD
ENDBRANCH  28  29
ENDBRANCH   5  28
TORSDOF 8
ENDMDL
MODEL 3
REMARK VINA RESULT:      -7.8      0.729      1.045
REMARK  Name = 
REMARK  8 active torsions:
REMARK  status: ('A' for Active; 'I' for Inactive)
REMARK    1  A    between atoms: C_2  and  C_3
REMARK    2  A    between atoms: C_6  and  O_7
REMARK    3  A    between atoms: O_7  and  C_8
REMARK    4  A    between atoms: N_10  and  S_11
REMARK    5  A    between atoms: S_11  and  C_14
REMARK    6  A    between atoms: C_22  and  O_23
REMARK    7  A    between atoms: C_22  and  C_24
REMARK    8  A    between atoms: C_24  and  N_25
REMARK                            x       y       z     vdW  Elec       q    Type
REMARK                         _______ _______ _______ _____ _____    ______ ____
ROOT
ATOM      1  C   UNL     1       2.197   5.308  19.056  0.00  0.00    +0.000 C 
ATOM      2  C   UNL     1       3.036   5.177  17.773  0.00  0.00    +0.000 C 
ATOM      3  N   UNL     1       4.226   4.330  18.128  0.00  0.00    +0.000 NA
ATOM      4  C   UNL     1       4.051   3.881  19.553  0.00  0.00    +0.000 C 
ATOM      5  C   UNL     1       2.545   4.019  19.822  0.00  0.00    +0.000 C 
ENDROOT
BRANCH   3   6
ATOM      6  S   UNL     1       5.763   5.043  17.831  0.00  0.00    +0.000 S 
ATOM      7  O   UNL     1       5.639   6.473  18.001  0.00  0.00    +0.000 OA
ATOM      8  O   UNL     1       6.711   4.285  18.631  0.00  0.00    +0.000 OA
BRANCH   6   9
ATOM      9  C   UNL     1       6.130   4.695  16.103  0.00  0.00    +0.000 A 
ATOM     10  C   UNL     1       7.285   5.204  15.519  0.00  0.00    +0.000 A 
ATOM     11  C   UNL     1       7.514   4.923  14.172  0.00  0.00    +0.000 A 
ATOM     12  C   UNL     1       6.591   4.151  13.470  0.00  0.00    +0.000 A 
ATOM     13 CL   UNL     1       6.845   3.777  11.815  0.00  0.00    +0.000 Cl
ATOM     14  C   UNL     1       5.470   3.682  14.144  0.00  0.00    +0.000 A 
ATOM     15  N   UNL     1       5.210   3.927  15.453  0.00  0.00    +0.000 NA
ENDBRANCH   6   9
ENDBRANCH   3   6
BRANCH   5  16
ATOM     16  O   UNL     1       1.837   2.900  19.245  0.00  0.00    +0.000 OA
ATOM     17  H   UNL     1       1.384   3.221  18.443  0.00  0.00    +0.000 HD
ENDBRANCH   5  16
BRANCH   1  18
ATOM     18  O   UNL     1       2.626   6.435  19.828  0.00  0.00    +0.000 OA
BRANCH  18  22
ATOM     19  C   UNL     1       0.692  10.121  19.748  0.00  0.00    +0.000 A 
ATOM     20  C   UNL     1       1.332   9.683  18.584  0.00  0.00    +0.000 A 
ATOM     21  C   UNL     1       1.978   8.441  18.555  0.00  0.00    +0.000 A 
ATOM     22  C   UNL     1       1.997   7.635  19.693  0.00  0.00    +0.000 A 
ATOM     23  C   UNL     1       1.331   8.061  20.845  0.00  0.00    +0.000 A 
ATOM     24  C   UNL     1       0.686   9.295  20.868  0.00  0.00    +0.000 A 
ATOM     25  F   UNL     1       0.064   9.677  21.992  0.00  0.00    +0.000 F 
BRANCH  19  27
ATOM     26  N   UNL     1      -0.453  12.441  19.870  0.00  0.00    +0.000 NA
ATOM     27  C   UNL     1       0.069  11.404  19.793  0.00  0.00    +0.000 C 
ENDBRANCH  19  27
ENDBRANCH  18  22
ENDBRANCH   1  18
BRANCH   5  28
ATOM     28  C   UNL     1       2.177   4.116  21.322  0.00  0.00    +0.000 C 
BRANCH  28  29
ATOM     29  N   UNL     1       2.108   2.836  22.033  0.00  0.00    +0.000 NA
ATOM     30  H   UNL     1       3.021   2.388  22.060  0.00  0.00    +0.000 HD
ATOM     31  H   UNL     1       1.481   2.211  21.525  0.00  0.00    +0.000 HD
ENDBRANCH  28  29
ENDBRANCH   5  28
TORSDOF 8
ENDMDL
MODEL 4
REMARK VINA RESULT:      -7.3      3.930      7.373
REMARK  Name = 
REMARK  8 active torsions:
REMARK  status: ('A' for Active; 'I' for Inactive)
REMARK    1  A    between atoms: C_2  and  C_3
REMARK    2  A    between atoms: C_6  and  O_7
REMARK    3  A    between atoms: O_7  and  C_8
REMARK    4  A    between atoms: N_10  and  S_11
REMARK    5  A    between atoms: S_11  and  C_14
REMARK    6  A    between atoms: C_22  and  O_23
REMARK    7  A    between atoms: C_22  and  C_24
REMARK    8  A    between atoms: C_24  and  N_25
REMARK                            x       y       z     vdW  Elec       q    Type
REMARK                         _______ _______ _______ _____ _____    ______ ____
ROOT
ATOM      1  C   UNL     1       4.172   3.643  19.197  0.00  0.00    +0.000 C 
ATOM      2  C   UNL     1       4.333   5.148  19.477  0.00  0.00    +0.000 C 
ATOM      3  N   UNL     1       2.943   5.707  19.602  0.00  0.00    +0.000 NA
ATOM      4  C   UNL     1       1.983   4.553  19.504  0.00  0.00    +0.000 C 
ATOM      5  C   UNL     1       2.821   3.317  19.859  0.00  0.00    +0.000 C 
ENDROOT
BRANCH   3   6
ATOM      6  S   UNL     1       2.560   6.995  18.529  0.00  0.00    +0.000 S 
ATOM      7  O   UNL     1       3.796   7.541  18.017  0.00  0.00    +0.000 OA
ATOM      8  O   UNL     1       1.554   6.468  17.622  0.00  0.00    +0.000 OA
BRANCH   6   9
ATOM      9  C   UNL     1       1.753   8.244  19.545  0.00  0.00    +0.000 A 
ATOM     10  C   UNL     1       1.515   8.001  20.893  0.00  0.00    +0.000 A 
ATOM     11  C   UNL     1       0.868   8.992  21.632  0.00  0.00    +0.000 A 
ATOM     12  C   UNL     1       0.492  10.175  21.001  0.00  0.00    +0.000 A 
ATOM     13 CL   UNL     1      -0.295  11.421  21.881  0.00  0.00    +0.000 Cl
ATOM     14  C   UNL     1       0.780  10.328  19.650  0.00  0.00    +0.000 A 
ATOM     15  N   UNL     1       1.410   9.393  18.896  0.00  0.00    +0.000 NA
ENDBRANCH   6   9
ENDBRANCH   3   6
BRANCH   5  16
ATOM     16  O   UNL     1       2.986   3.228  21.292  0.00  0.00    +0.000 OA
ATOM     17  H   UNL     1       3.347   2.344  21.492  0.00  0.00    +0.000 HD
ENDBRANCH   5  16
BRANCH   1  18
ATOM     18  O   UNL     1       4.070   3.399  17.791  0.00  0.00    +0.000 OA
BRANCH  18  22
ATOM     19  C   UNL     1       6.805   4.785  14.974  0.00  0.00    +0.000 A 
ATOM     20  C   UNL     1       7.164   4.831  16.325  0.00  0.00    +0.000 A 
ATOM     21  C   UNL     1       6.287   4.357  17.309  0.00  0.00    +0.000 A 
ATOM     22  C   UNL     1       5.041   3.844  16.947  0.00  0.00    +0.000 A 
ATOM     23  C   UNL     1       4.698   3.771  15.595  0.00  0.00    +0.000 A 
ATOM     24  C   UNL     1       5.575   4.239  14.620  0.00  0.00    +0.000 A 
ATOM     25  F   UNL     1       5.210   4.162  13.333  0.00  0.00    +0.000 F 
BRANCH  19  27
ATOM     26  N   UNL     1       8.394   5.768  13.180  0.00  0.00    +0.000 NA
ATOM     27  C   UNL     1       7.680   5.305  13.974  0.00  0.00    +0.000 C 
ENDBRANCH  19  27
ENDBRANCH  18  22
ENDBRANCH   1  18
BRANCH   5  28
ATOM     28  C   UNL     1       2.229   1.982  19.346  0.00  0.00    +0.000 C 
BRANCH  28  29
ATOM     29  N   UNL     1       1.400   2.089  18.142  0.00  0.00    +0.000 NA
ATOM     30  H   UNL     1       1.710   1.433  17.429  0.00  0.00    +0.000 HD
ATOM     31  H   UNL     1       1.505   3.028  17.753  0.00  0.00    +0.000 HD
ENDBRANCH  28  29
ENDBRANCH   5  28
TORSDOF 8
ENDMDL
MODEL 5
REMARK VINA RESULT:      -7.2      6.153     10.667
REMARK  Name = 
REMARK  8 active torsions:
REMARK  status: ('A' for Active; 'I' for Inactive)
REMARK    1  A    between atoms: C_2  and  C_3
REMARK    2  A    between atoms: C_6  and  O_7
REMARK    3  A    between atoms: O_7  and  C_8
REMARK    4  A    between atoms: N_10  and  S_11
REMARK    5  A    between atoms: S_11  and  C_14
REMARK    6  A    between atoms: C_22  and  O_23
REMARK    7  A    between atoms: C_22  and  C_24
REMARK    8  A    between atoms: C_24  and  N_25
REMARK                            x       y       z     vdW  Elec       q    Type
REMARK                         _______ _______ _______ _____ _____    ______ ____
ROOT
ATOM      1  C   UNL     1       0.103  10.523  19.251  0.00  0.00    +0.000 C 
ATOM      2  C   UNL     1      -1.204  10.679  20.047  0.00  0.00    +0.000 C 
ATOM      3  N   UNL     1      -1.089  11.972  20.805  0.00  0.00    +0.000 NA
ATOM      4  C   UNL     1       0.205  12.620  20.394  0.00  0.00    +0.000 C 
ATOM      5  C   UNL     1       0.549  11.981  19.041  0.00  0.00    +0.000 C 
ENDROOT
BRANCH   3   6
ATOM      6  S   UNL     1      -1.271  11.853  22.510  0.00  0.00    +0.000 S 
ATOM      7  O   UNL     1      -1.120  10.466  22.887  0.00  0.00    +0.000 OA
ATOM      8  O   UNL     1      -0.396  12.869  23.073  0.00  0.00    +0.000 OA
BRANCH   6   9
ATOM      9  C   UNL     1      -2.963  12.365  22.852  0.00  0.00    +0.000 A 
ATOM     10  C   UNL     1      -3.691  13.057  21.889  0.00  0.00    +0.000 A 
ATOM     11  C   UNL     1      -4.991  13.449  22.210  0.00  0.00    +0.000 A 
ATOM     12  C   UNL     1      -5.507  13.135  23.465  0.00  0.00    +0.000 A 
ATOM     13 CL   UNL     1      -7.105  13.592  23.889  0.00  0.00    +0.000 Cl
ATOM     14  C   UNL     1      -4.704  12.434  24.356  0.00  0.00    +0.000 A 
ATOM     15  N   UNL     1      -3.438  12.029  24.085  0.00  0.00    +0.000 NA
ENDBRANCH   6   9
ENDBRANCH   3   6
BRANCH   5  16
ATOM     16  O   UNL     1      -0.239  12.589  17.994  0.00  0.00    +0.000 OA
ATOM     17  H   UNL     1      -1.119  12.788  18.366  0.00  0.00    +0.000 HD
ENDBRANCH   5  16
BRANCH   1  18
ATOM     18  O   UNL     1       1.093   9.845  20.032  0.00  0.00    +0.000 OA
BRANCH  18  22
ATOM     19  C   UNL     1       2.534   6.087  18.965  0.00  0.00    +0.000 A 
ATOM     20  C   UNL     1       2.581   7.109  18.013  0.00  0.00    +0.000 A 
ATOM     21  C   UNL     1       2.127   8.397  18.330  0.00  0.00    +0.000 A 
ATOM     22  C   UNL     1       1.614   8.664  19.600  0.00  0.00    +0.000 A 
ATOM     23  C   UNL     1       1.598   7.648  20.559  0.00  0.00    +0.000 A 
ATOM     24  C   UNL     1       2.054   6.372  20.240  0.00  0.00    +0.000 A 
ATOM     25  F   UNL     1       2.015   5.419  21.181  0.00  0.00    +0.000 F 
BRANCH  19  27
ATOM     26  N   UNL     1       3.262   3.674  18.369  0.00  0.00    +0.000 NA
ATOM     27  C   UNL     1       2.957   4.766  18.630  0.00  0.00    +0.000 C 
ENDBRANCH  19  27
ENDBRANCH  18  22
ENDBRANCH   1  18
BRANCH   5  28
ATOM     28  C   UNL     1       2.045  12.083  18.656  0.00  0.00    +0.000 C 
BRANCH  28  29
ATOM     29  N   UNL     1       2.333  12.923  17.490  0.00  0.00    +0.000 NA
ATOM     30  H   UNL     1       1.489  13.383  17.157  0.00  0.00    +0.000 HD
ATOM     31  H   UNL     1       2.670  12.328  16.731  0.00  0.00    +0.000 HD
ENDBRANCH  28  29
ENDBRANCH   5  28
TORSDOF 8
ENDMDL
MODEL 6
REMARK VINA RESULT:      -7.2      6.232     10.808
REMARK  Name = 
REMARK  8 active torsions:
REMARK  status: ('A' for Active; 'I' for Inactive)
REMARK    1  A    between atoms: C_2  and  C_3
REMARK    2  A    between atoms: C_6  and  O_7
REMARK    3  A    between atoms: O_7  and  C_8
REMARK    4  A    between atoms: N_10  and  S_11
REMARK    5  A    between atoms: S_11  and  C_14
REMARK    6  A    between atoms: C_22  and  O_23
REMARK    7  A    between atoms: C_22  and  C_24
REMARK    8  A    between atoms: C_24  and  N_25
REMARK                            x       y       z     vdW  Elec       q    Type
REMARK                         _______ _______ _______ _____ _____    ______ ____
ROOT
ATOM      1  C   UNL     1       0.033  11.394  18.920  0.00  0.00    +0.000 C 
ATOM      2  C   UNL     1      -1.245  11.180  19.750  0.00  0.00    +0.000 C 
ATOM      3  N   UNL     1      -1.342  12.350  20.690  0.00  0.00    +0.000 NA
ATOM      4  C   UNL     1      -0.213  13.287  20.359  0.00  0.00    +0.000 C 
ATOM      5  C   UNL     1       0.186  12.926  18.921  0.00  0.00    +0.000 C 
ENDROOT
BRANCH   3   6
ATOM      6  S   UNL     1      -1.423  11.957  22.362  0.00  0.00    +0.000 S 
ATOM      7  O   UNL     1      -1.216  10.534  22.503  0.00  0.00    +0.000 OA
ATOM      8  O   UNL     1      -0.544  12.900  23.033  0.00  0.00    +0.000 OA
BRANCH   6   9
ATOM      9  C   UNL     1      -3.106  12.350  22.868  0.00  0.00    +0.000 A 
ATOM     10  C   UNL     1      -3.472  12.259  24.207  0.00  0.00    +0.000 A 
ATOM     11  C   UNL     1      -4.793  12.554  24.545  0.00  0.00    +0.000 A 
ATOM     12  C   UNL     1      -5.685  12.926  23.543  0.00  0.00    +0.000 A 
ATOM     13 CL   UNL     1      -7.315  13.307  23.923  0.00  0.00    +0.000 Cl
ATOM     14  C   UNL     1      -5.223  12.996  22.234  0.00  0.00    +0.000 A 
ATOM     15  N   UNL     1      -3.947  12.722  21.862  0.00  0.00    +0.000 NA
ENDBRANCH   6   9
ENDBRANCH   3   6
BRANCH   5  16
ATOM     16  O   UNL     1      -0.748  13.513  17.988  0.00  0.00    +0.000 OA
ATOM     17  H   UNL     1      -1.266  14.183  18.473  0.00  0.00    +0.000 HD
ENDBRANCH   5  16
BRANCH   1  18
ATOM     18  O   UNL     1       1.165  10.815  19.577  0.00  0.00    +0.000 OA
BRANCH  18  22
ATOM     19  C   UNL     1       2.389   6.938  18.680  0.00  0.00    +0.000 A 
ATOM     20  C   UNL     1       2.529   7.921  17.696  0.00  0.00    +0.000 A 
ATOM     21  C   UNL     1       2.152   9.245  17.956  0.00  0.00    +0.000 A 
ATOM     22  C   UNL     1       1.621   9.588  19.200  0.00  0.00    +0.000 A 
ATOM     23  C   UNL     1       1.511   8.610  20.191  0.00  0.00    +0.000 A 
ATOM     24  C   UNL     1       1.892   7.297  19.929  0.00  0.00    +0.000 A 
ATOM     25  F   UNL     1       1.764   6.383  20.900  0.00  0.00    +0.000 F 
BRANCH  19  27
ATOM     26  N   UNL     1       2.973   4.465  18.178  0.00  0.00    +0.000 NA
ATOM     27  C   UNL     1       2.734   5.581  18.402  0.00  0.00    +0.000 C 
ENDBRANCH  19  27
ENDBRANCH  18  22
ENDBRANCH   1  18
BRANCH   5  28
ATOM     28  C   UNL     1       1.617  13.367  18.532  0.00  0.00    +0.000 C 
BRANCH  28  29
ATOM     29  N   UNL     1       2.228  12.609  17.436  0.00  0.00    +0.000 NA
ATOM     30  H   UNL     1       1.728  12.767  16.563  0.00  0.00    +0.000 HD
ATOM     31  H   UNL     1       2.157  11.612  17.646  0.00  0.00    +0.000 HD
ENDBRANCH  28  29
ENDBRANCH   5  28
TORSDOF 8
ENDMDL
MODEL 7
REMARK VINA RESULT:      -7.2      3.771      6.988
REMARK  Name = 
REMARK  8 active torsions:
REMARK  status: ('A' for Active; 'I' for Inactive)
REMARK    1  A    between atoms: C_2  and  C_3
REMARK    2  A    between atoms: C_6  and  O_7
REMARK    3  A    between atoms: O_7  and  C_8
REMARK    4  A    between atoms: N_10  and  S_11
REMARK    5  A    between atoms: S_11  and  C_14
REMARK    6  A    between atoms: C_22  and  O_23
REMARK    7  A    between atoms: C_22  and  C_24
REMARK    8  A    between atoms: C_24  and  N_25
REMARK                            x       y       z     vdW  Elec       q    Type
REMARK                         _______ _______ _______ _____ _____    ______ ____
ROOT
ATOM      1  C   UNL     1       3.757   3.553  19.925  0.00  0.00    +0.000 C 
ATOM      2  C   UNL     1       4.055   5.062  19.889  0.00  0.00    +0.000 C 
ATOM      3  N   UNL     1       2.729   5.753  19.734  0.00  0.00    +0.000 NA
ATOM      4  C   UNL     1       1.661   4.695  19.782  0.00  0.00    +0.000 C 
ATOM      5  C   UNL     1       2.325   3.503  20.487  0.00  0.00    +0.000 C 
ENDROOT
BRANCH   3   6
ATOM      6  S   UNL     1       2.586   6.793  18.373  0.00  0.00    +0.000 S 
ATOM      7  O   UNL     1       3.915   7.110  17.903  0.00  0.00    +0.000 OA
ATOM      8  O   UNL     1       1.623   6.158  17.489  0.00  0.00    +0.000 OA
BRANCH   6   9
ATOM      9  C   UNL     1       1.820   8.299  18.995  0.00  0.00    +0.000 A 
ATOM     10  C   UNL     1       1.580   9.367  18.137  0.00  0.00    +0.000 A 
ATOM     11  C   UNL     1       1.003  10.519  18.672  0.00  0.00    +0.000 A 
ATOM     12  C   UNL     1       0.690  10.557  20.028  0.00  0.00    +0.000 A 
ATOM     13 CL   UNL     1      -0.031  11.953  20.718  0.00  0.00    +0.000 Cl
ATOM     14  C   UNL     1       0.960   9.436  20.804  0.00  0.00    +0.000 A 
ATOM     15  N   UNL     1       1.516   8.294  20.324  0.00  0.00    +0.000 NA
ENDBRANCH   6   9
ENDBRANCH   3   6
BRANCH   5  16
ATOM     16  O   UNL     1       2.350   3.726  21.914  0.00  0.00    +0.000 OA
ATOM     17  H   UNL     1       2.552   2.873  22.342  0.00  0.00    +0.000 HD
ENDBRANCH   5  16
BRANCH   1  18
ATOM     18  O   UNL     1       3.754   3.006  18.602  0.00  0.00    +0.000 OA
BRANCH  18  22
ATOM     19  C   UNL     1       6.330   4.656  15.777  0.00  0.00    +0.000 A 
ATOM     20  C   UNL     1       4.990   4.470  15.423  0.00  0.00    +0.000 A 
ATOM     21  C   UNL     1       4.080   3.938  16.346  0.00  0.00    +0.000 A 
ATOM     22  C   UNL     1       4.509   3.579  17.624  0.00  0.00    +0.000 A 
ATOM     23  C   UNL     1       5.841   3.795  17.984  0.00  0.00    +0.000 A 
ATOM     24  C   UNL     1       6.741   4.328  17.065  0.00  0.00    +0.000 A 
ATOM     25  F   UNL     1       8.013   4.513  17.442  0.00  0.00    +0.000 F 
BRANCH  19  27
ATOM     26  N   UNL     1       8.016   5.540  14.021  0.00  0.00    +0.000 NA
ATOM     27  C   UNL     1       7.267   5.159  14.825  0.00  0.00    +0.000 C 
ENDBRANCH  19  27
ENDBRANCH  18  22
ENDBRANCH   1  18
BRANCH   5  28
ATOM     28  C   UNL     1       1.639   2.143  20.211  0.00  0.00    +0.000 C 
BRANCH  28  29
ATOM     29  N   UNL     1       1.167   1.949  18.837  0.00  0.00    +0.000 NA
ATOM     30  H   UNL     1       1.935   2.036  18.175  0.00  0.00    +0.000 HD
ATOM     31  H   UNL     1       0.493   2.682  18.614  0.00  0.00    +0.000 HD
ENDBRANCH  28  29
ENDBRANCH   5  28
TORSDOF 8
ENDMDL
MODEL 8
REMARK VINA RESULT:      -7.0      6.176     10.700
REMARK  Name = 
REMARK  8 active torsions:
REMARK  status: ('A' for Active; 'I' for Inactive)
REMARK    1  A    between atoms: C_2  and  C_3
REMARK    2  A    between atoms: C_6  and  O_7
REMARK    3  A    between atoms: O_7  and  C_8
REMARK    4  A    between atoms: N_10  and  S_11
REMARK    5  A    between atoms: S_11  and  C_14
REMARK    6  A    between atoms: C_22  and  O_23
REMARK    7  A    between atoms: C_22  and  C_24
REMARK    8  A    between atoms: C_24  and  N_25
REMARK                            x       y       z     vdW  Elec       q    Type
REMARK                         _______ _______ _______ _____ _____    ______ ____
ROOT
ATOM      1  C   UNL     1       0.142  10.322  19.383  0.00  0.00    +0.000 C 
ATOM      2  C   UNL     1      -1.165  10.481  20.178  0.00  0.00    +0.000 C 
ATOM      3  N   UNL     1      -1.095  11.826  20.847  0.00  0.00    +0.000 NA
ATOM      4  C   UNL     1       0.170  12.494  20.382  0.00  0.00    +0.000 C 
ATOM      5  C   UNL     1       0.530  11.779  19.071  0.00  0.00    +0.000 C 
ENDROOT
BRANCH   3   6
ATOM      6  S   UNL     1      -1.260  11.815  22.558  0.00  0.00    +0.000 S 
ATOM      7  O   UNL     1      -1.109  10.454  23.020  0.00  0.00    +0.000 OA
ATOM      8  O   UNL     1      -0.378  12.862  23.047  0.00  0.00    +0.000 OA
BRANCH   6   9
ATOM      9  C   UNL     1      -2.948  12.352  22.883  0.00  0.00    +0.000 A 
ATOM     10  C   UNL     1      -3.643  13.086  21.927  0.00  0.00    +0.000 A 
ATOM     11  C   UNL     1      -4.941  13.496  22.235  0.00  0.00    +0.000 A 
ATOM     12  C   UNL     1      -5.487  13.157  23.471  0.00  0.00    +0.000 A 
ATOM     13 CL   UNL     1      -7.083  13.635  23.879  0.00  0.00    +0.000 Cl
ATOM     14  C   UNL     1      -4.715  12.415  24.357  0.00  0.00    +0.000 A 
ATOM     15  N   UNL     1      -3.453  11.992  24.097  0.00  0.00    +0.000 NA
ENDBRANCH   6   9
ENDBRANCH   3   6
BRANCH   5  16
ATOM     16  O   UNL     1      -0.289  12.284  17.993  0.00  0.00    +0.000 OA
ATOM     17  H   UNL     1       0.284  12.382  17.210  0.00  0.00    +0.000 HD
ENDBRANCH   5  16
BRANCH   1  18
ATOM     18  O   UNL     1       1.162   9.736  20.198  0.00  0.00    +0.000 OA
BRANCH  18  22
ATOM     19  C   UNL     1       2.512   5.888  19.363  0.00  0.00    +0.000 A 
ATOM     20  C   UNL     1       1.826   6.103  20.561  0.00  0.00    +0.000 A 
ATOM     21  C   UNL     1       1.333   7.376  20.878  0.00  0.00    +0.000 A 
ATOM     22  C   UNL     1       1.536   8.442  20.002  0.00  0.00    +0.000 A 
ATOM     23  C   UNL     1       2.195   8.217  18.791  0.00  0.00    +0.000 A 
ATOM     24  C   UNL     1       2.678   6.949  18.478  0.00  0.00    +0.000 A 
ATOM     25  F   UNL     1       3.314   6.771  17.312  0.00  0.00    +0.000 F 
BRANCH  19  27
ATOM     26  N   UNL     1       3.452   3.535  18.820  0.00  0.00    +0.000 NA
ATOM     27  C   UNL     1       3.051   4.601  19.058  0.00  0.00    +0.000 C 
ENDBRANCH  19  27
ENDBRANCH  18  22
ENDBRANCH   1  18
BRANCH   5  28
ATOM     28  C   UNL     1       2.017  11.912  18.666  0.00  0.00    +0.000 C 
BRANCH  28  29
ATOM     29  N   UNL     1       2.274  12.772  17.507  0.00  0.00    +0.000 NA
ATOM     30  H   UNL     1       2.153  13.753  17.750  0.00  0.00    +0.000 HD
ATOM     31  H   UNL     1       1.592  12.556  16.779  0.00  0.00    +0.000 HD
ENDBRANCH  28  29
ENDBRANCH   5  28
TORSDOF 8
ENDMDL
MODEL 9
REMARK VINA RESULT:      -6.9      1.128      1.531
REMARK  Name = 
REMARK  8 active torsions:
REMARK  status: ('A' for Active; 'I' for Inactive)
REMARK    1  A    between atoms: C_2  and  C_3
REMARK    2  A    between atoms: C_6  and  O_7
REMARK    3  A    between atoms: O_7  and  C_8
REMARK    4  A    between atoms: N_10  and  S_11
REMARK    5  A    between atoms: S_11  and  C_14
REMARK    6  A    between atoms: C_22  and  O_23
REMARK    7  A    between atoms: C_22  and  C_24
REMARK    8  A    between atoms: C_24  and  N_25
REMARK                            x       y       z     vdW  Elec       q    Type
REMARK                         _______ _______ _______ _____ _____    ______ ____
ROOT
ATOM      1  C   UNL     1       1.899   5.002  19.528  0.00  0.00    +0.000 C 
ATOM      2  C   UNL     1       2.640   5.024  18.179  0.00  0.00    +0.000 C 
ATOM      3  N   UNL     1       3.891   4.213  18.368  0.00  0.00    +0.000 NA
ATOM      4  C   UNL     1       3.849   3.637  19.757  0.00  0.00    +0.000 C 
ATOM      5  C   UNL     1       2.365   3.673  20.149  0.00  0.00    +0.000 C 
ENDROOT
BRANCH   3   6
ATOM      6  S   UNL     1       5.365   5.027  18.021  0.00  0.00    +0.000 S 
ATOM      7  O   UNL     1       5.152   6.446  18.197  0.00  0.00    +0.000 OA
ATOM      8  O   UNL     1       6.389   4.336  18.787  0.00  0.00    +0.000 OA
BRANCH   6   9
ATOM      9  C   UNL     1       5.697   4.704  16.281  0.00  0.00    +0.000 A 
ATOM     10  C   UNL     1       5.656   5.743  15.358  0.00  0.00    +0.000 A 
ATOM     11  C   UNL     1       5.901   5.437  14.019  0.00  0.00    +0.000 A 
ATOM     12  C   UNL     1       6.175   4.120  13.660  0.00  0.00    +0.000 A 
ATOM     13 CL   UNL     1       6.491   3.708  12.025  0.00  0.00    +0.000 Cl
ATOM     14  C   UNL     1       6.201   3.152  14.657  0.00  0.00    +0.000 A 
ATOM     15  N   UNL     1       5.974   3.406  15.971  0.00  0.00    +0.000 NA
ENDBRANCH   6   9
ENDBRANCH   3   6
BRANCH   5  16
ATOM     16  O   UNL     1       1.665   2.571  19.530  0.00  0.00    +0.000 OA
ATOM     17  H   UNL     1       0.849   2.416  20.042  0.00  0.00    +0.000 HD
ENDBRANCH   5  16
BRANCH   1  18
ATOM     18  O   UNL     1       2.336   6.081  20.362  0.00  0.00    +0.000 OA
BRANCH  18  22
ATOM     19  C   UNL     1       0.820   9.862  19.504  0.00  0.00    +0.000 A 
ATOM     20  C   UNL     1       0.549   9.309  20.759  0.00  0.00    +0.000 A 
ATOM     21  C   UNL     1       1.054   8.048  21.103  0.00  0.00    +0.000 A 
ATOM     22  C   UNL     1       1.824   7.330  20.188  0.00  0.00    +0.000 A 
ATOM     23  C   UNL     1       2.119   7.899  18.946  0.00  0.00    +0.000 A 
ATOM     24  C   UNL     1       1.618   9.154  18.611  0.00  0.00    +0.000 A 
ATOM     25  F   UNL     1       1.913   9.665  17.408  0.00  0.00    +0.000 F 
BRANCH  19  27
ATOM     26  N   UNL     1      -0.196  12.161  18.876  0.00  0.00    +0.000 NA
ATOM     27  C   UNL     1       0.270  11.127  19.136  0.00  0.00    +0.000 C 
ENDBRANCH  19  27
ENDBRANCH  18  22
ENDBRANCH   1  18
BRANCH   5  28
ATOM     28  C   UNL     1       2.112   3.624  21.675  0.00  0.00    +0.000 C 
BRANCH  28  29
ATOM     29  N   UNL     1       1.424   2.422  22.156  0.00  0.00    +0.000 NA
ATOM     30  H   UNL     1       1.453   1.684  21.456  0.00  0.00    +0.000 HD
ATOM     31  H   UNL     1       0.441   2.647  22.315  0.00  0.00    +0.000 HD
ENDBRANCH  28  29
ENDBRANCH   5  28
TORSDOF 8
ENDMDL
