MODEL 1
REMARK VINA RESULT:      -8.8      0.000      0.000
REMARK  Name = 
REMARK  6 active torsions:
REMARK  status: ('A' for Active; 'I' for Inactive)
REMARK    1  A    between atoms: C_2  and  C_20
REMARK    2  A    between atoms: N_3  and  C_4
REMARK    3  A    between atoms: N_16  and  C_17
REMARK    4  A    between atoms: C_17  and  C_18
REMARK    5  A    between atoms: C_18  and  O_19
REMARK    6  A    between atoms: C_25  and  C_26
REMARK                            x       y       z     vdW  Elec       q    Type
REMARK                         _______ _______ _______ _____ _____    ______ ____
ROOT
ATOM      1  C   UNL     1       1.801   7.533  20.019  0.00  0.00    +0.000 A 
ATOM      2  C   UNL     1       1.654   6.374  20.779  0.00  0.00    +0.000 A 
ATOM      3  C   UNL     1       2.301   5.181  20.456  0.00  0.00    +0.000 A 
ATOM      4  C   UNL     1       3.117   5.164  19.324  0.00  0.00    +0.000 A 
ATOM      5  C   UNL     1       3.245   6.277  18.489  0.00  0.00    +0.000 A 
ATOM      6  C   UNL     1       2.555   7.472  18.835  0.00  0.00    +0.000 A 
ATOM      7  C   UNL     1       4.145   5.912  17.436  0.00  0.00    +0.000 A 
ATOM      8  C   UNL     1       4.662   6.584  16.311  0.00  0.00    +0.000 A 
ATOM      9  C   UNL     1       5.583   5.941  15.475  0.00  0.00    +0.000 A 
ATOM     10  C   UNL     1       5.986   4.637  15.738  0.00  0.00    +0.000 A 
ATOM     11  C   UNL     1       5.479   3.940  16.834  0.00  0.00    +0.000 A 
ATOM     12  C   UNL     1       4.560   4.596  17.671  0.00  0.00    +0.000 A 
ATOM     13  N   UNL     1       3.923   4.166  18.819  0.00  0.00    +0.000 N 
ENDROOT
BRANCH   1  16
ATOM     14  O   UNL     1      -0.656   7.973  21.524  0.00  0.00    +0.000 OA
ATOM     15  C   UNL     1       0.016   8.902  21.079  0.00  0.00    +0.000 C 
ATOM     16  N   UNL     1       1.222   8.774  20.410  0.00  0.00    +0.000 N 
ATOM     17  H   UNL     1       1.765   9.604  20.214  0.00  0.00    +0.000 HD
BRANCH  15  18
ATOM     18  C   UNL     1      -0.511  10.256  21.396  0.00  0.00    +0.000 A 
ATOM     19  C   UNL     1      -0.713  10.479  22.779  0.00  0.00    +0.000 A 
ATOM     20  C   UNL     1      -1.368  11.613  23.251  0.00  0.00    +0.000 A 
ATOM     21  C   UNL     1      -1.815  12.565  22.348  0.00  0.00    +0.000 A 
ATOM     22  C   UNL     1      -1.604  12.373  20.981  0.00  0.00    +0.000 A 
ATOM     23  C   UNL     1      -0.966  11.212  20.475  0.00  0.00    +0.000 A 
BRANCH  23  24
ATOM     24  C   UNL     1      -0.912  11.094  18.976  0.00  0.00    +0.000 C 
ATOM     25  F   UNL     1       0.320  11.034  18.419  0.00  0.00    +0.000 F 
ATOM     26  F   UNL     1      -1.573   9.992  18.523  0.00  0.00    +0.000 F 
ATOM     27  F   UNL     1      -1.522  12.157  18.375  0.00  0.00    +0.000 F 
ENDBRANCH  23  24
ENDBRANCH  15  18
ENDBRANCH   1  16
BRANCH  13  28
ATOM     28  C   UNL     1       4.165   2.882  19.466  0.00  0.00    +0.000 C 
BRANCH  28  29
ATOM     29  C   UNL     1       3.279   1.756  18.940  0.00  0.00    +0.000 C 
BRANCH  29  30
ATOM     30  O   UNL     1       4.028   0.725  18.306  0.00  0.00    +0.000 OA
ATOM     31  H   UNL     1       4.364   0.138  19.009  0.00  0.00    +0.000 HD
ENDBRANCH  29  30
ENDBRANCH  28  29
ENDBRANCH  13  28
TORSDOF 6
ENDMDL
MODEL 2
REMARK VINA RESULT:      -8.7      3.390      8.843
REMARK  Name = 
REMARK  6 active torsions:
REMARK  status: ('A' for Active; 'I' for Inactive)
REMARK    1  A    between atoms: C_2  and  C_20
REMARK    2  A    between atoms: N_3  and  C_4
REMARK    3  A    between atoms: N_16  and  C_17
REMARK    4  A    between atoms: C_17  and  C_18
REMARK    5  A    between atoms: C_18  and  O_19
REMARK    6  A    between atoms: C_25  and  C_26
REMARK                            x       y       z     vdW  Elec       q    Type
REMARK                         _______ _______ _______ _____ _____    ______ ____
ROOT
ATOM      1  C   UNL     1       2.101   7.755  19.137  0.00  0.00    +0.000 A 
ATOM      2  C   UNL     1       2.322   8.626  18.071  0.00  0.00    +0.000 A 
ATOM      3  C   UNL     1       1.856   9.941  18.071  0.00  0.00    +0.000 A 
ATOM      4  C   UNL     1       1.138  10.382  19.184  0.00  0.00    +0.000 A 
ATOM      5  C   UNL     1       0.831   9.531  20.249  0.00  0.00    +0.000 A 
ATOM      6  C   UNL     1       1.303   8.189  20.208  0.00  0.00    +0.000 A 
ATOM      7  C   UNL     1       0.094  10.303  21.205  0.00  0.00    +0.000 A 
ATOM      8  C   UNL     1      -0.484  10.018  22.458  0.00  0.00    +0.000 A 
ATOM      9  C   UNL     1      -1.119  11.035  23.182  0.00  0.00    +0.000 A 
ATOM     10  C   UNL     1      -1.193  12.326  22.670  0.00  0.00    +0.000 A 
ATOM     11  C   UNL     1      -0.645  12.633  21.426  0.00  0.00    +0.000 A 
ATOM     12  C   UNL     1      -0.005  11.607  20.710  0.00  0.00    +0.000 A 
ATOM     13  N   UNL     1       0.635  11.629  19.485  0.00  0.00    +0.000 N 
ENDROOT
BRANCH   1  16
ATOM     14  O   UNL     1       1.264   5.391  17.652  0.00  0.00    +0.000 OA
ATOM     15  C   UNL     1       2.173   5.358  18.480  0.00  0.00    +0.000 C 
ATOM     16  N   UNL     1       2.665   6.448  19.177  0.00  0.00    +0.000 N 
ATOM     17  H   UNL     1       3.509   6.341  19.724  0.00  0.00    +0.000 HD
BRANCH  15  18
ATOM     18  C   UNL     1       2.823   4.029  18.636  0.00  0.00    +0.000 A 
ATOM     19  C   UNL     1       3.496   3.584  17.472  0.00  0.00    +0.000 A 
ATOM     20  C   UNL     1       4.005   2.293  17.369  0.00  0.00    +0.000 A 
ATOM     21  C   UNL     1       3.873   1.422  18.438  0.00  0.00    +0.000 A 
ATOM     22  C   UNL     1       3.232   1.851  19.603  0.00  0.00    +0.000 A 
ATOM     23  C   UNL     1       2.680   3.151  19.721  0.00  0.00    +0.000 A 
BRANCH  23  24
ATOM     24  C   UNL     1       1.922   3.429  20.991  0.00  0.00    +0.000 C 
ATOM     25  F   UNL     1       0.596   3.670  20.863  0.00  0.00    +0.000 F 
ATOM     26  F   UNL     1       2.024   2.405  21.885  0.00  0.00    +0.000 F 
ATOM     27  F   UNL     1       2.421   4.525  21.633  0.00  0.00    +0.000 F 
ENDBRANCH  23  24
ENDBRANCH  15  18
ENDBRANCH   1  16
BRANCH  13  28
ATOM     28  C   UNL     1       0.847  12.829  18.686  0.00  0.00    +0.000 C 
BRANCH  28  29
ATOM     29  C   UNL     1      -0.445  13.472  18.193  0.00  0.00    +0.000 C 
BRANCH  29  30
ATOM     30  O   UNL     1      -1.163  12.633  17.295  0.00  0.00    +0.000 OA
ATOM     31  H   UNL     1      -0.540  11.953  16.975  0.00  0.00    +0.000 HD
ENDBRANCH  29  30
ENDBRANCH  28  29
ENDBRANCH  13  28
TORSDOF 6
ENDMDL
MODEL 3
REMARK VINA RESULT:      -8.6      3.433      8.761
REMARK  Name = 
REMARK  6 active torsions:
REMARK  status: ('A' for Active; 'I' for Inactive)
REMARK    1  A    between atoms: C_2  and  C_20
REMARK    2  A    between atoms: N_3  and  C_4
REMARK    3  A    between atoms: N_16  and  C_17
REMARK    4  A    between atoms: C_17  and  C_18
REMARK    5  A    between atoms: C_18  and  O_19
REMARK    6  A    between atoms: C_25  and  C_26
REMARK                            x       y       z     vdW  Elec       q    Type
REMARK                         _______ _______ _______ _____ _____    ______ ____
ROOT
ATOM      1  C   UNL     1       2.143   7.788  19.079  0.00  0.00    +0.000 A 
ATOM      2  C   UNL     1       2.386   8.632  17.997  0.00  0.00    +0.000 A 
ATOM      3  C   UNL     1       1.947   9.956  17.967  0.00  0.00    +0.000 A 
ATOM      4  C   UNL     1       1.235  10.435  19.068  0.00  0.00    +0.000 A 
ATOM      5  C   UNL     1       0.906   9.613  20.149  0.00  0.00    +0.000 A 
ATOM      6  C   UNL     1       1.350   8.261  20.138  0.00  0.00    +0.000 A 
ATOM      7  C   UNL     1       0.183  10.420  21.086  0.00  0.00    +0.000 A 
ATOM      8  C   UNL     1      -0.406  10.174  22.342  0.00  0.00    +0.000 A 
ATOM      9  C   UNL     1      -1.022  11.219  23.041  0.00  0.00    +0.000 A 
ATOM     10  C   UNL     1      -1.068  12.500  22.503  0.00  0.00    +0.000 A 
ATOM     11  C   UNL     1      -0.509  12.770  21.255  0.00  0.00    +0.000 A 
ATOM     12  C   UNL     1       0.112  11.716  20.563  0.00  0.00    +0.000 A 
ATOM     13  N   UNL     1       0.757  11.699  19.340  0.00  0.00    +0.000 N 
ENDROOT
BRANCH   1  16
ATOM     14  O   UNL     1       1.282   5.418  17.618  0.00  0.00    +0.000 OA
ATOM     15  C   UNL     1       2.176   5.380  18.461  0.00  0.00    +0.000 C 
ATOM     16  N   UNL     1       2.680   6.471  19.149  0.00  0.00    +0.000 N 
ATOM     17  H   UNL     1       3.513   6.356  19.711  0.00  0.00    +0.000 HD
BRANCH  15  18
ATOM     18  C   UNL     1       2.797   4.041  18.648  0.00  0.00    +0.000 A 
ATOM     19  C   UNL     1       3.484   3.567  17.505  0.00  0.00    +0.000 A 
ATOM     20  C   UNL     1       3.969   2.264  17.430  0.00  0.00    +0.000 A 
ATOM     21  C   UNL     1       3.798   1.411  18.508  0.00  0.00    +0.000 A 
ATOM     22  C   UNL     1       3.142   1.868  19.652  0.00  0.00    +0.000 A 
ATOM     23  C   UNL     1       2.613   3.181  19.741  0.00  0.00    +0.000 A 
BRANCH  23  24
ATOM     24  C   UNL     1       1.835   3.491  20.992  0.00  0.00    +0.000 C 
ATOM     25  F   UNL     1       1.691   2.480  21.881  0.00  0.00    +0.000 F 
ATOM     26  F   UNL     1       2.382   4.523  21.695  0.00  0.00    +0.000 F 
ATOM     27  F   UNL     1       0.563   3.886  20.695  0.00  0.00    +0.000 F 
ENDBRANCH  23  24
ENDBRANCH  15  18
ENDBRANCH   1  16
BRANCH  13  28
ATOM     28  C   UNL     1       0.998  12.877  18.517  0.00  0.00    +0.000 C 
BRANCH  28  29
ATOM     29  C   UNL     1       2.353  13.531  18.767  0.00  0.00    +0.000 C 
BRANCH  29  30
ATOM     30  O   UNL     1       3.313  13.191  17.773  0.00  0.00    +0.000 OA
ATOM     31  H   UNL     1       2.833  13.089  16.930  0.00  0.00    +0.000 HD
ENDBRANCH  29  30
ENDBRANCH  28  29
ENDBRANCH  13  28
TORSDOF 6
ENDMDL
MODEL 4
REMARK VINA RESULT:      -8.6      3.175      8.834
REMARK  Name = 
REMARK  6 active torsions:
REMARK  status: ('A' for Active; 'I' for Inactive)
REMARK    1  A    between atoms: C_2  and  C_20
REMARK    2  A    between atoms: N_3  and  C_4
REMARK    3  A    between atoms: N_16  and  C_17
REMARK    4  A    between atoms: C_17  and  C_18
REMARK    5  A    between atoms: C_18  and  O_19
REMARK    6  A    between atoms: C_25  and  C_26
REMARK                            x       y       z     vdW  Elec       q    Type
REMARK                         _______ _______ _______ _____ _____    ______ ____
ROOT
ATOM      1  C   UNL     1       1.263   9.331  18.258  0.00  0.00    +0.000 A 
ATOM      2  C   UNL     1       1.686  10.186  19.274  0.00  0.00    +0.000 A 
ATOM      3  C   UNL     1       0.837  11.123  19.865  0.00  0.00    +0.000 A 
ATOM      4  C   UNL     1      -0.479  11.196  19.405  0.00  0.00    +0.000 A 
ATOM      5  C   UNL     1      -0.935  10.410  18.343  0.00  0.00    +0.000 A 
ATOM      6  C   UNL     1      -0.037   9.480  17.748  0.00  0.00    +0.000 A 
ATOM      7  C   UNL     1      -2.314  10.740  18.138  0.00  0.00    +0.000 A 
ATOM      8  C   UNL     1      -3.303  10.300  17.236  0.00  0.00    +0.000 A 
ATOM      9  C   UNL     1      -4.606  10.807  17.326  0.00  0.00    +0.000 A 
ATOM     10  C   UNL     1      -4.932  11.750  18.294  0.00  0.00    +0.000 A 
ATOM     11  C   UNL     1      -3.970  12.217  19.188  0.00  0.00    +0.000 A 
ATOM     12  C   UNL     1      -2.667  11.699  19.093  0.00  0.00    +0.000 A 
ATOM     13  N   UNL     1      -1.539  11.958  19.849  0.00  0.00    +0.000 N 
ENDROOT
BRANCH   1  16
ATOM     14  O   UNL     1       2.402   7.042  19.657  0.00  0.00    +0.000 OA
ATOM     15  C   UNL     1       2.651   7.280  18.477  0.00  0.00    +0.000 C 
ATOM     16  N   UNL     1       2.102   8.309  17.730  0.00  0.00    +0.000 N 
ATOM     17  H   UNL     1       2.260   8.330  16.731  0.00  0.00    +0.000 HD
BRANCH  15  18
ATOM     18  C   UNL     1       3.551   6.293  17.822  0.00  0.00    +0.000 A 
ATOM     19  C   UNL     1       4.749   6.859  17.323  0.00  0.00    +0.000 A 
ATOM     20  C   UNL     1       5.626   6.131  16.523  0.00  0.00    +0.000 A 
ATOM     21  C   UNL     1       5.335   4.810  16.223  0.00  0.00    +0.000 A 
ATOM     22  C   UNL     1       4.169   4.229  16.725  0.00  0.00    +0.000 A 
ATOM     23  C   UNL     1       3.246   4.958  17.516  0.00  0.00    +0.000 A 
BRANCH  23  24
ATOM     24  C   UNL     1       1.982   4.231  17.889  0.00  0.00    +0.000 C 
ATOM     25  F   UNL     1       1.664   4.207  19.204  0.00  0.00    +0.000 F 
ATOM     26  F   UNL     1       0.889   4.743  17.256  0.00  0.00    +0.000 F 
ATOM     27  F   UNL     1       2.039   2.920  17.513  0.00  0.00    +0.000 F 
ENDBRANCH  23  24
ENDBRANCH  15  18
ENDBRANCH   1  16
BRANCH  13  28
ATOM     28  C   UNL     1      -1.510  12.825  21.020  0.00  0.00    +0.000 C 
BRANCH  28  29
ATOM     29  C   UNL     1      -1.806  12.096  22.327  0.00  0.00    +0.000 C 
BRANCH  29  30
ATOM     30  O   UNL     1      -0.624  11.771  23.049  0.00  0.00    +0.000 OA
ATOM     31  H   UNL     1      -0.298  10.919  22.703  0.00  0.00    +0.000 HD
ENDBRANCH  29  30
ENDBRANCH  28  29
ENDBRANCH  13  28
TORSDOF 6
ENDMDL
MODEL 5
REMARK VINA RESULT:      -8.5      1.299      1.455
REMARK  Name = 
REMARK  6 active torsions:
REMARK  status: ('A' for Active; 'I' for Inactive)
REMARK    1  A    between atoms: C_2  and  C_20
REMARK    2  A    between atoms: N_3  and  C_4
REMARK    3  A    between atoms: N_16  and  C_17
REMARK    4  A    between atoms: C_17  and  C_18
REMARK    5  A    between atoms: C_18  and  O_19
REMARK    6  A    between atoms: C_25  and  C_26
REMARK                            x       y       z     vdW  Elec       q    Type
REMARK                         _______ _______ _______ _____ _____    ______ ____
ROOT
ATOM      1  C   UNL     1       1.695   7.559  20.353  0.00  0.00    +0.000 A 
ATOM      2  C   UNL     1       1.323   6.324  20.884  0.00  0.00    +0.000 A 
ATOM      3  C   UNL     1       1.770   5.115  20.351  0.00  0.00    +0.000 A 
ATOM      4  C   UNL     1       2.617   5.162  19.241  0.00  0.00    +0.000 A 
ATOM      5  C   UNL     1       2.966   6.368  18.629  0.00  0.00    +0.000 A 
ATOM      6  C   UNL     1       2.475   7.583  19.185  0.00  0.00    +0.000 A 
ATOM      7  C   UNL     1       3.833   6.049  17.534  0.00  0.00    +0.000 A 
ATOM      8  C   UNL     1       4.501   6.814  16.558  0.00  0.00    +0.000 A 
ATOM      9  C   UNL     1       5.333   6.183  15.624  0.00  0.00    +0.000 A 
ATOM     10  C   UNL     1       5.498   4.802  15.644  0.00  0.00    +0.000 A 
ATOM     11  C   UNL     1       4.836   4.018  16.588  0.00  0.00    +0.000 A 
ATOM     12  C   UNL     1       4.008   4.661  17.524  0.00  0.00    +0.000 A 
ATOM     13  N   UNL     1       3.262   4.147  18.567  0.00  0.00    +0.000 N 
ENDROOT
BRANCH   1  16
ATOM     14  O   UNL     1      -0.349   9.444  19.481  0.00  0.00    +0.000 OA
ATOM     15  C   UNL     1       0.372   9.661  20.453  0.00  0.00    +0.000 C 
ATOM     16  N   UNL     1       1.319   8.789  20.963  0.00  0.00    +0.000 N 
ATOM     17  H   UNL     1       1.755   9.001  21.851  0.00  0.00    +0.000 HD
BRANCH  15  18
ATOM     18  C   UNL     1       0.095  10.942  21.158  0.00  0.00    +0.000 A 
ATOM     19  C   UNL     1      -0.684  10.790  22.329  0.00  0.00    +0.000 A 
ATOM     20  C   UNL     1      -1.195  11.887  23.017  0.00  0.00    +0.000 A 
ATOM     21  C   UNL     1      -0.918  13.165  22.560  0.00  0.00    +0.000 A 
ATOM     22  C   UNL     1      -0.133  13.335  21.418  0.00  0.00    +0.000 A 
ATOM     23  C   UNL     1       0.374  12.233  20.684  0.00  0.00    +0.000 A 
BRANCH  23  24
ATOM     24  C   UNL     1       1.107  12.571  19.414  0.00  0.00    +0.000 C 
ATOM     25  F   UNL     1       2.234  11.865  19.160  0.00  0.00    +0.000 F 
ATOM     26  F   UNL     1       0.322  12.418  18.311  0.00  0.00    +0.000 F 
ATOM     27  F   UNL     1       1.498  13.879  19.405  0.00  0.00    +0.000 F 
ENDBRANCH  23  24
ENDBRANCH  15  18
ENDBRANCH   1  16
BRANCH  13  28
ATOM     28  C   UNL     1       3.256   2.745  18.966  0.00  0.00    +0.000 C 
BRANCH  28  29
ATOM     29  C   UNL     1       4.191   2.438  20.132  0.00  0.00    +0.000 C 
BRANCH  29  30
ATOM     30  O   UNL     1       5.125   1.409  19.824  0.00  0.00    +0.000 OA
ATOM     31  H   UNL     1       6.017   1.798  19.896  0.00  0.00    +0.000 HD
ENDBRANCH  29  30
ENDBRANCH  28  29
ENDBRANCH  13  28
TORSDOF 6
ENDMDL
MODEL 6
REMARK VINA RESULT:      -8.5      1.951      2.354
REMARK  Name = 
REMARK  6 active torsions:
REMARK  status: ('A' for Active; 'I' for Inactive)
REMARK    1  A    between atoms: C_2  and  C_20
REMARK    2  A    between atoms: N_3  and  C_4
REMARK    3  A    between atoms: N_16  and  C_17
REMARK    4  A    between atoms: C_17  and  C_18
REMARK    5  A    between atoms: C_18  and  O_19
REMARK    6  A    between atoms: C_25  and  C_26
REMARK                            x       y       z     vdW  Elec       q    Type
REMARK                         _______ _______ _______ _____ _____    ______ ____
ROOT
ATOM      1  C   UNL     1       1.904   7.490  19.957  0.00  0.00    +0.000 A 
ATOM      2  C   UNL     1       1.531   6.290  20.561  0.00  0.00    +0.000 A 
ATOM      3  C   UNL     1       1.998   5.053  20.117  0.00  0.00    +0.000 A 
ATOM      4  C   UNL     1       2.865   5.034  19.023  0.00  0.00    +0.000 A 
ATOM      5  C   UNL     1       3.217   6.201  18.340  0.00  0.00    +0.000 A 
ATOM      6  C   UNL     1       2.706   7.444  18.805  0.00  0.00    +0.000 A 
ATOM      7  C   UNL     1       4.108   5.817  17.285  0.00  0.00    +0.000 A 
ATOM      8  C   UNL     1       4.789   6.522  16.273  0.00  0.00    +0.000 A 
ATOM      9  C   UNL     1       5.643   5.838  15.398  0.00  0.00    +0.000 A 
ATOM     10  C   UNL     1       5.818   4.464  15.513  0.00  0.00    +0.000 A 
ATOM     11  C   UNL     1       5.144   3.737  16.493  0.00  0.00    +0.000 A 
ATOM     12  C   UNL     1       4.294   4.434  17.369  0.00  0.00    +0.000 A 
ATOM     13  N   UNL     1       3.531   3.982  18.430  0.00  0.00    +0.000 N 
ENDROOT
BRANCH   1  16
ATOM     14  O   UNL     1       0.068   9.421  18.776  0.00  0.00    +0.000 OA
ATOM     15  C   UNL     1       0.669   9.644  19.825  0.00  0.00    +0.000 C 
ATOM     16  N   UNL     1       1.507   8.755  20.477  0.00  0.00    +0.000 N 
ATOM     17  H   UNL     1       1.836   8.981  21.406  0.00  0.00    +0.000 HD
BRANCH  15  18
ATOM     18  C   UNL     1       0.360  10.959  20.450  0.00  0.00    +0.000 A 
ATOM     19  C   UNL     1       0.799  12.068  19.688  0.00  0.00    +0.000 A 
ATOM     20  C   UNL     1       0.762  13.365  20.194  0.00  0.00    +0.000 A 
ATOM     21  C   UNL     1       0.262  13.584  21.467  0.00  0.00    +0.000 A 
ATOM     22  C   UNL     1      -0.196  12.504  22.225  0.00  0.00    +0.000 A 
ATOM     23  C   UNL     1      -0.141  11.171  21.743  0.00  0.00    +0.000 A 
BRANCH  23  24
ATOM     24  C   UNL     1      -0.565  10.104  22.715  0.00  0.00    +0.000 C 
ATOM     25  F   UNL     1       0.389   9.638  23.555  0.00  0.00    +0.000 F 
ATOM     26  F   UNL     1      -1.589  10.516  23.516  0.00  0.00    +0.000 F 
ATOM     27  F   UNL     1      -1.034   9.001  22.063  0.00  0.00    +0.000 F 
ENDBRANCH  23  24
ENDBRANCH  15  18
ENDBRANCH   1  16
BRANCH  13  28
ATOM     28  C   UNL     1       3.528   2.610  18.920  0.00  0.00    +0.000 C 
BRANCH  28  29
ATOM     29  C   UNL     1       4.423   2.394  20.137  0.00  0.00    +0.000 C 
BRANCH  29  30
ATOM     30  O   UNL     1       5.248   1.242  20.008  0.00  0.00    +0.000 OA
ATOM     31  H   UNL     1       5.391   0.886  20.905  0.00  0.00    +0.000 HD
ENDBRANCH  29  30
ENDBRANCH  28  29
ENDBRANCH  13  28
TORSDOF 6
ENDMDL
MODEL 7
REMARK VINA RESULT:      -8.5      3.384      9.008
REMARK  Name = 
REMARK  6 active torsions:
REMARK  status: ('A' for Active; 'I' for Inactive)
REMARK    1  A    between atoms: C_2  and  C_20
REMARK    2  A    between atoms: N_3  and  C_4
REMARK    3  A    between atoms: N_16  and  C_17
REMARK    4  A    between atoms: C_17  and  C_18
REMARK    5  A    between atoms: C_18  and  O_19
REMARK    6  A    between atoms: C_25  and  C_26
REMARK                            x       y       z     vdW  Elec       q    Type
REMARK                         _______ _______ _______ _____ _____    ______ ____
ROOT
ATOM      1  C   UNL     1       1.387   9.356  18.049  0.00  0.00    +0.000 A 
ATOM      2  C   UNL     1       1.916  10.389  18.821  0.00  0.00    +0.000 A 
ATOM      3  C   UNL     1       1.124  11.404  19.359  0.00  0.00    +0.000 A 
ATOM      4  C   UNL     1      -0.248  11.370  19.100  0.00  0.00    +0.000 A 
ATOM      5  C   UNL     1      -0.820  10.396  18.277  0.00  0.00    +0.000 A 
ATOM      6  C   UNL     1       0.020   9.389  17.726  0.00  0.00    +0.000 A 
ATOM      7  C   UNL     1      -2.227  10.661  18.230  0.00  0.00    +0.000 A 
ATOM      8  C   UNL     1      -3.319  10.047  17.583  0.00  0.00    +0.000 A 
ATOM      9  C   UNL     1      -4.615  10.540  17.780  0.00  0.00    +0.000 A 
ATOM     10  C   UNL     1      -4.836  11.638  18.603  0.00  0.00    +0.000 A 
ATOM     11  C   UNL     1      -3.774  12.276  19.242  0.00  0.00    +0.000 A 
ATOM     12  C   UNL     1      -2.477  11.771  19.042  0.00  0.00    +0.000 A 
ATOM     13  N   UNL     1      -1.263  12.183  19.558  0.00  0.00    +0.000 N 
ENDROOT
BRANCH   1  16
ATOM     14  O   UNL     1       2.497   7.158  19.608  0.00  0.00    +0.000 OA
ATOM     15  C   UNL     1       2.722   7.290  18.406  0.00  0.00    +0.000 C 
ATOM     16  N   UNL     1       2.183   8.270  17.589  0.00  0.00    +0.000 N 
ATOM     17  H   UNL     1       2.316   8.203  16.589  0.00  0.00    +0.000 HD
BRANCH  15  18
ATOM     18  C   UNL     1       3.578   6.226  17.815  0.00  0.00    +0.000 A 
ATOM     19  C   UNL     1       4.817   6.700  17.323  0.00  0.00    +0.000 A 
ATOM     20  C   UNL     1       5.667   5.889  16.575  0.00  0.00    +0.000 A 
ATOM     21  C   UNL     1       5.306   4.576  16.323  0.00  0.00    +0.000 A 
ATOM     22  C   UNL     1       4.097   4.084  16.820  0.00  0.00    +0.000 A 
ATOM     23  C   UNL     1       3.202   4.899  17.558  0.00  0.00    +0.000 A 
BRANCH  23  24
ATOM     24  C   UNL     1       1.890   4.262  17.930  0.00  0.00    +0.000 C 
ATOM     25  F   UNL     1       1.524   4.347  19.230  0.00  0.00    +0.000 F 
ATOM     26  F   UNL     1       0.847   4.782  17.221  0.00  0.00    +0.000 F 
ATOM     27  F   UNL     1       1.892   2.927  17.647  0.00  0.00    +0.000 F 
ENDBRANCH  23  24
ENDBRANCH  15  18
ENDBRANCH   1  16
BRANCH  13  28
ATOM     28  C   UNL     1      -1.100  13.248  20.539  0.00  0.00    +0.000 C 
BRANCH  28  29
ATOM     29  C   UNL     1      -0.539  14.539  19.951  0.00  0.00    +0.000 C 
BRANCH  29  30
ATOM     30  O   UNL     1      -0.717  14.618  18.541  0.00  0.00    +0.000 OA
ATOM     31  H   UNL     1       0.095  14.270  18.127  0.00  0.00    +0.000 HD
ENDBRANCH  29  30
ENDBRANCH  28  29
ENDBRANCH  13  28
TORSDOF 6
ENDMDL
MODEL 8
REMARK VINA RESULT:      -8.4      1.945      2.364
REMARK  Name = 
REMARK  6 active torsions:
REMARK  status: ('A' for Active; 'I' for Inactive)
REMARK    1  A    between atoms: C_2  and  C_20
REMARK    2  A    between atoms: N_3  and  C_4
REMARK    3  A    between atoms: N_16  and  C_17
REMARK    4  A    between atoms: C_17  and  C_18
REMARK    5  A    between atoms: C_18  and  O_19
REMARK    6  A    between atoms: C_25  and  C_26
REMARK                            x       y       z     vdW  Elec       q    Type
REMARK                         _______ _______ _______ _____ _____    ______ ____
ROOT
ATOM      1  C   UNL     1       2.030   7.463  19.905  0.00  0.00    +0.000 A 
ATOM      2  C   UNL     1       1.742   6.256  20.540  0.00  0.00    +0.000 A 
ATOM      3  C   UNL     1       2.261   5.038  20.102  0.00  0.00    +0.000 A 
ATOM      4  C   UNL     1       3.094   5.045  18.981  0.00  0.00    +0.000 A 
ATOM      5  C   UNL     1       3.360   6.217  18.268  0.00  0.00    +0.000 A 
ATOM      6  C   UNL     1       2.797   7.440  18.728  0.00  0.00    +0.000 A 
ATOM      7  C   UNL     1       4.237   5.863  17.191  0.00  0.00    +0.000 A 
ATOM      8  C   UNL     1       4.848   6.585  16.147  0.00  0.00    +0.000 A 
ATOM      9  C   UNL     1       5.710   5.932  15.257  0.00  0.00    +0.000 A 
ATOM     10  C   UNL     1       5.963   4.571  15.388  0.00  0.00    +0.000 A 
ATOM     11  C   UNL     1       5.360   3.828  16.401  0.00  0.00    +0.000 A 
ATOM     12  C   UNL     1       4.501   4.493  17.293  0.00  0.00    +0.000 A 
ATOM     13  N   UNL     1       3.797   4.021  18.384  0.00  0.00    +0.000 N 
ENDROOT
BRANCH   1  16
ATOM     14  O   UNL     1       0.202   9.361  18.660  0.00  0.00    +0.000 OA
ATOM     15  C   UNL     1       0.752   9.589  19.735  0.00  0.00    +0.000 C 
ATOM     16  N   UNL     1       1.582   8.714  20.416  0.00  0.00    +0.000 N 
ATOM     17  H   UNL     1       1.865   8.940  21.361  0.00  0.00    +0.000 HD
BRANCH  15  18
ATOM     18  C   UNL     1       0.386  10.891  20.356  0.00  0.00    +0.000 A 
ATOM     19  C   UNL     1       0.775  12.015  19.591  0.00  0.00    +0.000 A 
ATOM     20  C   UNL     1       0.681  13.311  20.092  0.00  0.00    +0.000 A 
ATOM     21  C   UNL     1       0.172  13.513  21.365  0.00  0.00    +0.000 A 
ATOM     22  C   UNL     1      -0.238  12.416  22.126  0.00  0.00    +0.000 A 
ATOM     23  C   UNL     1      -0.124  11.086  21.648  0.00  0.00    +0.000 A 
BRANCH  23  24
ATOM     24  C   UNL     1      -0.501  10.004  22.625  0.00  0.00    +0.000 C 
ATOM     25  F   UNL     1      -1.447  10.319  23.540  0.00  0.00    +0.000 F 
ATOM     26  F   UNL     1      -0.956   8.882  21.998  0.00  0.00    +0.000 F 
ATOM     27  F   UNL     1       0.579   9.600  23.355  0.00  0.00    +0.000 F 
ENDBRANCH  23  24
ENDBRANCH  15  18
ENDBRANCH   1  16
BRANCH  13  28
ATOM     28  C   UNL     1       3.883   2.659  18.897  0.00  0.00    +0.000 C 
BRANCH  28  29
ATOM     29  C   UNL     1       2.919   1.689  18.221  0.00  0.00    +0.000 C 
BRANCH  29  30
ATOM     30  O   UNL     1       1.697   1.550  18.938  0.00  0.00    +0.000 OA
ATOM     31  H   UNL     1       1.133   2.310  18.699  0.00  0.00    +0.000 HD
ENDBRANCH  29  30
ENDBRANCH  28  29
ENDBRANCH  13  28
TORSDOF 6
ENDMDL
MODEL 9
REMARK VINA RESULT:      -8.3      1.195      1.432
REMARK  Name = 
REMARK  6 active torsions:
REMARK  status: ('A' for Active; 'I' for Inactive)
REMARK    1  A    between atoms: C_2  and  C_20
REMARK    2  A    between atoms: N_3  and  C_4
REMARK    3  A    between atoms: N_16  and  C_17
REMARK    4  A    between atoms: C_17  and  C_18
REMARK    5  A    between atoms: C_18  and  O_19
REMARK    6  A    between atoms: C_25  and  C_26
REMARK                            x       y       z     vdW  Elec       q    Type
REMARK                         _______ _______ _______ _____ _____    ______ ____
ROOT
ATOM      1  C   UNL     1       2.218   7.828  19.014  0.00  0.00    +0.000 A 
ATOM      2  C   UNL     1       2.040   6.834  19.975  0.00  0.00    +0.000 A 
ATOM      3  C   UNL     1       2.677   5.595  19.898  0.00  0.00    +0.000 A 
ATOM      4  C   UNL     1       3.517   5.358  18.808  0.00  0.00    +0.000 A 
ATOM      5  C   UNL     1       3.678   6.293  17.782  0.00  0.00    +0.000 A 
ATOM      6  C   UNL     1       2.996   7.538  17.881  0.00  0.00    +0.000 A 
ATOM      7  C   UNL     1       4.595   5.729  16.838  0.00  0.00    +0.000 A 
ATOM      8  C   UNL     1       5.144   6.173  15.619  0.00  0.00    +0.000 A 
ATOM      9  C   UNL     1       6.074   5.375  14.940  0.00  0.00    +0.000 A 
ATOM     10  C   UNL     1       6.454   4.140  15.453  0.00  0.00    +0.000 A 
ATOM     11  C   UNL     1       5.915   3.667  16.648  0.00  0.00    +0.000 A 
ATOM     12  C   UNL     1       4.987   4.477  17.325  0.00  0.00    +0.000 A 
ATOM     13  N   UNL     1       4.320   4.276  18.519  0.00  0.00    +0.000 N 
ENDROOT
BRANCH   1  16
ATOM     14  O   UNL     1       0.177   8.701  20.903  0.00  0.00    +0.000 OA
ATOM     15  C   UNL     1       0.636   9.448  20.041  0.00  0.00    +0.000 C 
ATOM     16  N   UNL     1       1.647   9.125  19.152  0.00  0.00    +0.000 N 
ATOM     17  H   UNL     1       2.052   9.856  18.582  0.00  0.00    +0.000 HD
BRANCH  15  18
ATOM     18  C   UNL     1       0.088  10.831  20.063  0.00  0.00    +0.000 A 
ATOM     19  C   UNL     1       0.568  11.617  21.137  0.00  0.00    +0.000 A 
ATOM     20  C   UNL     1       0.033  12.869  21.426  0.00  0.00    +0.000 A 
ATOM     21  C   UNL     1      -0.982  13.375  20.630  0.00  0.00    +0.000 A 
ATOM     22  C   UNL     1      -1.453  12.623  19.552  0.00  0.00    +0.000 A 
ATOM     23  C   UNL     1      -0.945  11.333  19.256  0.00  0.00    +0.000 A 
BRANCH  23  24
ATOM     24  C   UNL     1      -1.629  10.599  18.134  0.00  0.00    +0.000 C 
ATOM     25  F   UNL     1      -2.481   9.610  18.491  0.00  0.00    +0.000 F 
ATOM     26  F   UNL     1      -2.352  11.436  17.338  0.00  0.00    +0.000 F 
ATOM     27  F   UNL     1      -0.720  10.004  17.308  0.00  0.00    +0.000 F 
ENDBRANCH  23  24
ENDBRANCH  15  18
ENDBRANCH   1  16
BRANCH  13  28
ATOM     28  C   UNL     1       4.531   3.135  19.400  0.00  0.00    +0.000 C 
BRANCH  28  29
ATOM     29  C   UNL     1       3.635   1.942  19.081  0.00  0.00    +0.000 C 
BRANCH  29  30
ATOM     30  O   UNL     1       4.358   0.856  18.511  0.00  0.00    +0.000 OA
ATOM     31  H   UNL     1       5.269   0.902  18.855  0.00  0.00    +0.000 HD
ENDBRANCH  29  30
ENDBRANCH  28  29
ENDBRANCH  13  28
TORSDOF 6
ENDMDL
