MODEL 1
REMARK VINA RESULT:      -8.1      0.000      0.000
REMARK  Name = 
REMARK  4 active torsions:
REMARK  status: ('A' for Active; 'I' for Inactive)
REMARK    1  A    between atoms: N_11  and  C_12
REMARK    2  A    between atoms: C_12  and  C_13
REMARK    3  A    between atoms: N_15  and  C_16
REMARK    4  A    between atoms: C_19  and  N_20
REMARK                            x       y       z     vdW  Elec       q    Type
REMARK                         _______ _______ _______ _____ _____    ______ ____
ROOT
ATOM      1  C   UNL     1       2.411   6.240  19.827  0.00  0.00    +0.000 A 
ATOM      2  C   UNL     1       1.816   6.872  20.898  0.00  0.00    +0.000 A 
ATOM      3  N   UNL     1       1.484   8.122  20.432  0.00  0.00    +0.000 N 
ATOM      4  N   UNL     1       1.929   8.260  19.161  0.00  0.00    +0.000 NA
ATOM      5  N   UNL     1       2.498   7.123  18.787  0.00  0.00    +0.000 NA
ENDROOT
BRANCH   3   6
ATOM      6  C   UNL     1       0.747   9.142  21.086  0.00  0.00    +0.000 A 
ATOM      7  C   UNL     1       0.635  10.416  20.511  0.00  0.00    +0.000 A 
ATOM      8  C   UNL     1      -0.079  11.424  21.164  0.00  0.00    +0.000 A 
ATOM      9  C   UNL     1      -0.669  11.159  22.406  0.00  0.00    +0.000 A 
ATOM     10  C   UNL     1      -0.558   9.893  22.993  0.00  0.00    +0.000 A 
ATOM     11  C   UNL     1       0.144   8.881  22.328  0.00  0.00    +0.000 A 
BRANCH   9  12
ATOM     12  N   UNL     1      -1.406  12.224  23.097  0.00  0.00    +0.000 N 
ATOM     13  O   UNL     1      -2.613  12.044  23.311  0.00  0.00    +0.000 OA
ATOM     14  O   UNL     1      -0.778  13.243  23.428  0.00  0.00    +0.000 OA
ENDBRANCH   9  12
ENDBRANCH   3   6
BRANCH   1  15
ATOM     15  C   UNL     1       2.811   4.819  19.668  0.00  0.00    +0.000 C 
BRANCH  15  26
ATOM     16  O   UNL     1       5.722   5.482  19.658  0.00  0.00    +0.000 OA
ATOM     17  C   UNL     1       5.110   5.013  18.720  0.00  0.00    +0.000 C 
ATOM     18  C   UNL     1       5.710   4.744  17.412  0.00  0.00    +0.000 A 
ATOM     19  C   UNL     1       7.006   4.915  16.969  0.00  0.00    +0.000 A 
ATOM     20  C   UNL     1       7.279   4.564  15.643  0.00  0.00    +0.000 A 
ATOM     21  C   UNL     1       6.264   4.061  14.803  0.00  0.00    +0.000 A 
ATOM     22  C   UNL     1       4.956   3.908  15.271  0.00  0.00    +0.000 A 
ATOM     23  C   UNL     1       4.712   4.257  16.586  0.00  0.00    +0.000 A 
ATOM     24  C   UNL     1       3.479   4.212  17.367  0.00  0.00    +0.000 C 
ATOM     25  O   UNL     1       2.403   3.845  16.933  0.00  0.00    +0.000 OA
ATOM     26  N   UNL     1       3.791   4.664  18.618  0.00  0.00    +0.000 N 
ENDBRANCH  15  26
ENDBRANCH   1  15
TORSDOF 4
ENDMDL
MODEL 2
REMARK VINA RESULT:      -8.1      0.289      1.842
REMARK  Name = 
REMARK  4 active torsions:
REMARK  status: ('A' for Active; 'I' for Inactive)
REMARK    1  A    between atoms: N_11  and  C_12
REMARK    2  A    between atoms: C_12  and  C_13
REMARK    3  A    between atoms: N_15  and  C_16
REMARK    4  A    between atoms: C_19  and  N_20
REMARK                            x       y       z     vdW  Elec       q    Type
REMARK                         _______ _______ _______ _____ _____    ______ ____
ROOT
ATOM      1  C   UNL     1       2.446   6.305  19.888  0.00  0.00    +0.000 A 
ATOM      2  C   UNL     1       1.792   6.891  20.951  0.00  0.00    +0.000 A 
ATOM      3  N   UNL     1       1.399   8.125  20.487  0.00  0.00    +0.000 N 
ATOM      4  N   UNL     1       1.862   8.301  19.229  0.00  0.00    +0.000 NA
ATOM      5  N   UNL     1       2.505   7.202  18.858  0.00  0.00    +0.000 NA
ENDROOT
BRANCH   3   6
ATOM      6  C   UNL     1       0.589   9.093  21.133  0.00  0.00    +0.000 A 
ATOM      7  C   UNL     1       0.015  10.141  20.399  0.00  0.00    +0.000 A 
ATOM      8  C   UNL     1      -0.770  11.103  21.040  0.00  0.00    +0.000 A 
ATOM      9  C   UNL     1      -0.967  11.025  22.424  0.00  0.00    +0.000 A 
ATOM     10  C   UNL     1      -0.393   9.988  23.168  0.00  0.00    +0.000 A 
ATOM     11  C   UNL     1       0.379   9.017  22.521  0.00  0.00    +0.000 A 
BRANCH   9  12
ATOM     12  N   UNL     1      -1.780  12.046  23.097  0.00  0.00    +0.000 N 
ATOM     13  O   UNL     1      -1.195  13.036  23.557  0.00  0.00    +0.000 OA
ATOM     14  O   UNL     1      -3.006  11.858  23.165  0.00  0.00    +0.000 OA
ENDBRANCH   9  12
ENDBRANCH   3   6
BRANCH   1  15
ATOM     15  C   UNL     1       2.931   4.911  19.726  0.00  0.00    +0.000 C 
BRANCH  15  26
ATOM     16  O   UNL     1       2.464   3.935  16.943  0.00  0.00    +0.000 OA
ATOM     17  C   UNL     1       3.530   4.327  17.376  0.00  0.00    +0.000 C 
ATOM     18  C   UNL     1       4.769   4.333  16.598  0.00  0.00    +0.000 A 
ATOM     19  C   UNL     1       5.008   3.956  15.291  0.00  0.00    +0.000 A 
ATOM     20  C   UNL     1       6.321   4.076  14.822  0.00  0.00    +0.000 A 
ATOM     21  C   UNL     1       7.348   4.560  15.659  0.00  0.00    +0.000 A 
ATOM     22  C   UNL     1       7.083   4.925  16.983  0.00  0.00    +0.000 A 
ATOM     23  C   UNL     1       5.779   4.801  17.421  0.00  0.00    +0.000 A 
ATOM     24  C   UNL     1       5.182   5.096  18.721  0.00  0.00    +0.000 C 
ATOM     25  O   UNL     1       5.800   5.513  19.682  0.00  0.00    +0.000 OA
ATOM     26  N   UNL     1       3.852   4.801  18.618  0.00  0.00    +0.000 N 
ENDBRANCH  15  26
ENDBRANCH   1  15
TORSDOF 4
ENDMDL
MODEL 3
REMARK VINA RESULT:      -8.0      1.996      2.357
REMARK  Name = 
REMARK  4 active torsions:
REMARK  status: ('A' for Active; 'I' for Inactive)
REMARK    1  A    between atoms: N_11  and  C_12
REMARK    2  A    between atoms: C_12  and  C_13
REMARK    3  A    between atoms: N_15  and  C_16
REMARK    4  A    between atoms: C_19  and  N_20
REMARK                            x       y       z     vdW  Elec       q    Type
REMARK                         _______ _______ _______ _____ _____    ______ ____
ROOT
ATOM      1  C   UNL     1       2.933   4.963  19.865  0.00  0.00    +0.000 A 
ATOM      2  C   UNL     1       2.842   6.160  19.188  0.00  0.00    +0.000 A 
ATOM      3  N   UNL     1       1.964   6.918  19.927  0.00  0.00    +0.000 N 
ATOM      4  N   UNL     1       1.492   6.180  20.959  0.00  0.00    +0.000 NA
ATOM      5  N   UNL     1       2.071   4.988  20.925  0.00  0.00    +0.000 NA
ENDROOT
BRANCH   3   6
ATOM      6  C   UNL     1       1.600   8.276  19.745  0.00  0.00    +0.000 A 
ATOM      7  C   UNL     1       1.797   8.904  18.506  0.00  0.00    +0.000 A 
ATOM      8  C   UNL     1       1.452  10.246  18.333  0.00  0.00    +0.000 A 
ATOM      9  C   UNL     1       0.921  10.968  19.410  0.00  0.00    +0.000 A 
ATOM     10  C   UNL     1       0.725  10.355  20.652  0.00  0.00    +0.000 A 
ATOM     11  C   UNL     1       1.057   9.005  20.818  0.00  0.00    +0.000 A 
BRANCH   9  12
ATOM     12  N   UNL     1       0.572  12.382  19.229  0.00  0.00    +0.000 N 
ATOM     13  O   UNL     1      -0.390  12.649  18.495  0.00  0.00    +0.000 OA
ATOM     14  O   UNL     1       1.260  13.230  19.822  0.00  0.00    +0.000 OA
ENDBRANCH   9  12
ENDBRANCH   3   6
BRANCH   1  15
ATOM     15  C   UNL     1       3.859   3.822  19.651  0.00  0.00    +0.000 C 
BRANCH  15  26
ATOM     16  O   UNL     1       6.616   4.891  19.237  0.00  0.00    +0.000 OA
ATOM     17  C   UNL     1       5.881   4.496  18.354  0.00  0.00    +0.000 C 
ATOM     18  C   UNL     1       6.227   4.531  16.933  0.00  0.00    +0.000 A 
ATOM     19  C   UNL     1       7.379   4.957  16.302  0.00  0.00    +0.000 A 
ATOM     20  C   UNL     1       7.413   4.868  14.906  0.00  0.00    +0.000 A 
ATOM     21  C   UNL     1       6.309   4.365  14.185  0.00  0.00    +0.000 A 
ATOM     22  C   UNL     1       5.149   3.951  14.846  0.00  0.00    +0.000 A 
ATOM     23  C   UNL     1       5.142   4.045  16.225  0.00  0.00    +0.000 A 
ATOM     24  C   UNL     1       4.107   3.698  17.194  0.00  0.00    +0.000 C 
ATOM     25  O   UNL     1       3.012   3.254  16.903  0.00  0.00    +0.000 OA
ATOM     26  N   UNL     1       4.616   3.982  18.430  0.00  0.00    +0.000 N 
ENDBRANCH  15  26
ENDBRANCH   1  15
TORSDOF 4
ENDMDL
MODEL 4
REMARK VINA RESULT:      -8.0      1.550      2.707
REMARK  Name = 
REMARK  4 active torsions:
REMARK  status: ('A' for Active; 'I' for Inactive)
REMARK    1  A    between atoms: N_11  and  C_12
REMARK    2  A    between atoms: C_12  and  C_13
REMARK    3  A    between atoms: N_15  and  C_16
REMARK    4  A    between atoms: C_19  and  N_20
REMARK                            x       y       z     vdW  Elec       q    Type
REMARK                         _______ _______ _______ _____ _____    ______ ____
ROOT
ATOM      1  C   UNL     1       2.934   4.834  19.900  0.00  0.00    +0.000 A 
ATOM      2  C   UNL     1       2.964   6.180  19.606  0.00  0.00    +0.000 A 
ATOM      3  N   UNL     1       1.891   6.714  20.281  0.00  0.00    +0.000 N 
ATOM      4  N   UNL     1       1.204   5.720  20.890  0.00  0.00    +0.000 NA
ATOM      5  N   UNL     1       1.828   4.573  20.659  0.00  0.00    +0.000 NA
ENDROOT
BRANCH   3   6
ATOM      6  C   UNL     1       1.523   8.076  20.418  0.00  0.00    +0.000 A 
ATOM      7  C   UNL     1       1.249   8.613  21.684  0.00  0.00    +0.000 A 
ATOM      8  C   UNL     1       0.872   9.952  21.816  0.00  0.00    +0.000 A 
ATOM      9  C   UNL     1       0.753  10.752  20.673  0.00  0.00    +0.000 A 
ATOM     10  C   UNL     1       1.017  10.226  19.403  0.00  0.00    +0.000 A 
ATOM     11  C   UNL     1       1.410   8.888  19.276  0.00  0.00    +0.000 A 
BRANCH   9  12
ATOM     12  N   UNL     1       0.343  12.154  20.813  0.00  0.00    +0.000 N 
ATOM     13  O   UNL     1       0.262  12.837  19.782  0.00  0.00    +0.000 OA
ATOM     14  O   UNL     1       0.099  12.576  21.956  0.00  0.00    +0.000 OA
ENDBRANCH   9  12
ENDBRANCH   3   6
BRANCH   1  15
ATOM     15  C   UNL     1       3.936   3.778  19.608  0.00  0.00    +0.000 C 
BRANCH  15  26
ATOM     16  O   UNL     1       2.952   3.313  16.828  0.00  0.00    +0.000 OA
ATOM     17  C   UNL     1       4.048   3.753  17.116  0.00  0.00    +0.000 C 
ATOM     18  C   UNL     1       5.077   4.078  16.129  0.00  0.00    +0.000 A 
ATOM     19  C   UNL     1       5.053   4.000  14.751  0.00  0.00    +0.000 A 
ATOM     20  C   UNL     1       6.212   4.386  14.069  0.00  0.00    +0.000 A 
ATOM     21  C   UNL     1       7.352   4.830  14.771  0.00  0.00    +0.000 A 
ATOM     22  C   UNL     1       7.356   4.889  16.169  0.00  0.00    +0.000 A 
ATOM     23  C   UNL     1       6.198   4.507  16.818  0.00  0.00    +0.000 A 
ATOM     24  C   UNL     1       5.882   4.458  18.243  0.00  0.00    +0.000 C 
ATOM     25  O   UNL     1       6.658   4.757  19.131  0.00  0.00    +0.000 OA
ATOM     26  N   UNL     1       4.593   4.012  18.343  0.00  0.00    +0.000 N 
ENDBRANCH  15  26
ENDBRANCH   1  15
TORSDOF 4
ENDMDL
MODEL 5
REMARK VINA RESULT:      -8.0      0.184      1.970
REMARK  Name = 
REMARK  4 active torsions:
REMARK  status: ('A' for Active; 'I' for Inactive)
REMARK    1  A    between atoms: N_11  and  C_12
REMARK    2  A    between atoms: C_12  and  C_13
REMARK    3  A    between atoms: N_15  and  C_16
REMARK    4  A    between atoms: C_19  and  N_20
REMARK                            x       y       z     vdW  Elec       q    Type
REMARK                         _______ _______ _______ _____ _____    ______ ____
ROOT
ATOM      1  C   UNL     1       2.429   6.405  19.893  0.00  0.00    +0.000 A 
ATOM      2  C   UNL     1       1.871   7.043  20.979  0.00  0.00    +0.000 A 
ATOM      3  N   UNL     1       1.431   8.252  20.492  0.00  0.00    +0.000 N 
ATOM      4  N   UNL     1       1.779   8.364  19.189  0.00  0.00    +0.000 NA
ATOM      5  N   UNL     1       2.391   7.249  18.818  0.00  0.00    +0.000 NA
ENDROOT
BRANCH   3   6
ATOM      6  C   UNL     1       0.678   9.252  21.159  0.00  0.00    +0.000 A 
ATOM      7  C   UNL     1       0.140   9.005  22.430  0.00  0.00    +0.000 A 
ATOM      8  C   UNL     1      -0.614   9.985  23.079  0.00  0.00    +0.000 A 
ATOM      9  C   UNL     1      -0.844  11.213  22.445  0.00  0.00    +0.000 A 
ATOM     10  C   UNL     1      -0.318  11.468  21.174  0.00  0.00    +0.000 A 
ATOM     11  C   UNL     1       0.451  10.490  20.533  0.00  0.00    +0.000 A 
BRANCH   9  12
ATOM     12  N   UNL     1      -1.649  12.236  23.123  0.00  0.00    +0.000 N 
ATOM     13  O   UNL     1      -2.790  11.922  23.489  0.00  0.00    +0.000 OA
ATOM     14  O   UNL     1      -1.140  13.357  23.292  0.00  0.00    +0.000 OA
ENDBRANCH   9  12
ENDBRANCH   3   6
BRANCH   1  15
ATOM     15  C   UNL     1       2.905   5.005  19.758  0.00  0.00    +0.000 C 
BRANCH  15  26
ATOM     16  O   UNL     1       2.418   3.990  16.993  0.00  0.00    +0.000 OA
ATOM     17  C   UNL     1       3.490   4.376  17.416  0.00  0.00    +0.000 C 
ATOM     18  C   UNL     1       4.726   4.355  16.634  0.00  0.00    +0.000 A 
ATOM     19  C   UNL     1       4.957   3.954  15.333  0.00  0.00    +0.000 A 
ATOM     20  C   UNL     1       6.269   4.051  14.858  0.00  0.00    +0.000 A 
ATOM     21  C   UNL     1       7.304   4.537  15.683  0.00  0.00    +0.000 A 
ATOM     22  C   UNL     1       7.048   4.926  17.002  0.00  0.00    +0.000 A 
ATOM     23  C   UNL     1       5.744   4.824  17.446  0.00  0.00    +0.000 A 
ATOM     24  C   UNL     1       5.155   5.147  18.743  0.00  0.00    +0.000 C 
ATOM     25  O   UNL     1       5.781   5.572  19.696  0.00  0.00    +0.000 OA
ATOM     26  N   UNL     1       3.821   4.867  18.649  0.00  0.00    +0.000 N 
ENDBRANCH  15  26
ENDBRANCH   1  15
TORSDOF 4
ENDMDL
MODEL 6
REMARK VINA RESULT:      -8.0      2.338      3.557
REMARK  Name = 
REMARK  4 active torsions:
REMARK  status: ('A' for Active; 'I' for Inactive)
REMARK    1  A    between atoms: N_11  and  C_12
REMARK    2  A    between atoms: C_12  and  C_13
REMARK    3  A    between atoms: N_15  and  C_16
REMARK    4  A    between atoms: C_19  and  N_20
REMARK                            x       y       z     vdW  Elec       q    Type
REMARK                         _______ _______ _______ _____ _____    ______ ____
ROOT
ATOM      1  C   UNL     1       4.712   5.421  18.615  0.00  0.00    +0.000 A 
ATOM      2  C   UNL     1       4.138   6.602  18.195  0.00  0.00    +0.000 A 
ATOM      3  N   UNL     1       3.022   6.753  18.985  0.00  0.00    +0.000 N 
ATOM      4  N   UNL     1       2.892   5.673  19.789  0.00  0.00    +0.000 NA
ATOM      5  N   UNL     1       3.912   4.855  19.567  0.00  0.00    +0.000 NA
ENDROOT
BRANCH   3   6
ATOM      6  C   UNL     1       2.131   7.853  19.053  0.00  0.00    +0.000 A 
ATOM      7  C   UNL     1       1.839   8.602  17.903  0.00  0.00    +0.000 A 
ATOM      8  C   UNL     1       0.972   9.695  17.976  0.00  0.00    +0.000 A 
ATOM      9  C   UNL     1       0.408  10.050  19.207  0.00  0.00    +0.000 A 
ATOM     10  C   UNL     1       0.697   9.315  20.363  0.00  0.00    +0.000 A 
ATOM     11  C   UNL     1       1.553   8.211  20.284  0.00  0.00    +0.000 A 
BRANCH   9  12
ATOM     12  N   UNL     1      -0.492  11.208  19.283  0.00  0.00    +0.000 N 
ATOM     13  O   UNL     1      -0.444  11.909  20.303  0.00  0.00    +0.000 OA
ATOM     14  O   UNL     1      -1.248  11.419  18.320  0.00  0.00    +0.000 OA
ENDBRANCH   9  12
ENDBRANCH   3   6
BRANCH   1  15
ATOM     15  C   UNL     1       6.027   4.830  18.261  0.00  0.00    +0.000 C 
BRANCH  15  26
ATOM     16  O   UNL     1       4.695   2.947  16.366  0.00  0.00    +0.000 OA
ATOM     17  C   UNL     1       5.517   3.786  16.054  0.00  0.00    +0.000 C 
ATOM     18  C   UNL     1       6.016   3.966  14.691  0.00  0.00    +0.000 A 
ATOM     19  C   UNL     1       5.688   3.308  13.522  0.00  0.00    +0.000 A 
ATOM     20  C   UNL     1       6.348   3.709  12.355  0.00  0.00    +0.000 A 
ATOM     21  C   UNL     1       7.309   4.742  12.386  0.00  0.00    +0.000 A 
ATOM     22  C   UNL     1       7.633   5.386  13.584  0.00  0.00    +0.000 A 
ATOM     23  C   UNL     1       6.964   4.974  14.721  0.00  0.00    +0.000 A 
ATOM     24  C   UNL     1       7.066   5.438  16.102  0.00  0.00    +0.000 C 
ATOM     25  O   UNL     1       7.823   6.312  16.480  0.00  0.00    +0.000 OA
ATOM     26  N   UNL     1       6.177   4.698  16.830  0.00  0.00    +0.000 N 
ENDBRANCH  15  26
ENDBRANCH   1  15
TORSDOF 4
ENDMDL
MODEL 7
REMARK VINA RESULT:      -7.9      2.348      3.649
REMARK  Name = 
REMARK  4 active torsions:
REMARK  status: ('A' for Active; 'I' for Inactive)
REMARK    1  A    between atoms: N_11  and  C_12
REMARK    2  A    between atoms: C_12  and  C_13
REMARK    3  A    between atoms: N_15  and  C_16
REMARK    4  A    between atoms: C_19  and  N_20
REMARK                            x       y       z     vdW  Elec       q    Type
REMARK                         _______ _______ _______ _____ _____    ______ ____
ROOT
ATOM      1  C   UNL     1       4.672   5.499  18.427  0.00  0.00    +0.000 A 
ATOM      2  C   UNL     1       4.156   6.747  18.155  0.00  0.00    +0.000 A 
ATOM      3  N   UNL     1       2.967   6.796  18.845  0.00  0.00    +0.000 N 
ATOM      4  N   UNL     1       2.745   5.602  19.442  0.00  0.00    +0.000 NA
ATOM      5  N   UNL     1       3.774   4.806  19.188  0.00  0.00    +0.000 NA
ENDROOT
BRANCH   3   6
ATOM      6  C   UNL     1       2.085   7.894  19.007  0.00  0.00    +0.000 A 
ATOM      7  C   UNL     1       1.559   8.201  20.271  0.00  0.00    +0.000 A 
ATOM      8  C   UNL     1       0.678   9.274  20.426  0.00  0.00    +0.000 A 
ATOM      9  C   UNL     1       0.309  10.033  19.308  0.00  0.00    +0.000 A 
ATOM     10  C   UNL     1       0.821   9.732  18.041  0.00  0.00    +0.000 A 
ATOM     11  C   UNL     1       1.717   8.666  17.892  0.00  0.00    +0.000 A 
BRANCH   9  12
ATOM     12  N   UNL     1      -0.629  11.151  19.472  0.00  0.00    +0.000 N 
ATOM     13  O   UNL     1      -1.137  11.631  18.449  0.00  0.00    +0.000 OA
ATOM     14  O   UNL     1      -0.859  11.550  20.625  0.00  0.00    +0.000 OA
ENDBRANCH   9  12
ENDBRANCH   3   6
BRANCH   1  15
ATOM     15  C   UNL     1       6.011   4.938  18.112  0.00  0.00    +0.000 C 
BRANCH  15  26
ATOM     16  O   UNL     1       4.725   2.990  16.250  0.00  0.00    +0.000 OA
ATOM     17  C   UNL     1       5.546   3.826  15.927  0.00  0.00    +0.000 C 
ATOM     18  C   UNL     1       6.068   3.970  14.568  0.00  0.00    +0.000 A 
ATOM     19  C   UNL     1       5.764   3.275  13.414  0.00  0.00    +0.000 A 
ATOM     20  C   UNL     1       6.441   3.648  12.247  0.00  0.00    +0.000 A 
ATOM     21  C   UNL     1       7.393   4.689  12.264  0.00  0.00    +0.000 A 
ATOM     22  C   UNL     1       7.692   5.370  13.448  0.00  0.00    +0.000 A 
ATOM     23  C   UNL     1       7.007   4.986  14.585  0.00  0.00    +0.000 A 
ATOM     24  C   UNL     1       7.082   5.491  15.953  0.00  0.00    +0.000 C 
ATOM     25  O   UNL     1       7.826   6.382  16.318  0.00  0.00    +0.000 OA
ATOM     26  N   UNL     1       6.186   4.766  16.688  0.00  0.00    +0.000 N 
ENDBRANCH  15  26
ENDBRANCH   1  15
TORSDOF 4
ENDMDL
MODEL 8
REMARK VINA RESULT:      -7.9      3.284      9.224
REMARK  Name = 
REMARK  4 active torsions:
REMARK  status: ('A' for Active; 'I' for Inactive)
REMARK    1  A    between atoms: N_11  and  C_12
REMARK    2  A    between atoms: C_12  and  C_13
REMARK    3  A    between atoms: N_15  and  C_16
REMARK    4  A    between atoms: C_19  and  N_20
REMARK                            x       y       z     vdW  Elec       q    Type
REMARK                         _______ _______ _______ _____ _____    ______ ____
ROOT
ATOM      1  C   UNL     1       1.190   9.823  19.291  0.00  0.00    +0.000 A 
ATOM      2  C   UNL     1       1.898   8.771  18.752  0.00  0.00    +0.000 A 
ATOM      3  N   UNL     1       1.883   7.799  19.725  0.00  0.00    +0.000 N 
ATOM      4  N   UNL     1       1.260   8.277  20.827  0.00  0.00    +0.000 NA
ATOM      5  N   UNL     1       0.840   9.509  20.574  0.00  0.00    +0.000 NA
ENDROOT
BRANCH   3   6
ATOM      6  C   UNL     1       2.366   6.468  19.652  0.00  0.00    +0.000 A 
ATOM      7  C   UNL     1       1.942   5.507  20.581  0.00  0.00    +0.000 A 
ATOM      8  C   UNL     1       2.430   4.200  20.516  0.00  0.00    +0.000 A 
ATOM      9  C   UNL     1       3.361   3.858  19.527  0.00  0.00    +0.000 A 
ATOM     10  C   UNL     1       3.798   4.810  18.599  0.00  0.00    +0.000 A 
ATOM     11  C   UNL     1       3.293   6.115  18.656  0.00  0.00    +0.000 A 
BRANCH   9  12
ATOM     12  N   UNL     1       3.884   2.488  19.470  0.00  0.00    +0.000 N 
ATOM     13  O   UNL     1       3.340   1.695  18.688  0.00  0.00    +0.000 OA
ATOM     14  O   UNL     1       4.841   2.201  20.208  0.00  0.00    +0.000 OA
ENDBRANCH   9  12
ENDBRANCH   3   6
BRANCH   1  15
ATOM     15  C   UNL     1       0.718  11.076  18.648  0.00  0.00    +0.000 C 
BRANCH  15  26
ATOM     16  O   UNL     1      -1.344   9.674  17.006  0.00  0.00    +0.000 OA
ATOM     17  C   UNL     1      -1.580  10.488  17.877  0.00  0.00    +0.000 C 
ATOM     18  C   UNL     1      -2.928  10.942  18.219  0.00  0.00    +0.000 A 
ATOM     19  C   UNL     1      -4.156  10.572  17.706  0.00  0.00    +0.000 A 
ATOM     20  C   UNL     1      -5.287  11.194  18.245  0.00  0.00    +0.000 A 
ATOM     21  C   UNL     1      -5.166  12.159  19.267  0.00  0.00    +0.000 A 
ATOM     22  C   UNL     1      -3.911  12.525  19.762  0.00  0.00    +0.000 A 
ATOM     23  C   UNL     1      -2.809  11.894  19.217  0.00  0.00    +0.000 A 
ATOM     24  C   UNL     1      -1.387  12.043  19.511  0.00  0.00    +0.000 C 
ATOM     25  O   UNL     1      -0.932  12.816  20.334  0.00  0.00    +0.000 OA
ATOM     26  N   UNL     1      -0.723  11.177  18.689  0.00  0.00    +0.000 N 
ENDBRANCH  15  26
ENDBRANCH   1  15
TORSDOF 4
ENDMDL
MODEL 9
REMARK VINA RESULT:      -7.9      1.756      2.756
REMARK  Name = 
REMARK  4 active torsions:
REMARK  status: ('A' for Active; 'I' for Inactive)
REMARK    1  A    between atoms: N_11  and  C_12
REMARK    2  A    between atoms: C_12  and  C_13
REMARK    3  A    between atoms: N_15  and  C_16
REMARK    4  A    between atoms: C_19  and  N_20
REMARK                            x       y       z     vdW  Elec       q    Type
REMARK                         _______ _______ _______ _____ _____    ______ ____
ROOT
ATOM      1  C   UNL     1       2.985   4.961  19.920  0.00  0.00    +0.000 A 
ATOM      2  C   UNL     1       2.890   6.225  19.379  0.00  0.00    +0.000 A 
ATOM      3  N   UNL     1       1.942   6.866  20.141  0.00  0.00    +0.000 N 
ATOM      4  N   UNL     1       1.436   6.000  21.050  0.00  0.00    +0.000 NA
ATOM      5  N   UNL     1       2.061   4.838  20.919  0.00  0.00    +0.000 NA
ENDROOT
BRANCH   3   6
ATOM      6  C   UNL     1       1.538   8.224  20.091  0.00  0.00    +0.000 A 
ATOM      7  C   UNL     1       1.592   8.936  18.883  0.00  0.00    +0.000 A 
ATOM      8  C   UNL     1       1.209  10.278  18.839  0.00  0.00    +0.000 A 
ATOM      9  C   UNL     1       0.785  10.916  20.012  0.00  0.00    +0.000 A 
ATOM     10  C   UNL     1       0.734  10.218  21.224  0.00  0.00    +0.000 A 
ATOM     11  C   UNL     1       1.103   8.868  21.262  0.00  0.00    +0.000 A 
BRANCH   9  12
ATOM     12  N   UNL     1       0.396  12.330  19.965  0.00  0.00    +0.000 N 
ATOM     13  O   UNL     1       1.220  13.140  19.517  0.00  0.00    +0.000 OA
ATOM     14  O   UNL     1      -0.736  12.635  20.377  0.00  0.00    +0.000 OA
ENDBRANCH   9  12
ENDBRANCH   3   6
BRANCH   1  15
ATOM     15  C   UNL     1       3.965   3.881  19.638  0.00  0.00    +0.000 C 
BRANCH  15  26
ATOM     16  O   UNL     1       2.980   3.355  16.869  0.00  0.00    +0.000 OA
ATOM     17  C   UNL     1       4.076   3.799  17.147  0.00  0.00    +0.000 C 
ATOM     18  C   UNL     1       5.106   4.101  16.153  0.00  0.00    +0.000 A 
ATOM     19  C   UNL     1       5.081   3.993  14.776  0.00  0.00    +0.000 A 
ATOM     20  C   UNL     1       6.241   4.362  14.086  0.00  0.00    +0.000 A 
ATOM     21  C   UNL     1       7.381   4.822  14.778  0.00  0.00    +0.000 A 
ATOM     22  C   UNL     1       7.385   4.912  16.174  0.00  0.00    +0.000 A 
ATOM     23  C   UNL     1       6.227   4.545  16.832  0.00  0.00    +0.000 A 
ATOM     24  C   UNL     1       5.911   4.529  18.257  0.00  0.00    +0.000 C 
ATOM     25  O   UNL     1       6.687   4.847  19.138  0.00  0.00    +0.000 OA
ATOM     26  N   UNL     1       4.622   4.087  18.368  0.00  0.00    +0.000 N 
ENDBRANCH  15  26
ENDBRANCH   1  15
TORSDOF 4
ENDMDL
