MODEL 1
REMARK VINA RESULT:      -8.1      0.000      0.000
REMARK  Name = 
REMARK  6 active torsions:
REMARK  status: ('A' for Active; 'I' for Inactive)
REMARK    1  A    between atoms: C_1  and  C_2
REMARK    2  A    between atoms: C_2  and  C_3
REMARK    3  A    between atoms: C_3  and  C_4
REMARK    4  A    between atoms: C_4  and  C_5
REMARK    5  A    between atoms: C_8  and  C_9
REMARK    6  A    between atoms: C_11  and  C_12
REMARK                            x       y       z     vdW  Elec       q    Type
REMARK                         _______ _______ _______ _____ _____    ______ ____
ROOT
ATOM      1  C   UNL     1       5.789   5.165  17.780  0.00  0.00    +0.000 A 
ATOM      2  N   UNL     1       5.595   4.680  16.581  0.00  0.00    +0.000 NA
ATOM      3  C   UNL     1       6.597   5.260  15.841  0.00  0.00    +0.000 A 
ATOM      4  N   UNL     1       7.364   6.108  16.551  0.00  0.00    +0.000 NA
ATOM      5  O   UNL     1       6.828   6.041  17.844  0.00  0.00    +0.000 OA
ENDROOT
BRANCH   1   9
ATOM      6  C   UNL     1       2.142   4.721  18.243  0.00  0.00    +0.000 C 
ATOM      7  C   UNL     1       2.894   6.052  18.416  0.00  0.00    +0.000 C 
ATOM      8  C   UNL     1       4.066   5.953  19.398  0.00  0.00    +0.000 C 
ATOM      9  C   UNL     1       5.050   4.833  19.033  0.00  0.00    +0.000 C 
ATOM     10  C   UNL     1       4.309   3.493  18.880  0.00  0.00    +0.000 C 
ATOM     11  C   UNL     1       3.113   3.568  17.922  0.00  0.00    +0.000 C 
BRANCH   6  12
ATOM     12  C   UNL     1       1.274   4.367  19.465  0.00  0.00    +0.000 C 
BRANCH  12  13
ATOM     13  C   UNL     1       1.035   2.861  19.601  0.00  0.00    +0.000 C 
BRANCH  13  15
ATOM     14  C   UNL     1       2.145   3.455  21.762  0.00  0.00    +0.000 C 
ATOM     15  C   UNL     1       1.486   2.345  20.961  0.00  0.00    +0.000 C 
ENDBRANCH  13  15
ENDBRANCH  12  13
ENDBRANCH   6  12
ENDBRANCH   1   9
BRANCH   3  16
ATOM     16  C   UNL     1       6.777   4.896  14.434  0.00  0.00    +0.000 A 
ATOM     17  C   UNL     1       5.982   3.888  13.880  0.00  0.00    +0.000 A 
ATOM     18  C   UNL     1       6.195   3.505  12.561  0.00  0.00    +0.000 A 
ATOM     19  C   UNL     1       7.196   4.133  11.830  0.00  0.00    +0.000 A 
ATOM     20  C   UNL     1       7.934   5.129  12.451  0.00  0.00    +0.000 A 
ATOM     21  N   UNL     1       7.749   5.525  13.728  0.00  0.00    +0.000 NA
ENDBRANCH   3  16
TORSDOF 5
ENDMDL
MODEL 2
REMARK VINA RESULT:      -7.8      0.954      1.273
REMARK  Name = 
REMARK  6 active torsions:
REMARK  status: ('A' for Active; 'I' for Inactive)
REMARK    1  A    between atoms: C_1  and  C_2
REMARK    2  A    between atoms: C_2  and  C_3
REMARK    3  A    between atoms: C_3  and  C_4
REMARK    4  A    between atoms: C_4  and  C_5
REMARK    5  A    between atoms: C_8  and  C_9
REMARK    6  A    between atoms: C_11  and  C_12
REMARK                            x       y       z     vdW  Elec       q    Type
REMARK                         _______ _______ _______ _____ _____    ______ ____
ROOT
ATOM      1  C   UNL     1       6.061   4.534  17.942  0.00  0.00    +0.000 A 
ATOM      2  N   UNL     1       5.730   4.600  16.678  0.00  0.00    +0.000 NA
ATOM      3  C   UNL     1       6.935   4.476  16.030  0.00  0.00    +0.000 A 
ATOM      4  N   UNL     1       7.984   4.376  16.866  0.00  0.00    +0.000 NA
ATOM      5  O   UNL     1       7.401   4.410  18.140  0.00  0.00    +0.000 OA
ENDROOT
BRANCH   1   9
ATOM      6  C   UNL     1       2.380   4.140  18.017  0.00  0.00    +0.000 C 
ATOM      7  C   UNL     1       3.117   5.487  17.921  0.00  0.00    +0.000 C 
ATOM      8  C   UNL     1       4.145   5.686  19.041  0.00  0.00    +0.000 C 
ATOM      9  C   UNL     1       5.156   4.534  19.128  0.00  0.00    +0.000 C 
ATOM     10  C   UNL     1       4.426   3.185  19.245  0.00  0.00    +0.000 C 
ATOM     11  C   UNL     1       3.371   2.969  18.152  0.00  0.00    +0.000 C 
BRANCH   6  12
ATOM     12  C   UNL     1       1.350   4.107  19.162  0.00  0.00    +0.000 C 
BRANCH  12  13
ATOM     13  C   UNL     1       1.087   2.690  19.676  0.00  0.00    +0.000 C 
BRANCH  13  15
ATOM     14  C   UNL     1       2.105   3.786  21.681  0.00  0.00    +0.000 C 
ATOM     15  C   UNL     1       1.312   2.591  21.179  0.00  0.00    +0.000 C 
ENDBRANCH  13  15
ENDBRANCH  12  13
ENDBRANCH   6  12
ENDBRANCH   1   9
BRANCH   3  16
ATOM     16  C   UNL     1       6.979   4.415  14.567  0.00  0.00    +0.000 A 
ATOM     17  C   UNL     1       7.798   5.307  13.867  0.00  0.00    +0.000 A 
ATOM     18  C   UNL     1       7.793   5.284  12.478  0.00  0.00    +0.000 A 
ATOM     19  C   UNL     1       6.971   4.378  11.821  0.00  0.00    +0.000 A 
ATOM     20  C   UNL     1       6.195   3.521  12.589  0.00  0.00    +0.000 A 
ATOM     21  N   UNL     1       6.180   3.517  13.939  0.00  0.00    +0.000 NA
ENDBRANCH   3  16
TORSDOF 5
ENDMDL
MODEL 3
REMARK VINA RESULT:      -7.7      1.031      1.470
REMARK  Name = 
REMARK  6 active torsions:
REMARK  status: ('A' for Active; 'I' for Inactive)
REMARK    1  A    between atoms: C_1  and  C_2
REMARK    2  A    between atoms: C_2  and  C_3
REMARK    3  A    between atoms: C_3  and  C_4
REMARK    4  A    between atoms: C_4  and  C_5
REMARK    5  A    between atoms: C_8  and  C_9
REMARK    6  A    between atoms: C_11  and  C_12
REMARK                            x       y       z     vdW  Elec       q    Type
REMARK                         _______ _______ _______ _____ _____    ______ ____
ROOT
ATOM      1  C   UNL     1       5.598   4.480  17.699  0.00  0.00    +0.000 A 
ATOM      2  N   UNL     1       5.447   4.676  16.414  0.00  0.00    +0.000 NA
ATOM      3  C   UNL     1       6.728   4.578  15.929  0.00  0.00    +0.000 A 
ATOM      4  N   UNL     1       7.649   4.366  16.887  0.00  0.00    +0.000 NA
ATOM      5  O   UNL     1       6.895   4.297  18.066  0.00  0.00    +0.000 OA
ENDROOT
BRANCH   1   9
ATOM      6  C   UNL     1       2.830   2.034  17.962  0.00  0.00    +0.000 C 
ATOM      7  C   UNL     1       2.741   3.387  17.234  0.00  0.00    +0.000 C 
ATOM      8  C   UNL     1       3.144   4.570  18.121  0.00  0.00    +0.000 C 
ATOM      9  C   UNL     1       4.536   4.395  18.744  0.00  0.00    +0.000 C 
ATOM     10  C   UNL     1       4.626   3.054  19.492  0.00  0.00    +0.000 C 
ATOM     11  C   UNL     1       4.203   1.853  18.637  0.00  0.00    +0.000 C 
BRANCH   6  12
ATOM     12  C   UNL     1       1.697   1.836  18.988  0.00  0.00    +0.000 C 
BRANCH  12  13
ATOM     13  C   UNL     1       0.764   3.047  19.075  0.00  0.00    +0.000 C 
BRANCH  13  15
ATOM     14  C   UNL     1       1.870   3.749  21.206  0.00  0.00    +0.000 C 
ATOM     15  C   UNL     1       0.543   3.477  20.519  0.00  0.00    +0.000 C 
ENDBRANCH  13  15
ENDBRANCH  12  13
ENDBRANCH   6  12
ENDBRANCH   1   9
BRANCH   3  16
ATOM     16  C   UNL     1       6.975   4.654  14.487  0.00  0.00    +0.000 A 
ATOM     17  C   UNL     1       6.278   3.801  13.625  0.00  0.00    +0.000 A 
ATOM     18  C   UNL     1       6.557   3.837  12.265  0.00  0.00    +0.000 A 
ATOM     19  C   UNL     1       7.526   4.716  11.797  0.00  0.00    +0.000 A 
ATOM     20  C   UNL     1       8.165   5.535  12.717  0.00  0.00    +0.000 A 
ATOM     21  N   UNL     1       7.914   5.526  14.043  0.00  0.00    +0.000 NA
ENDBRANCH   3  16
TORSDOF 5
ENDMDL
MODEL 4
REMARK VINA RESULT:      -7.7      1.083      1.289
REMARK  Name = 
REMARK  6 active torsions:
REMARK  status: ('A' for Active; 'I' for Inactive)
REMARK    1  A    between atoms: C_1  and  C_2
REMARK    2  A    between atoms: C_2  and  C_3
REMARK    3  A    between atoms: C_3  and  C_4
REMARK    4  A    between atoms: C_4  and  C_5
REMARK    5  A    between atoms: C_8  and  C_9
REMARK    6  A    between atoms: C_11  and  C_12
REMARK                            x       y       z     vdW  Elec       q    Type
REMARK                         _______ _______ _______ _____ _____    ______ ____
ROOT
ATOM      1  C   UNL     1       4.683   5.094  17.328  0.00  0.00    +0.000 A 
ATOM      2  N   UNL     1       5.092   4.376  16.314  0.00  0.00    +0.000 NA
ATOM      3  C   UNL     1       5.549   5.319  15.425  0.00  0.00    +0.000 A 
ATOM      4  N   UNL     1       5.392   6.583  15.859  0.00  0.00    +0.000 NA
ATOM      5  O   UNL     1       4.819   6.433  17.128  0.00  0.00    +0.000 OA
ENDROOT
BRANCH   1   9
ATOM      6  C   UNL     1       1.811   2.840  17.949  0.00  0.00    +0.000 C 
ATOM      7  C   UNL     1       1.725   4.375  17.881  0.00  0.00    +0.000 C 
ATOM      8  C   UNL     1       2.700   5.070  18.837  0.00  0.00    +0.000 C 
ATOM      9  C   UNL     1       4.152   4.613  18.637  0.00  0.00    +0.000 C 
ATOM     10  C   UNL     1       4.250   3.080  18.725  0.00  0.00    +0.000 C 
ATOM     11  C   UNL     1       3.266   2.355  17.798  0.00  0.00    +0.000 C 
BRANCH   6  12
ATOM     12  C   UNL     1       1.185   2.266  19.234  0.00  0.00    +0.000 C 
BRANCH  12  13
ATOM     13  C   UNL     1       0.782   3.357  20.230  0.00  0.00    +0.000 C 
BRANCH  13  15
ATOM     14  C   UNL     1       2.669   2.482  21.620  0.00  0.00    +0.000 C 
ATOM     15  C   UNL     1       1.250   3.023  21.641  0.00  0.00    +0.000 C 
ENDBRANCH  13  15
ENDBRANCH  12  13
ENDBRANCH   6  12
ENDBRANCH   1   9
BRANCH   3  16
ATOM     16  C   UNL     1       6.180   4.901  14.171  0.00  0.00    +0.000 A 
ATOM     17  C   UNL     1       5.605   3.869  13.424  0.00  0.00    +0.000 A 
ATOM     18  C   UNL     1       6.238   3.436  12.266  0.00  0.00    +0.000 A 
ATOM     19  C   UNL     1       7.430   4.039  11.883  0.00  0.00    +0.000 A 
ATOM     20  C   UNL     1       7.930   5.062  12.675  0.00  0.00    +0.000 A 
ATOM     21  N   UNL     1       7.337   5.506  13.804  0.00  0.00    +0.000 NA
ENDBRANCH   3  16
TORSDOF 5
ENDMDL
MODEL 5
REMARK VINA RESULT:      -7.3      1.035      1.401
REMARK  Name = 
REMARK  6 active torsions:
REMARK  status: ('A' for Active; 'I' for Inactive)
REMARK    1  A    between atoms: C_1  and  C_2
REMARK    2  A    between atoms: C_2  and  C_3
REMARK    3  A    between atoms: C_3  and  C_4
REMARK    4  A    between atoms: C_4  and  C_5
REMARK    5  A    between atoms: C_8  and  C_9
REMARK    6  A    between atoms: C_11  and  C_12
REMARK                            x       y       z     vdW  Elec       q    Type
REMARK                         _______ _______ _______ _____ _____    ______ ____
ROOT
ATOM      1  C   UNL     1       5.127   4.581  17.449  0.00  0.00    +0.000 A 
ATOM      2  N   UNL     1       5.296   4.027  16.276  0.00  0.00    +0.000 NA
ATOM      3  C   UNL     1       6.041   4.958  15.592  0.00  0.00    +0.000 A 
ATOM      4  N   UNL     1       6.292   6.070  16.306  0.00  0.00    +0.000 NA
ATOM      5  O   UNL     1       5.686   5.818  17.544  0.00  0.00    +0.000 OA
ENDROOT
BRANCH   1   9
ATOM      6  C   UNL     1       1.541   3.778  17.903  0.00  0.00    +0.000 C 
ATOM      7  C   UNL     1       2.193   5.123  18.268  0.00  0.00    +0.000 C 
ATOM      8  C   UNL     1       3.399   4.969  19.201  0.00  0.00    +0.000 C 
ATOM      9  C   UNL     1       4.455   4.001  18.648  0.00  0.00    +0.000 C 
ATOM     10  C   UNL     1       3.814   2.646  18.301  0.00  0.00    +0.000 C 
ATOM     11  C   UNL     1       2.587   2.771  17.389  0.00  0.00    +0.000 C 
BRANCH   6  12
ATOM     12  C   UNL     1       0.740   3.170  19.071  0.00  0.00    +0.000 C 
BRANCH  12  13
ATOM     13  C   UNL     1       1.011   3.879  20.401  0.00  0.00    +0.000 C 
BRANCH  13  15
ATOM     14  C   UNL     1       2.672   2.539  21.705  0.00  0.00    +0.000 C 
ATOM     15  C   UNL     1       1.202   2.880  21.536  0.00  0.00    +0.000 C 
ENDBRANCH  13  15
ENDBRANCH  12  13
ENDBRANCH   6  12
ENDBRANCH   1   9
BRANCH   3  16
ATOM     16  C   UNL     1       6.520   4.666  14.240  0.00  0.00    +0.000 A 
ATOM     17  C   UNL     1       7.536   5.451  13.687  0.00  0.00    +0.000 A 
ATOM     18  C   UNL     1       7.948   5.208  12.383  0.00  0.00    +0.000 A 
ATOM     19  C   UNL     1       7.334   4.192  11.660  0.00  0.00    +0.000 A 
ATOM     20  C   UNL     1       6.339   3.453  12.284  0.00  0.00    +0.000 A 
ATOM     21  N   UNL     1       5.920   3.664  13.550  0.00  0.00    +0.000 NA
ENDBRANCH   3  16
TORSDOF 5
ENDMDL
MODEL 6
REMARK VINA RESULT:      -7.3      0.945      1.522
REMARK  Name = 
REMARK  6 active torsions:
REMARK  status: ('A' for Active; 'I' for Inactive)
REMARK    1  A    between atoms: C_1  and  C_2
REMARK    2  A    between atoms: C_2  and  C_3
REMARK    3  A    between atoms: C_3  and  C_4
REMARK    4  A    between atoms: C_4  and  C_5
REMARK    5  A    between atoms: C_8  and  C_9
REMARK    6  A    between atoms: C_11  and  C_12
REMARK                            x       y       z     vdW  Elec       q    Type
REMARK                         _______ _______ _______ _____ _____    ______ ____
ROOT
ATOM      1  C   UNL     1       5.197   3.843  17.156  0.00  0.00    +0.000 A 
ATOM      2  N   UNL     1       5.181   3.889  15.848  0.00  0.00    +0.000 NA
ATOM      3  C   UNL     1       6.398   4.447  15.539  0.00  0.00    +0.000 A 
ATOM      4  N   UNL     1       7.128   4.771  16.621  0.00  0.00    +0.000 NA
ATOM      5  O   UNL     1       6.330   4.364  17.698  0.00  0.00    +0.000 OA
ENDROOT
BRANCH   1   9
ATOM      6  C   UNL     1       2.730   5.624  19.267  0.00  0.00    +0.000 C 
ATOM      7  C   UNL     1       4.135   5.198  19.727  0.00  0.00    +0.000 C 
ATOM      8  C   UNL     1       4.406   3.705  19.514  0.00  0.00    +0.000 C 
ATOM      9  C   UNL     1       4.166   3.260  18.064  0.00  0.00    +0.000 C 
ATOM     10  C   UNL     1       2.755   3.664  17.604  0.00  0.00    +0.000 C 
ATOM     11  C   UNL     1       2.445   5.150  17.829  0.00  0.00    +0.000 C 
BRANCH   6  12
ATOM     12  C   UNL     1       1.621   5.141  20.221  0.00  0.00    +0.000 C 
BRANCH  12  13
ATOM     13  C   UNL     1       2.179   4.487  21.488  0.00  0.00    +0.000 C 
BRANCH  13  15
ATOM     14  C   UNL     1       0.886   2.634  20.414  0.00  0.00    +0.000 C 
ATOM     15  C   UNL     1       1.702   3.046  21.627  0.00  0.00    +0.000 C 
ENDBRANCH  13  15
ENDBRANCH  12  13
ENDBRANCH   6  12
ENDBRANCH   1   9
BRANCH   3  16
ATOM     16  C   UNL     1       6.805   4.590  14.139  0.00  0.00    +0.000 A 
ATOM     17  C   UNL     1       6.252   3.744  13.173  0.00  0.00    +0.000 A 
ATOM     18  C   UNL     1       6.683   3.844  11.857  0.00  0.00    +0.000 A 
ATOM     19  C   UNL     1       7.658   4.780  11.536  0.00  0.00    +0.000 A 
ATOM     20  C   UNL     1       8.150   5.588  12.551  0.00  0.00    +0.000 A 
ATOM     21  N   UNL     1       7.749   5.516  13.838  0.00  0.00    +0.000 NA
ENDBRANCH   3  16
TORSDOF 5
ENDMDL
MODEL 7
REMARK VINA RESULT:      -7.2      1.368      1.977
REMARK  Name = 
REMARK  6 active torsions:
REMARK  status: ('A' for Active; 'I' for Inactive)
REMARK    1  A    between atoms: C_1  and  C_2
REMARK    2  A    between atoms: C_2  and  C_3
REMARK    3  A    between atoms: C_3  and  C_4
REMARK    4  A    between atoms: C_4  and  C_5
REMARK    5  A    between atoms: C_8  and  C_9
REMARK    6  A    between atoms: C_11  and  C_12
REMARK                            x       y       z     vdW  Elec       q    Type
REMARK                         _______ _______ _______ _____ _____    ______ ____
ROOT
ATOM      1  C   UNL     1       6.130   5.864  16.283  0.00  0.00    +0.000 A 
ATOM      2  N   UNL     1       5.474   5.213  15.356  0.00  0.00    +0.000 NA
ATOM      3  C   UNL     1       6.455   4.879  14.453  0.00  0.00    +0.000 A 
ATOM      4  N   UNL     1       7.672   5.342  14.791  0.00  0.00    +0.000 NA
ATOM      5  O   UNL     1       7.456   5.995  16.012  0.00  0.00    +0.000 OA
ENDROOT
BRANCH   1   9
ATOM      6  C   UNL     1       3.841   4.237  18.697  0.00  0.00    +0.000 C 
ATOM      7  C   UNL     1       3.393   5.129  17.526  0.00  0.00    +0.000 C 
ATOM      8  C   UNL     1       4.069   6.504  17.530  0.00  0.00    +0.000 C 
ATOM      9  C   UNL     1       5.601   6.410  17.567  0.00  0.00    +0.000 C 
ATOM     10  C   UNL     1       6.058   5.536  18.749  0.00  0.00    +0.000 C 
ATOM     11  C   UNL     1       5.377   4.162  18.787  0.00  0.00    +0.000 C 
BRANCH   6  12
ATOM     12  C   UNL     1       3.245   4.685  20.046  0.00  0.00    +0.000 C 
BRANCH  12  13
ATOM     13  C   UNL     1       1.721   4.815  20.001  0.00  0.00    +0.000 C 
BRANCH  13  15
ATOM     14  C   UNL     1       1.895   2.915  21.619  0.00  0.00    +0.000 C 
ATOM     15  C   UNL     1       1.039   3.566  20.546  0.00  0.00    +0.000 C 
ENDBRANCH  13  15
ENDBRANCH  12  13
ENDBRANCH   6  12
ENDBRANCH   1   9
BRANCH   3  16
ATOM     16  C   UNL     1       6.130   4.051  13.290  0.00  0.00    +0.000 A 
ATOM     17  C   UNL     1       4.802   3.960  12.862  0.00  0.00    +0.000 A 
ATOM     18  C   UNL     1       4.490   3.128  11.794  0.00  0.00    +0.000 A 
ATOM     19  C   UNL     1       5.507   2.405  11.182  0.00  0.00    +0.000 A 
ATOM     20  C   UNL     1       6.800   2.559  11.661  0.00  0.00    +0.000 A 
ATOM     21  N   UNL     1       7.135   3.361  12.695  0.00  0.00    +0.000 NA
ENDBRANCH   3  16
TORSDOF 5
ENDMDL
MODEL 8
REMARK VINA RESULT:      -7.1      3.977      5.491
REMARK  Name = 
REMARK  6 active torsions:
REMARK  status: ('A' for Active; 'I' for Inactive)
REMARK    1  A    between atoms: C_1  and  C_2
REMARK    2  A    between atoms: C_2  and  C_3
REMARK    3  A    between atoms: C_3  and  C_4
REMARK    4  A    between atoms: C_4  and  C_5
REMARK    5  A    between atoms: C_8  and  C_9
REMARK    6  A    between atoms: C_11  and  C_12
REMARK                            x       y       z     vdW  Elec       q    Type
REMARK                         _______ _______ _______ _____ _____    ______ ____
ROOT
ATOM      1  C   UNL     1       7.193   6.886  17.366  0.00  0.00    +0.000 A 
ATOM      2  N   UNL     1       7.322   8.183  17.245  0.00  0.00    +0.000 NA
ATOM      3  C   UNL     1       8.196   8.507  18.254  0.00  0.00    +0.000 A 
ATOM      4  N   UNL     1       8.567   7.451  19.001  0.00  0.00    +0.000 NA
ATOM      5  O   UNL     1       7.902   6.371  18.406  0.00  0.00    +0.000 OA
ENDROOT
BRANCH   1   9
ATOM      6  C   UNL     1       4.003   5.158  18.105  0.00  0.00    +0.000 C 
ATOM      7  C   UNL     1       5.401   4.578  18.381  0.00  0.00    +0.000 C 
ATOM      8  C   UNL     1       6.300   4.571  17.141  0.00  0.00    +0.000 C 
ATOM      9  C   UNL     1       6.422   5.956  16.490  0.00  0.00    +0.000 C 
ATOM     10  C   UNL     1       5.028   6.534  16.191  0.00  0.00    +0.000 C 
ATOM     11  C   UNL     1       4.095   6.529  17.408  0.00  0.00    +0.000 C 
BRANCH   6  12
ATOM     12  C   UNL     1       3.113   4.200  17.288  0.00  0.00    +0.000 C 
BRANCH  12  13
ATOM     13  C   UNL     1       1.705   4.066  17.872  0.00  0.00    +0.000 C 
BRANCH  13  15
ATOM     14  C   UNL     1       1.019   3.308  20.155  0.00  0.00    +0.000 C 
ATOM     15  C   UNL     1       1.679   4.417  19.354  0.00  0.00    +0.000 C 
ENDBRANCH  13  15
ENDBRANCH  12  13
ENDBRANCH   6  12
ENDBRANCH   1   9
BRANCH   3  16
ATOM     16  C   UNL     1       8.670   9.885  18.400  0.00  0.00    +0.000 A 
ATOM     17  C   UNL     1       9.532  10.206  19.453  0.00  0.00    +0.000 A 
ATOM     18  C   UNL     1       9.933  11.526  19.623  0.00  0.00    +0.000 A 
ATOM     19  C   UNL     1       9.462  12.492  18.743  0.00  0.00    +0.000 A 
ATOM     20  C   UNL     1       8.617  12.089  17.719  0.00  0.00    +0.000 A 
ATOM     21  N   UNL     1       8.212  10.816  17.527  0.00  0.00    +0.000 NA
ENDBRANCH   3  16
TORSDOF 5
ENDMDL
MODEL 9
REMARK VINA RESULT:      -7.1      1.854      7.033
REMARK  Name = 
REMARK  6 active torsions:
REMARK  status: ('A' for Active; 'I' for Inactive)
REMARK    1  A    between atoms: C_1  and  C_2
REMARK    2  A    between atoms: C_2  and  C_3
REMARK    3  A    between atoms: C_3  and  C_4
REMARK    4  A    between atoms: C_4  and  C_5
REMARK    5  A    between atoms: C_8  and  C_9
REMARK    6  A    between atoms: C_11  and  C_12
REMARK                            x       y       z     vdW  Elec       q    Type
REMARK                         _______ _______ _______ _____ _____    ______ ____
ROOT
ATOM      1  C   UNL     1       5.574   5.577  17.825  0.00  0.00    +0.000 A 
ATOM      2  N   UNL     1       4.395   5.039  18.004  0.00  0.00    +0.000 NA
ATOM      3  C   UNL     1       4.447   4.591  19.302  0.00  0.00    +0.000 A 
ATOM      4  N   UNL     1       5.634   4.810  19.896  0.00  0.00    +0.000 NA
ATOM      5  O   UNL     1       6.383   5.471  18.914  0.00  0.00    +0.000 OA
ENDROOT
BRANCH   1   9
ATOM      6  C   UNL     1       6.369   4.194  14.483  0.00  0.00    +0.000 C 
ATOM      7  C   UNL     1       7.376   4.334  15.638  0.00  0.00    +0.000 C 
ATOM      8  C   UNL     1       7.450   5.759  16.196  0.00  0.00    +0.000 C 
ATOM      9  C   UNL     1       6.078   6.301  16.622  0.00  0.00    +0.000 C 
ATOM     10  C   UNL     1       5.071   6.184  15.465  0.00  0.00    +0.000 C 
ATOM     11  C   UNL     1       4.994   4.773  14.868  0.00  0.00    +0.000 C 
BRANCH   6  12
ATOM     12  C   UNL     1       6.874   4.833  13.175  0.00  0.00    +0.000 C 
BRANCH  12  13
ATOM     13  C   UNL     1       6.872   3.850  12.002  0.00  0.00    +0.000 C 
BRANCH  13  15
ATOM     14  C   UNL     1       4.487   3.318  11.470  0.00  0.00    +0.000 C 
ATOM     15  C   UNL     1       5.757   2.821  12.138  0.00  0.00    +0.000 C 
ENDBRANCH  13  15
ENDBRANCH  12  13
ENDBRANCH   6  12
ENDBRANCH   1   9
BRANCH   3  16
ATOM     16  C   UNL     1       3.262   3.992  19.921  0.00  0.00    +0.000 A 
ATOM     17  C   UNL     1       2.014   4.597  19.740  0.00  0.00    +0.000 A 
ATOM     18  C   UNL     1       0.902   4.059  20.376  0.00  0.00    +0.000 A 
ATOM     19  C   UNL     1       1.061   2.936  21.178  0.00  0.00    +0.000 A 
ATOM     20  C   UNL     1       2.331   2.391  21.298  0.00  0.00    +0.000 A 
ATOM     21  N   UNL     1       3.430   2.889  20.691  0.00  0.00    +0.000 NA
ENDBRANCH   3  16
TORSDOF 5
ENDMDL
