MODEL 1
REMARK VINA RESULT:      -7.4      0.000      0.000
REMARK  Name = 
REMARK  5 active torsions:
REMARK  status: ('A' for Active; 'I' for Inactive)
REMARK    1  A    between atoms: C_1  and  O_2
REMARK    2  A    between atoms: O_2  and  C_3
REMARK    3  A    between atoms: C_8  and  N_9
REMARK    4  A    between atoms: N_12  and  C_13
REMARK    5  A    between atoms: C_13  and  C_14
REMARK                            x       y       z     vdW  Elec       q    Type
REMARK                         _______ _______ _______ _____ _____    ______ ____
ROOT
ATOM      1  N   UNL     1       0.446   9.570  19.591  0.00  0.00    +0.000 N 
ATOM      2  C   UNL     1       0.986   9.003  20.817  0.00  0.00    +0.000 C 
ATOM      3  C   UNL     1       1.472   7.591  20.449  0.00  0.00    +0.000 C 
ATOM      4  N   UNL     1       2.363   7.545  19.276  0.00  0.00    +0.000 N 
ATOM      5  C   UNL     1       2.220   8.473  18.239  0.00  0.00    +0.000 C 
ATOM      6  O   UNL     1       2.741   8.315  17.131  0.00  0.00    +0.000 OA
ATOM      7  C   UNL     1       1.479   9.782  18.565  0.00  0.00    +0.000 C 
ENDROOT
BRANCH   1  13
ATOM      8  C   UNL     1      -1.517  10.700  18.679  0.00  0.00    +0.000 A 
ATOM      9  N   UNL     1      -2.502  11.631  18.707  0.00  0.00    +0.000 NA
ATOM     10  C   UNL     1      -2.474  12.445  19.784  0.00  0.00    +0.000 A 
ATOM     11  C   UNL     1      -1.514  12.335  20.774  0.00  0.00    +0.000 A 
ATOM     12  N   UNL     1      -0.527  11.404  20.748  0.00  0.00    +0.000 NA
ATOM     13  C   UNL     1      -0.516  10.569  19.680  0.00  0.00    +0.000 A 
BRANCH   8  15
ATOM     14  C   UNL     1      -2.304  10.113  16.551  0.00  0.00    +0.000 C 
ATOM     15  O   UNL     1      -1.536   9.737  17.680  0.00  0.00    +0.000 OA
ENDBRANCH   8  15
ENDBRANCH   1  13
BRANCH   4  16
ATOM     16  C   UNL     1       3.000   6.269  18.977  0.00  0.00    +0.000 C 
BRANCH  16  17
ATOM     17  C   UNL     1       2.300   5.081  19.594  0.00  0.00    +0.000 A 
ATOM     18  C   UNL     1       2.506   4.744  20.943  0.00  0.00    +0.000 A 
ATOM     19  C   UNL     1       1.962   3.571  21.478  0.00  0.00    +0.000 A 
ATOM     20  C   UNL     1       1.205   2.724  20.673  0.00  0.00    +0.000 A 
ATOM     21  C   UNL     1       0.983   3.065  19.344  0.00  0.00    +0.000 A 
ATOM     22  F   UNL     1       0.262   2.247  18.566  0.00  0.00    +0.000 F 
ATOM     23  C   UNL     1       1.518   4.230  18.801  0.00  0.00    +0.000 A 
ENDBRANCH  16  17
ENDBRANCH   4  16
TORSDOF 4
ENDMDL
MODEL 2
REMARK VINA RESULT:      -7.3      5.402      7.727
REMARK  Name = 
REMARK  5 active torsions:
REMARK  status: ('A' for Active; 'I' for Inactive)
REMARK    1  A    between atoms: C_1  and  O_2
REMARK    2  A    between atoms: O_2  and  C_3
REMARK    3  A    between atoms: C_8  and  N_9
REMARK    4  A    between atoms: N_12  and  C_13
REMARK    5  A    between atoms: C_13  and  C_14
REMARK                            x       y       z     vdW  Elec       q    Type
REMARK                         _______ _______ _______ _____ _____    ______ ____
ROOT
ATOM      1  N   UNL     1       4.177   4.926  18.322  0.00  0.00    +0.000 N 
ATOM      2  C   UNL     1       5.464   4.669  18.950  0.00  0.00    +0.000 C 
ATOM      3  C   UNL     1       6.461   4.468  17.797  0.00  0.00    +0.000 C 
ATOM      4  N   UNL     1       6.445   5.542  16.788  0.00  0.00    +0.000 N 
ATOM      5  C   UNL     1       5.263   6.236  16.509  0.00  0.00    +0.000 C 
ATOM      6  O   UNL     1       5.127   6.937  15.503  0.00  0.00    +0.000 OA
ATOM      7  C   UNL     1       4.156   6.195  17.578  0.00  0.00    +0.000 C 
ENDROOT
BRANCH   1  13
ATOM      8  C   UNL     1       2.224   3.505  18.673  0.00  0.00    +0.000 A 
ATOM      9  N   UNL     1       1.092   3.137  19.325  0.00  0.00    +0.000 NA
ATOM     10  C   UNL     1       0.763   3.932  20.366  0.00  0.00    +0.000 A 
ATOM     11  C   UNL     1       1.519   5.031  20.731  0.00  0.00    +0.000 A 
ATOM     12  N   UNL     1       2.651   5.400  20.081  0.00  0.00    +0.000 NA
ATOM     13  C   UNL     1       3.015   4.631  19.025  0.00  0.00    +0.000 A 
BRANCH   8  15
ATOM     14  C   UNL     1       3.454   1.576  18.163  0.00  0.00    +0.000 C 
ATOM     15  O   UNL     1       2.715   2.679  17.671  0.00  0.00    +0.000 OA
ENDBRANCH   8  15
ENDBRANCH   1  13
BRANCH   4  16
ATOM     16  C   UNL     1       7.482   5.507  15.765  0.00  0.00    +0.000 C 
BRANCH  16  17
ATOM     17  C   UNL     1       7.024   4.908  14.456  0.00  0.00    +0.000 A 
ATOM     18  C   UNL     1       6.184   3.782  14.435  0.00  0.00    +0.000 A 
ATOM     19  C   UNL     1       5.867   3.149  13.227  0.00  0.00    +0.000 A 
ATOM     20  C   UNL     1       6.383   3.637  12.030  0.00  0.00    +0.000 A 
ATOM     21  C   UNL     1       7.197   4.762  12.046  0.00  0.00    +0.000 A 
ATOM     22  F   UNL     1       7.702   5.228  10.896  0.00  0.00    +0.000 F 
ATOM     23  C   UNL     1       7.519   5.401  13.241  0.00  0.00    +0.000 A 
ENDBRANCH  16  17
ENDBRANCH   4  16
TORSDOF 4
ENDMDL
MODEL 3
REMARK VINA RESULT:      -7.3      2.730      7.375
REMARK  Name = 
REMARK  5 active torsions:
REMARK  status: ('A' for Active; 'I' for Inactive)
REMARK    1  A    between atoms: C_1  and  O_2
REMARK    2  A    between atoms: O_2  and  C_3
REMARK    3  A    between atoms: C_8  and  N_9
REMARK    4  A    between atoms: N_12  and  C_13
REMARK    5  A    between atoms: C_13  and  C_14
REMARK                            x       y       z     vdW  Elec       q    Type
REMARK                         _______ _______ _______ _____ _____    ______ ____
ROOT
ATOM      1  N   UNL     1       2.625   6.098  19.636  0.00  0.00    +0.000 N 
ATOM      2  C   UNL     1       1.529   6.461  20.521  0.00  0.00    +0.000 C 
ATOM      3  C   UNL     1       1.554   7.996  20.612  0.00  0.00    +0.000 C 
ATOM      4  N   UNL     1       1.575   8.680  19.308  0.00  0.00    +0.000 N 
ATOM      5  C   UNL     1       2.199   8.086  18.204  0.00  0.00    +0.000 C 
ATOM      6  O   UNL     1       2.484   8.718  17.184  0.00  0.00    +0.000 OA
ATOM      7  C   UNL     1       2.413   6.562  18.256  0.00  0.00    +0.000 C 
ENDROOT
BRANCH   1  13
ATOM      8  C   UNL     1       4.548   4.617  19.376  0.00  0.00    +0.000 A 
ATOM      9  N   UNL     1       5.184   3.424  19.487  0.00  0.00    +0.000 NA
ATOM     10  C   UNL     1       4.427   2.432  20.003  0.00  0.00    +0.000 A 
ATOM     11  C   UNL     1       3.111   2.622  20.385  0.00  0.00    +0.000 A 
ATOM     12  N   UNL     1       2.474   3.814  20.276  0.00  0.00    +0.000 NA
ATOM     13  C   UNL     1       3.196   4.837  19.756  0.00  0.00    +0.000 A 
BRANCH   8  15
ATOM     14  C   UNL     1       6.679   5.551  19.092  0.00  0.00    +0.000 C 
ATOM     15  O   UNL     1       5.278   5.727  18.977  0.00  0.00    +0.000 OA
ENDBRANCH   8  15
ENDBRANCH   1  13
BRANCH   4  16
ATOM     16  C   UNL     1       1.422  10.129  19.315  0.00  0.00    +0.000 C 
BRANCH  16  17
ATOM     17  C   UNL     1       0.028  10.593  18.965  0.00  0.00    +0.000 A 
ATOM     18  C   UNL     1      -0.603  11.604  19.710  0.00  0.00    +0.000 A 
ATOM     19  C   UNL     1      -1.940  11.942  19.469  0.00  0.00    +0.000 A 
ATOM     20  C   UNL     1      -2.658  11.275  18.479  0.00  0.00    +0.000 A 
ATOM     21  C   UNL     1      -2.031  10.290  17.727  0.00  0.00    +0.000 A 
ATOM     22  F   UNL     1      -2.723   9.642  16.781  0.00  0.00    +0.000 F 
ATOM     23  C   UNL     1      -0.702   9.946  17.957  0.00  0.00    +0.000 A 
ENDBRANCH  16  17
ENDBRANCH   4  16
TORSDOF 4
ENDMDL
MODEL 4
REMARK VINA RESULT:      -7.2      1.874      2.347
REMARK  Name = 
REMARK  5 active torsions:
REMARK  status: ('A' for Active; 'I' for Inactive)
REMARK    1  A    between atoms: C_1  and  O_2
REMARK    2  A    between atoms: O_2  and  C_3
REMARK    3  A    between atoms: C_8  and  N_9
REMARK    4  A    between atoms: N_12  and  C_13
REMARK    5  A    between atoms: C_13  and  C_14
REMARK                            x       y       z     vdW  Elec       q    Type
REMARK                         _______ _______ _______ _____ _____    ______ ____
ROOT
ATOM      1  N   UNL     1       1.263  10.136  18.959  0.00  0.00    +0.000 N 
ATOM      2  C   UNL     1       1.368   9.302  17.771  0.00  0.00    +0.000 C 
ATOM      3  C   UNL     1       2.431   8.240  18.096  0.00  0.00    +0.000 C 
ATOM      4  N   UNL     1       2.203   7.522  19.362  0.00  0.00    +0.000 N 
ATOM      5  C   UNL     1       1.575   8.162  20.438  0.00  0.00    +0.000 C 
ATOM      6  O   UNL     1       1.606   7.713  21.586  0.00  0.00    +0.000 OA
ATOM      7  C   UNL     1       0.725   9.404  20.116  0.00  0.00    +0.000 C 
ENDROOT
BRANCH   1  13
ATOM      8  C   UNL     1      -0.545  11.715  18.516  0.00  0.00    +0.000 A 
ATOM      9  N   UNL     1      -1.063  12.963  18.393  0.00  0.00    +0.000 NA
ATOM     10  C   UNL     1      -0.176  13.960  18.596  0.00  0.00    +0.000 A 
ATOM     11  C   UNL     1       1.152  13.723  18.902  0.00  0.00    +0.000 A 
ATOM     12  N   UNL     1       1.672  12.476  19.026  0.00  0.00    +0.000 NA
ATOM     13  C   UNL     1       0.816  11.445  18.824  0.00  0.00    +0.000 A 
BRANCH   8  15
ATOM     14  C   UNL     1      -2.153  10.571  17.251  0.00  0.00    +0.000 C 
ATOM     15  O   UNL     1      -1.404  10.627  18.452  0.00  0.00    +0.000 OA
ENDBRANCH   8  15
ENDBRANCH   1  13
BRANCH   4  16
ATOM     16  C   UNL     1       3.068   6.385  19.647  0.00  0.00    +0.000 C 
BRANCH  16  17
ATOM     17  C   UNL     1       2.363   5.052  19.572  0.00  0.00    +0.000 A 
ATOM     18  C   UNL     1       1.951   4.523  18.338  0.00  0.00    +0.000 A 
ATOM     19  C   UNL     1       1.183   3.354  18.280  0.00  0.00    +0.000 A 
ATOM     20  C   UNL     1       0.821   2.701  19.456  0.00  0.00    +0.000 A 
ATOM     21  C   UNL     1       1.244   3.210  20.677  0.00  0.00    +0.000 A 
ATOM     22  F   UNL     1       0.890   2.588  21.809  0.00  0.00    +0.000 F 
ATOM     23  C   UNL     1       2.009   4.372  20.747  0.00  0.00    +0.000 A 
ENDBRANCH  16  17
ENDBRANCH   4  16
TORSDOF 4
ENDMDL
MODEL 5
REMARK VINA RESULT:      -7.2      2.183      2.940
REMARK  Name = 
REMARK  5 active torsions:
REMARK  status: ('A' for Active; 'I' for Inactive)
REMARK    1  A    between atoms: C_1  and  O_2
REMARK    2  A    between atoms: O_2  and  C_3
REMARK    3  A    between atoms: C_8  and  N_9
REMARK    4  A    between atoms: N_12  and  C_13
REMARK    5  A    between atoms: C_13  and  C_14
REMARK                            x       y       z     vdW  Elec       q    Type
REMARK                         _______ _______ _______ _____ _____    ______ ____
ROOT
ATOM      1  N   UNL     1       0.851  10.405  19.306  0.00  0.00    +0.000 N 
ATOM      2  C   UNL     1       0.873   9.672  18.049  0.00  0.00    +0.000 C 
ATOM      3  C   UNL     1       2.029   8.665  18.172  0.00  0.00    +0.000 C 
ATOM      4  N   UNL     1       1.988   7.841  19.392  0.00  0.00    +0.000 N 
ATOM      5  C   UNL     1       1.446   8.352  20.577  0.00  0.00    +0.000 C 
ATOM      6  O   UNL     1       1.631   7.822  21.675  0.00  0.00    +0.000 OA
ATOM      7  C   UNL     1       0.490   9.553  20.450  0.00  0.00    +0.000 C 
ENDROOT
BRANCH   1  13
ATOM      8  C   UNL     1       1.138  12.822  19.112  0.00  0.00    +0.000 A 
ATOM      9  N   UNL     1       0.684  14.100  19.092  0.00  0.00    +0.000 NA
ATOM     10  C   UNL     1      -0.646  14.224  19.289  0.00  0.00    +0.000 A 
ATOM     11  C   UNL     1      -1.473  13.134  19.495  0.00  0.00    +0.000 A 
ATOM     12  N   UNL     1      -1.020  11.855  19.515  0.00  0.00    +0.000 NA
ATOM     13  C   UNL     1       0.311  11.686  19.327  0.00  0.00    +0.000 A 
BRANCH   8  15
ATOM     14  C   UNL     1       3.138  13.719  18.282  0.00  0.00    +0.000 C 
ATOM     15  O   UNL     1       2.467  12.581  18.792  0.00  0.00    +0.000 OA
ENDBRANCH   8  15
ENDBRANCH   1  13
BRANCH   4  16
ATOM     16  C   UNL     1       2.947   6.749  19.489  0.00  0.00    +0.000 C 
BRANCH  16  17
ATOM     17  C   UNL     1       2.324   5.379  19.356  0.00  0.00    +0.000 A 
ATOM     18  C   UNL     1       2.018   4.847  18.093  0.00  0.00    +0.000 A 
ATOM     19  C   UNL     1       1.322   3.638  17.976  0.00  0.00    +0.000 A 
ATOM     20  C   UNL     1       0.928   2.948  19.119  0.00  0.00    +0.000 A 
ATOM     21  C   UNL     1       1.248   3.462  20.370  0.00  0.00    +0.000 A 
ATOM     22  F   UNL     1       0.863   2.804  21.471  0.00  0.00    +0.000 F 
ATOM     23  C   UNL     1       1.940   4.663  20.499  0.00  0.00    +0.000 A 
ENDBRANCH  16  17
ENDBRANCH   4  16
TORSDOF 4
ENDMDL
MODEL 6
REMARK VINA RESULT:      -7.2      0.891      1.345
REMARK  Name = 
REMARK  5 active torsions:
REMARK  status: ('A' for Active; 'I' for Inactive)
REMARK    1  A    between atoms: C_1  and  O_2
REMARK    2  A    between atoms: O_2  and  C_3
REMARK    3  A    between atoms: C_8  and  N_9
REMARK    4  A    between atoms: N_12  and  C_13
REMARK    5  A    between atoms: C_13  and  C_14
REMARK                            x       y       z     vdW  Elec       q    Type
REMARK                         _______ _______ _______ _____ _____    ______ ____
ROOT
ATOM      1  N   UNL     1       0.454   9.548  19.490  0.00  0.00    +0.000 N 
ATOM      2  C   UNL     1       1.049   9.034  20.714  0.00  0.00    +0.000 C 
ATOM      3  C   UNL     1       1.634   7.659  20.351  0.00  0.00    +0.000 C 
ATOM      4  N   UNL     1       2.514   7.669  19.169  0.00  0.00    +0.000 N 
ATOM      5  C   UNL     1       2.291   8.575  18.126  0.00  0.00    +0.000 C 
ATOM      6  O   UNL     1       2.811   8.447  17.014  0.00  0.00    +0.000 OA
ATOM      7  C   UNL     1       1.457   9.828  18.450  0.00  0.00    +0.000 C 
ENDROOT
BRANCH   1  13
ATOM      8  C   UNL     1      -1.525  10.606  18.530  0.00  0.00    +0.000 A 
ATOM      9  N   UNL     1      -2.574  11.466  18.555  0.00  0.00    +0.000 NA
ATOM     10  C   UNL     1      -2.666  12.204  19.682  0.00  0.00    +0.000 A 
ATOM     11  C   UNL     1      -1.760  12.090  20.722  0.00  0.00    +0.000 A 
ATOM     12  N   UNL     1      -0.711  11.230  20.699  0.00  0.00    +0.000 NA
ATOM     13  C   UNL     1      -0.579  10.473  19.581  0.00  0.00    +0.000 A 
BRANCH   8  15
ATOM     14  C   UNL     1      -2.375   9.937  16.450  0.00  0.00    +0.000 C 
ATOM     15  O   UNL     1      -1.419   9.714  17.471  0.00  0.00    +0.000 OA
ENDBRANCH   8  15
ENDBRANCH   1  13
BRANCH   4  16
ATOM     16  C   UNL     1       3.241   6.442  18.872  0.00  0.00    +0.000 C 
BRANCH  16  17
ATOM     17  C   UNL     1       2.465   5.185  19.186  0.00  0.00    +0.000 A 
ATOM     18  C   UNL     1       1.700   4.545  18.196  0.00  0.00    +0.000 A 
ATOM     19  C   UNL     1       0.878   3.459  18.517  0.00  0.00    +0.000 A 
ATOM     20  C   UNL     1       0.814   2.999  19.830  0.00  0.00    +0.000 A 
ATOM     21  C   UNL     1       1.585   3.617  20.807  0.00  0.00    +0.000 A 
ATOM     22  F   UNL     1       1.519   3.182  22.072  0.00  0.00    +0.000 F 
ATOM     23  C   UNL     1       2.407   4.697  20.499  0.00  0.00    +0.000 A 
ENDBRANCH  16  17
ENDBRANCH   4  16
TORSDOF 4
ENDMDL
MODEL 7
REMARK VINA RESULT:      -7.2      5.512      7.932
REMARK  Name = 
REMARK  5 active torsions:
REMARK  status: ('A' for Active; 'I' for Inactive)
REMARK    1  A    between atoms: C_1  and  O_2
REMARK    2  A    between atoms: O_2  and  C_3
REMARK    3  A    between atoms: C_8  and  N_9
REMARK    4  A    between atoms: N_12  and  C_13
REMARK    5  A    between atoms: C_13  and  C_14
REMARK                            x       y       z     vdW  Elec       q    Type
REMARK                         _______ _______ _______ _____ _____    ______ ____
ROOT
ATOM      1  N   UNL     1       4.311   4.886  17.580  0.00  0.00    +0.000 N 
ATOM      2  C   UNL     1       5.597   4.254  17.833  0.00  0.00    +0.000 C 
ATOM      3  C   UNL     1       6.261   4.087  16.457  0.00  0.00    +0.000 C 
ATOM      4  N   UNL     1       6.303   5.319  15.651  0.00  0.00    +0.000 N 
ATOM      5  C   UNL     1       5.294   6.281  15.770  0.00  0.00    +0.000 C 
ATOM      6  O   UNL     1       5.132   7.180  14.941  0.00  0.00    +0.000 OA
ATOM      7  C   UNL     1       4.449   6.255  17.058  0.00  0.00    +0.000 C 
ENDROOT
BRANCH   1  13
ATOM      8  C   UNL     1       2.551   3.481  18.521  0.00  0.00    +0.000 A 
ATOM      9  N   UNL     1       1.549   3.214  19.395  0.00  0.00    +0.000 NA
ATOM     10  C   UNL     1       1.287   4.211  20.267  0.00  0.00    +0.000 A 
ATOM     11  C   UNL     1       1.985   5.406  20.263  0.00  0.00    +0.000 A 
ATOM     12  N   UNL     1       2.988   5.674  19.389  0.00  0.00    +0.000 NA
ATOM     13  C   UNL     1       3.279   4.701  18.492  0.00  0.00    +0.000 A 
BRANCH   8  15
ATOM     14  C   UNL     1       3.519   1.353  18.350  0.00  0.00    +0.000 C 
ATOM     15  O   UNL     1       2.980   2.472  17.670  0.00  0.00    +0.000 OA
ENDBRANCH   8  15
ENDBRANCH   1  13
BRANCH   4  16
ATOM     16  C   UNL     1       7.072   5.278  14.413  0.00  0.00    +0.000 C 
BRANCH  16  17
ATOM     17  C   UNL     1       6.490   4.356  13.368  0.00  0.00    +0.000 A 
ATOM     18  C   UNL     1       5.101   4.168  13.266  0.00  0.00    +0.000 A 
ATOM     19  C   UNL     1       4.570   3.216  12.387  0.00  0.00    +0.000 A 
ATOM     20  C   UNL     1       5.422   2.446  11.600  0.00  0.00    +0.000 A 
ATOM     21  C   UNL     1       6.794   2.644  11.683  0.00  0.00    +0.000 A 
ATOM     22  F   UNL     1       7.615   1.898  10.933  0.00  0.00    +0.000 F 
ATOM     23  C   UNL     1       7.334   3.588  12.553  0.00  0.00    +0.000 A 
ENDBRANCH  16  17
ENDBRANCH   4  16
TORSDOF 4
ENDMDL
MODEL 8
REMARK VINA RESULT:      -7.2      5.273      7.983
REMARK  Name = 
REMARK  5 active torsions:
REMARK  status: ('A' for Active; 'I' for Inactive)
REMARK    1  A    between atoms: C_1  and  O_2
REMARK    2  A    between atoms: O_2  and  C_3
REMARK    3  A    between atoms: C_8  and  N_9
REMARK    4  A    between atoms: N_12  and  C_13
REMARK    5  A    between atoms: C_13  and  C_14
REMARK                            x       y       z     vdW  Elec       q    Type
REMARK                         _______ _______ _______ _____ _____    ______ ____
ROOT
ATOM      1  N   UNL     1       4.060   3.979  18.383  0.00  0.00    +0.000 N 
ATOM      2  C   UNL     1       3.777   3.673  16.989  0.00  0.00    +0.000 C 
ATOM      3  C   UNL     1       4.658   4.626  16.163  0.00  0.00    +0.000 C 
ATOM      4  N   UNL     1       6.081   4.618  16.544  0.00  0.00    +0.000 N 
ATOM      5  C   UNL     1       6.461   4.367  17.867  0.00  0.00    +0.000 C 
ATOM      6  O   UNL     1       7.593   4.616  18.291  0.00  0.00    +0.000 OA
ATOM      7  C   UNL     1       5.440   3.644  18.765  0.00  0.00    +0.000 C 
ENDROOT
BRANCH   1  13
ATOM      8  C   UNL     1       2.684   4.693  20.268  0.00  0.00    +0.000 A 
ATOM      9  N   UNL     1       1.731   4.504  21.215  0.00  0.00    +0.000 NA
ATOM     10  C   UNL     1       1.177   3.273  21.214  0.00  0.00    +0.000 A 
ATOM     11  C   UNL     1       1.555   2.288  20.319  0.00  0.00    +0.000 A 
ATOM     12  N   UNL     1       2.508   2.475  19.371  0.00  0.00    +0.000 NA
ATOM     13  C   UNL     1       3.094   3.697  19.342  0.00  0.00    +0.000 A 
BRANCH   8  15
ATOM     14  C   UNL     1       2.274   6.922  19.670  0.00  0.00    +0.000 C 
ATOM     15  O   UNL     1       3.221   5.963  20.106  0.00  0.00    +0.000 OA
ENDBRANCH   8  15
ENDBRANCH   1  13
BRANCH   4  16
ATOM     16  C   UNL     1       7.001   5.361  15.692  0.00  0.00    +0.000 C 
BRANCH  16  17
ATOM     17  C   UNL     1       7.059   4.850  14.272  0.00  0.00    +0.000 A 
ATOM     18  C   UNL     1       7.834   5.508  13.301  0.00  0.00    +0.000 A 
ATOM     19  C   UNL     1       7.785   5.114  11.959  0.00  0.00    +0.000 A 
ATOM     20  C   UNL     1       6.964   4.058  11.574  0.00  0.00    +0.000 A 
ATOM     21  C   UNL     1       6.212   3.393  12.534  0.00  0.00    +0.000 A 
ATOM     22  F   UNL     1       5.415   2.382  12.164  0.00  0.00    +0.000 F 
ATOM     23  C   UNL     1       6.253   3.775  13.872  0.00  0.00    +0.000 A 
ENDBRANCH  16  17
ENDBRANCH   4  16
TORSDOF 4
ENDMDL
MODEL 9
REMARK VINA RESULT:      -7.1      3.166      7.640
REMARK  Name = 
REMARK  5 active torsions:
REMARK  status: ('A' for Active; 'I' for Inactive)
REMARK    1  A    between atoms: C_1  and  O_2
REMARK    2  A    between atoms: O_2  and  C_3
REMARK    3  A    between atoms: C_8  and  N_9
REMARK    4  A    between atoms: N_12  and  C_13
REMARK    5  A    between atoms: C_13  and  C_14
REMARK                            x       y       z     vdW  Elec       q    Type
REMARK                         _______ _______ _______ _____ _____    ______ ____
ROOT
ATOM      1  N   UNL     1       2.631   6.082  19.645  0.00  0.00    +0.000 N 
ATOM      2  C   UNL     1       1.544   6.421  20.550  0.00  0.00    +0.000 C 
ATOM      3  C   UNL     1       1.550   7.954  20.659  0.00  0.00    +0.000 C 
ATOM      4  N   UNL     1       1.543   8.654  19.363  0.00  0.00    +0.000 N 
ATOM      5  C   UNL     1       2.158   8.081  18.244  0.00  0.00    +0.000 C 
ATOM      6  O   UNL     1       2.420   8.729  17.226  0.00  0.00    +0.000 OA
ATOM      7  C   UNL     1       2.393   6.560  18.274  0.00  0.00    +0.000 C 
ENDROOT
BRANCH   1  13
ATOM      8  C   UNL     1       4.585   4.641  19.388  0.00  0.00    +0.000 A 
ATOM      9  N   UNL     1       5.238   3.456  19.479  0.00  0.00    +0.000 NA
ATOM     10  C   UNL     1       4.486   2.437  19.948  0.00  0.00    +0.000 A 
ATOM     11  C   UNL     1       3.159   2.594  20.305  0.00  0.00    +0.000 A 
ATOM     12  N   UNL     1       2.504   3.779  20.215  0.00  0.00    +0.000 NA
ATOM     13  C   UNL     1       3.221   4.828  19.742  0.00  0.00    +0.000 A 
BRANCH   8  15
ATOM     14  C   UNL     1       6.707   5.573  19.039  0.00  0.00    +0.000 C 
ATOM     15  O   UNL     1       5.305   5.775  19.038  0.00  0.00    +0.000 OA
ENDBRANCH   8  15
ENDBRANCH   1  13
BRANCH   4  16
ATOM     16  C   UNL     1       1.371  10.101  19.389  0.00  0.00    +0.000 C 
BRANCH  16  17
ATOM     17  C   UNL     1      -0.054  10.547  19.160  0.00  0.00    +0.000 A 
ATOM     18  C   UNL     1      -0.772  10.112  18.033  0.00  0.00    +0.000 A 
ATOM     19  C   UNL     1      -2.043  10.628  17.752  0.00  0.00    +0.000 A 
ATOM     20  C   UNL     1      -2.609  11.580  18.595  0.00  0.00    +0.000 A 
ATOM     21  C   UNL     1      -1.910  11.996  19.721  0.00  0.00    +0.000 A 
ATOM     22  F   UNL     1      -2.450  12.918  20.529  0.00  0.00    +0.000 F 
ATOM     23  C   UNL     1      -0.646  11.490  20.011  0.00  0.00    +0.000 A 
ENDBRANCH  16  17
ENDBRANCH   4  16
TORSDOF 4
ENDMDL
