MODEL 1
REMARK VINA RESULT:      -7.7      0.000      0.000
REMARK  Name = 
REMARK  8 active torsions:
REMARK  status: ('A' for Active; 'I' for Inactive)
REMARK    1  A    between atoms: C_2  and  C_3
REMARK    2  A    between atoms: C_3  and  O_4
REMARK    3  A    between atoms: O_4  and  C_5
REMARK    4  A    between atoms: C_5  and  C_7
REMARK    5  A    between atoms: C_7  and  C_8
REMARK    6  A    between atoms: C_7  and  C_17
REMARK    7  A    between atoms: C_8  and  C_10
REMARK    8  A    between atoms: C_10  and  C_11
REMARK                            x       y       z     vdW  Elec       q    Type
REMARK                         _______ _______ _______ _____ _____    ______ ____
ROOT
ATOM      1  C   UNL     1       5.954   4.847  16.280  0.00  0.00    +0.000 C 
ENDROOT
BRANCH   1   2
ATOM      2  C   UNL     1       6.349   4.572  14.833  0.00  0.00    +0.000 A 
ATOM      3  C   UNL     1       7.451   5.245  14.278  0.00  0.00    +0.000 A 
ATOM      4  C   UNL     1       7.795   5.065  12.936  0.00  0.00    +0.000 A 
ATOM      5  C   UNL     1       7.052   4.201  12.135  0.00  0.00    +0.000 A 
ATOM      6  C   UNL     1       5.978   3.503  12.679  0.00  0.00    +0.000 A 
ATOM      7  C   UNL     1       5.631   3.682  14.020  0.00  0.00    +0.000 A 
ENDBRANCH   1   2
BRANCH   1   8
ATOM      8  C   UNL     1       7.127   4.935  17.233  0.00  0.00    +0.000 C 
ATOM      9  O   UNL     1       8.109   4.204  17.159  0.00  0.00    +0.000 OA
BRANCH   8  10
ATOM     10  O   UNL     1       6.957   5.881  18.196  0.00  0.00    +0.000 OA
BRANCH  10  11
ATOM     11  C   UNL     1       8.058   6.781  18.391  0.00  0.00    +0.000 C 
BRANCH  11  13
ATOM     12  C   UNL     1       8.136   9.259  18.033  0.00  0.00    +0.000 C 
ATOM     13  C   UNL     1       7.862   8.027  17.582  0.00  0.00    +0.000 C 
ENDBRANCH  11  13
ENDBRANCH  10  11
ENDBRANCH   8  10
ENDBRANCH   1   8
BRANCH   1  14
ATOM     14  C   UNL     1       4.925   5.960  16.419  0.00  0.00    +0.000 C 
ATOM     15  O   UNL     1       4.914   6.893  15.601  0.00  0.00    +0.000 OA
BRANCH  14  16
ATOM     16  C   UNL     1       3.904   5.890  17.535  0.00  0.00    +0.000 C 
BRANCH  16  17
ATOM     17  C   UNL     1       3.606   4.478  17.964  0.00  0.00    +0.000 A 
ATOM     18  C   UNL     1       4.163   3.951  19.136  0.00  0.00    +0.000 A 
ATOM     19  C   UNL     1       3.905   2.632  19.514  0.00  0.00    +0.000 A 
ATOM     20  C   UNL     1       3.094   1.825  18.719  0.00  0.00    +0.000 A 
ATOM     21  C   UNL     1       2.536   2.335  17.550  0.00  0.00    +0.000 A 
ATOM     22  C   UNL     1       2.788   3.656  17.176  0.00  0.00    +0.000 A 
ENDBRANCH  16  17
ENDBRANCH  14  16
ENDBRANCH   1  14
TORSDOF 8
ENDMDL
MODEL 2
REMARK VINA RESULT:      -7.7      1.958      4.989
REMARK  Name = 
REMARK  8 active torsions:
REMARK  status: ('A' for Active; 'I' for Inactive)
REMARK    1  A    between atoms: C_2  and  C_3
REMARK    2  A    between atoms: C_3  and  O_4
REMARK    3  A    between atoms: O_4  and  C_5
REMARK    4  A    between atoms: C_5  and  C_7
REMARK    5  A    between atoms: C_7  and  C_8
REMARK    6  A    between atoms: C_7  and  C_17
REMARK    7  A    between atoms: C_8  and  C_10
REMARK    8  A    between atoms: C_10  and  C_11
REMARK                            x       y       z     vdW  Elec       q    Type
REMARK                         _______ _______ _______ _____ _____    ______ ____
ROOT
ATOM      1  C   UNL     1       4.879   5.509  17.402  0.00  0.00    +0.000 C 
ENDROOT
BRANCH   1   2
ATOM      2  C   UNL     1       3.812   6.425  17.992  0.00  0.00    +0.000 A 
ATOM      3  C   UNL     1       3.341   7.513  17.236  0.00  0.00    +0.000 A 
ATOM      4  C   UNL     1       2.415   8.408  17.776  0.00  0.00    +0.000 A 
ATOM      5  C   UNL     1       1.935   8.221  19.070  0.00  0.00    +0.000 A 
ATOM      6  C   UNL     1       2.367   7.130  19.819  0.00  0.00    +0.000 A 
ATOM      7  C   UNL     1       3.295   6.234  19.282  0.00  0.00    +0.000 A 
ENDBRANCH   1   2
BRANCH   1   8
ATOM      8  C   UNL     1       6.157   6.221  17.014  0.00  0.00    +0.000 C 
ATOM      9  O   UNL     1       6.684   7.083  17.709  0.00  0.00    +0.000 OA
BRANCH   8  10
ATOM     10  O   UNL     1       6.633   5.830  15.801  0.00  0.00    +0.000 OA
BRANCH  10  11
ATOM     11  C   UNL     1       5.683   5.199  14.930  0.00  0.00    +0.000 C 
BRANCH  11  13
ATOM     12  C   UNL     1       5.952   3.624  13.000  0.00  0.00    +0.000 C 
ATOM     13  C   UNL     1       6.315   4.040  14.221  0.00  0.00    +0.000 C 
ENDBRANCH  11  13
ENDBRANCH  10  11
ENDBRANCH   8  10
ENDBRANCH   1   8
BRANCH   1  14
ATOM     14  C   UNL     1       5.071   4.225  18.196  0.00  0.00    +0.000 C 
ATOM     15  O   UNL     1       5.987   4.148  19.028  0.00  0.00    +0.000 OA
BRANCH  14  16
ATOM     16  C   UNL     1       4.113   3.071  17.983  0.00  0.00    +0.000 C 
BRANCH  16  17
ATOM     17  C   UNL     1       3.072   2.970  19.066  0.00  0.00    +0.000 A 
ATOM     18  C   UNL     1       1.714   3.158  18.776  0.00  0.00    +0.000 A 
ATOM     19  C   UNL     1       0.756   3.091  19.790  0.00  0.00    +0.000 A 
ATOM     20  C   UNL     1       1.148   2.844  21.104  0.00  0.00    +0.000 A 
ATOM     21  C   UNL     1       2.494   2.658  21.406  0.00  0.00    +0.000 A 
ATOM     22  C   UNL     1       3.451   2.718  20.392  0.00  0.00    +0.000 A 
ENDBRANCH  16  17
ENDBRANCH  14  16
ENDBRANCH   1  14
TORSDOF 8
ENDMDL
MODEL 3
REMARK VINA RESULT:      -7.7      1.939      5.010
REMARK  Name = 
REMARK  8 active torsions:
REMARK  status: ('A' for Active; 'I' for Inactive)
REMARK    1  A    between atoms: C_2  and  C_3
REMARK    2  A    between atoms: C_3  and  O_4
REMARK    3  A    between atoms: O_4  and  C_5
REMARK    4  A    between atoms: C_5  and  C_7
REMARK    5  A    between atoms: C_7  and  C_8
REMARK    6  A    between atoms: C_7  and  C_17
REMARK    7  A    between atoms: C_8  and  C_10
REMARK    8  A    between atoms: C_10  and  C_11
REMARK                            x       y       z     vdW  Elec       q    Type
REMARK                         _______ _______ _______ _____ _____    ______ ____
ROOT
ATOM      1  C   UNL     1       4.884   5.559  17.313  0.00  0.00    +0.000 C 
ENDROOT
BRANCH   1   2
ATOM      2  C   UNL     1       3.858   6.500  17.935  0.00  0.00    +0.000 A 
ATOM      3  C   UNL     1       3.395   6.253  19.238  0.00  0.00    +0.000 A 
ATOM      4  C   UNL     1       2.405   7.057  19.809  0.00  0.00    +0.000 A 
ATOM      5  C   UNL     1       1.875   8.127  19.091  0.00  0.00    +0.000 A 
ATOM      6  C   UNL     1       2.347   8.403  17.810  0.00  0.00    +0.000 A 
ATOM      7  C   UNL     1       3.335   7.600  17.237  0.00  0.00    +0.000 A 
ENDBRANCH   1   2
BRANCH   1   8
ATOM      8  C   UNL     1       6.154   6.245  16.858  0.00  0.00    +0.000 C 
ATOM      9  O   UNL     1       6.705   7.132  17.501  0.00  0.00    +0.000 OA
BRANCH   8  10
ATOM     10  O   UNL     1       6.593   5.799  15.651  0.00  0.00    +0.000 OA
BRANCH  10  11
ATOM     11  C   UNL     1       5.597   5.210  14.801  0.00  0.00    +0.000 C 
BRANCH  11  13
ATOM     12  C   UNL     1       6.224   3.685  12.915  0.00  0.00    +0.000 C 
ATOM     13  C   UNL     1       6.098   3.919  14.229  0.00  0.00    +0.000 C 
ENDBRANCH  11  13
ENDBRANCH  10  11
ENDBRANCH   8  10
ENDBRANCH   1   8
BRANCH   1  14
ATOM     14  C   UNL     1       5.091   4.283  18.117  0.00  0.00    +0.000 C 
ATOM     15  O   UNL     1       6.005   4.225  18.953  0.00  0.00    +0.000 OA
BRANCH  14  16
ATOM     16  C   UNL     1       4.151   3.115  17.909  0.00  0.00    +0.000 C 
BRANCH  16  17
ATOM     17  C   UNL     1       3.097   3.016  18.981  0.00  0.00    +0.000 A 
ATOM     18  C   UNL     1       1.743   3.202  18.676  0.00  0.00    +0.000 A 
ATOM     19  C   UNL     1       0.774   3.137  19.680  0.00  0.00    +0.000 A 
ATOM     20  C   UNL     1       1.152   2.895  20.999  0.00  0.00    +0.000 A 
ATOM     21  C   UNL     1       2.495   2.711  21.316  0.00  0.00    +0.000 A 
ATOM     22  C   UNL     1       3.463   2.769  20.312  0.00  0.00    +0.000 A 
ENDBRANCH  16  17
ENDBRANCH  14  16
ENDBRANCH   1  14
TORSDOF 8
ENDMDL
MODEL 4
REMARK VINA RESULT:      -7.6      1.957      4.946
REMARK  Name = 
REMARK  8 active torsions:
REMARK  status: ('A' for Active; 'I' for Inactive)
REMARK    1  A    between atoms: C_2  and  C_3
REMARK    2  A    between atoms: C_3  and  O_4
REMARK    3  A    between atoms: O_4  and  C_5
REMARK    4  A    between atoms: C_5  and  C_7
REMARK    5  A    between atoms: C_7  and  C_8
REMARK    6  A    between atoms: C_7  and  C_17
REMARK    7  A    between atoms: C_8  and  C_10
REMARK    8  A    between atoms: C_10  and  C_11
REMARK                            x       y       z     vdW  Elec       q    Type
REMARK                         _______ _______ _______ _____ _____    ______ ____
ROOT
ATOM      1  C   UNL     1       4.590   5.657  17.149  0.00  0.00    +0.000 C 
ENDROOT
BRANCH   1   2
ATOM      2  C   UNL     1       3.640   6.595  17.887  0.00  0.00    +0.000 A 
ATOM      3  C   UNL     1       3.258   6.293  19.205  0.00  0.00    +0.000 A 
ATOM      4  C   UNL     1       2.337   7.096  19.882  0.00  0.00    +0.000 A 
ATOM      5  C   UNL     1       1.798   8.218  19.258  0.00  0.00    +0.000 A 
ATOM      6  C   UNL     1       2.191   8.548  17.964  0.00  0.00    +0.000 A 
ATOM      7  C   UNL     1       3.111   7.746  17.284  0.00  0.00    +0.000 A 
ENDBRANCH   1   2
BRANCH   1   8
ATOM      8  C   UNL     1       5.768   6.355  16.503  0.00  0.00    +0.000 C 
ATOM      9  O   UNL     1       6.439   7.208  17.074  0.00  0.00    +0.000 OA
BRANCH   8  10
ATOM     10  O   UNL     1       5.976   5.961  15.218  0.00  0.00    +0.000 OA
BRANCH  10  11
ATOM     11  C   UNL     1       6.957   4.930  15.030  0.00  0.00    +0.000 C 
BRANCH  11  13
ATOM     12  C   UNL     1       5.264   3.964  13.456  0.00  0.00    +0.000 C 
ATOM     13  C   UNL     1       6.427   3.868  14.116  0.00  0.00    +0.000 C 
ENDBRANCH  11  13
ENDBRANCH  10  11
ENDBRANCH   8  10
ENDBRANCH   1   8
BRANCH   1  14
ATOM     14  C   UNL     1       4.936   4.407  17.945  0.00  0.00    +0.000 C 
ATOM     15  O   UNL     1       5.924   4.410  18.695  0.00  0.00    +0.000 OA
BRANCH  14  16
ATOM     16  C   UNL     1       4.044   3.188  17.837  0.00  0.00    +0.000 C 
BRANCH  16  17
ATOM     17  C   UNL     1       3.061   3.083  18.973  0.00  0.00    +0.000 A 
ATOM     18  C   UNL     1       3.497   2.802  20.275  0.00  0.00    +0.000 A 
ATOM     19  C   UNL     1       2.577   2.678  21.319  0.00  0.00    +0.000 A 
ATOM     20  C   UNL     1       1.214   2.824  21.069  0.00  0.00    +0.000 A 
ATOM     21  C   UNL     1       0.769   3.100  19.779  0.00  0.00    +0.000 A 
ATOM     22  C   UNL     1       1.688   3.231  18.737  0.00  0.00    +0.000 A 
ENDBRANCH  16  17
ENDBRANCH  14  16
ENDBRANCH   1  14
TORSDOF 8
ENDMDL
MODEL 5
REMARK VINA RESULT:      -7.6      2.522      4.501
REMARK  Name = 
REMARK  8 active torsions:
REMARK  status: ('A' for Active; 'I' for Inactive)
REMARK    1  A    between atoms: C_2  and  C_3
REMARK    2  A    between atoms: C_3  and  O_4
REMARK    3  A    between atoms: O_4  and  C_5
REMARK    4  A    between atoms: C_5  and  C_7
REMARK    5  A    between atoms: C_7  and  C_8
REMARK    6  A    between atoms: C_7  and  C_17
REMARK    7  A    between atoms: C_8  and  C_10
REMARK    8  A    between atoms: C_10  and  C_11
REMARK                            x       y       z     vdW  Elec       q    Type
REMARK                         _______ _______ _______ _____ _____    ______ ____
ROOT
ATOM      1  C   UNL     1       4.774   5.612  17.318  0.00  0.00    +0.000 C 
ENDROOT
BRANCH   1   2
ATOM      2  C   UNL     1       3.751   6.524  17.986  0.00  0.00    +0.000 A 
ATOM      3  C   UNL     1       3.339   6.252  19.302  0.00  0.00    +0.000 A 
ATOM      4  C   UNL     1       2.354   7.028  19.916  0.00  0.00    +0.000 A 
ATOM      5  C   UNL     1       1.778   8.095  19.231  0.00  0.00    +0.000 A 
ATOM      6  C   UNL     1       2.199   8.397  17.938  0.00  0.00    +0.000 A 
ATOM      7  C   UNL     1       3.183   7.621  17.321  0.00  0.00    +0.000 A 
ENDBRANCH   1   2
BRANCH   1   8
ATOM      8  C   UNL     1       6.040   6.319  16.884  0.00  0.00    +0.000 C 
ATOM      9  O   UNL     1       6.644   6.043  15.852  0.00  0.00    +0.000 OA
BRANCH   8  10
ATOM     10  O   UNL     1       6.453   7.260  17.775  0.00  0.00    +0.000 OA
BRANCH  10  11
ATOM     11  C   UNL     1       7.842   7.614  17.713  0.00  0.00    +0.000 C 
BRANCH  11  13
ATOM     12  C   UNL     1       8.882   9.710  18.607  0.00  0.00    +0.000 C 
ATOM     13  C   UNL     1       8.005   9.101  17.798  0.00  0.00    +0.000 C 
ENDBRANCH  11  13
ENDBRANCH  10  11
ENDBRANCH   8  10
ENDBRANCH   1   8
BRANCH   1  14
ATOM     14  C   UNL     1       4.989   4.303  18.066  0.00  0.00    +0.000 C 
ATOM     15  O   UNL     1       5.945   4.191  18.847  0.00  0.00    +0.000 OA
BRANCH  14  16
ATOM     16  C   UNL     1       4.006   3.168  17.870  0.00  0.00    +0.000 C 
BRANCH  16  17
ATOM     17  C   UNL     1       3.028   3.041  19.008  0.00  0.00    +0.000 A 
ATOM     18  C   UNL     1       1.656   3.229  18.799  0.00  0.00    +0.000 A 
ATOM     19  C   UNL     1       0.757   3.138  19.864  0.00  0.00    +0.000 A 
ATOM     20  C   UNL     1       1.223   2.866  21.149  0.00  0.00    +0.000 A 
ATOM     21  C   UNL     1       2.585   2.679  21.370  0.00  0.00    +0.000 A 
ATOM     22  C   UNL     1       3.482   2.763  20.304  0.00  0.00    +0.000 A 
ENDBRANCH  16  17
ENDBRANCH  14  16
ENDBRANCH   1  14
TORSDOF 8
ENDMDL
MODEL 6
REMARK VINA RESULT:      -7.6      0.383      1.508
REMARK  Name = 
REMARK  8 active torsions:
REMARK  status: ('A' for Active; 'I' for Inactive)
REMARK    1  A    between atoms: C_2  and  C_3
REMARK    2  A    between atoms: C_3  and  O_4
REMARK    3  A    between atoms: O_4  and  C_5
REMARK    4  A    between atoms: C_5  and  C_7
REMARK    5  A    between atoms: C_7  and  C_8
REMARK    6  A    between atoms: C_7  and  C_17
REMARK    7  A    between atoms: C_8  and  C_10
REMARK    8  A    between atoms: C_10  and  C_11
REMARK                            x       y       z     vdW  Elec       q    Type
REMARK                         _______ _______ _______ _____ _____    ______ ____
ROOT
ATOM      1  C   UNL     1       6.027   4.914  16.156  0.00  0.00    +0.000 C 
ENDROOT
BRANCH   1   2
ATOM      2  C   UNL     1       6.382   4.680  14.692  0.00  0.00    +0.000 A 
ATOM      3  C   UNL     1       5.629   3.765  13.936  0.00  0.00    +0.000 A 
ATOM      4  C   UNL     1       5.972   3.480  12.613  0.00  0.00    +0.000 A 
ATOM      5  C   UNL     1       7.062   4.115  12.022  0.00  0.00    +0.000 A 
ATOM      6  C   UNL     1       7.798   5.048  12.747  0.00  0.00    +0.000 A 
ATOM      7  C   UNL     1       7.458   5.334  14.071  0.00  0.00    +0.000 A 
ENDBRANCH   1   2
BRANCH   1   8
ATOM      8  C   UNL     1       7.229   5.059  17.066  0.00  0.00    +0.000 C 
ATOM      9  O   UNL     1       8.136   4.235  17.118  0.00  0.00    +0.000 OA
BRANCH   8  10
ATOM     10  O   UNL     1       7.174   6.176  17.840  0.00  0.00    +0.000 OA
BRANCH  10  11
ATOM     11  C   UNL     1       7.742   7.363  17.267  0.00  0.00    +0.000 C 
BRANCH  11  13
ATOM     12  C   UNL     1       8.496   9.552  18.222  0.00  0.00    +0.000 C 
ATOM     13  C   UNL     1       8.333   8.228  18.339  0.00  0.00    +0.000 C 
ENDBRANCH  11  13
ENDBRANCH  10  11
ENDBRANCH   8  10
ENDBRANCH   1   8
BRANCH   1  14
ATOM     14  C   UNL     1       4.941   5.962  16.350  0.00  0.00    +0.000 C 
ATOM     15  O   UNL     1       4.834   6.894  15.539  0.00  0.00    +0.000 OA
BRANCH  14  16
ATOM     16  C   UNL     1       3.980   5.827  17.513  0.00  0.00    +0.000 C 
BRANCH  16  17
ATOM     17  C   UNL     1       3.742   4.394  17.909  0.00  0.00    +0.000 A 
ATOM     18  C   UNL     1       2.897   3.572  17.153  0.00  0.00    +0.000 A 
ATOM     19  C   UNL     1       2.658   2.251  17.542  0.00  0.00    +0.000 A 
ATOM     20  C   UNL     1       3.254   1.745  18.695  0.00  0.00    +0.000 A 
ATOM     21  C   UNL     1       4.094   2.554  19.457  0.00  0.00    +0.000 A 
ATOM     22  C   UNL     1       4.338   3.871  19.065  0.00  0.00    +0.000 A 
ENDBRANCH  16  17
ENDBRANCH  14  16
ENDBRANCH   1  14
TORSDOF 8
ENDMDL
MODEL 7
REMARK VINA RESULT:      -7.5      2.528      4.465
REMARK  Name = 
REMARK  8 active torsions:
REMARK  status: ('A' for Active; 'I' for Inactive)
REMARK    1  A    between atoms: C_2  and  C_3
REMARK    2  A    between atoms: C_3  and  O_4
REMARK    3  A    between atoms: O_4  and  C_5
REMARK    4  A    between atoms: C_5  and  C_7
REMARK    5  A    between atoms: C_7  and  C_8
REMARK    6  A    between atoms: C_7  and  C_17
REMARK    7  A    between atoms: C_8  and  C_10
REMARK    8  A    between atoms: C_10  and  C_11
REMARK                            x       y       z     vdW  Elec       q    Type
REMARK                         _______ _______ _______ _____ _____    ______ ____
ROOT
ATOM      1  C   UNL     1       4.760   5.607  17.321  0.00  0.00    +0.000 C 
ENDROOT
BRANCH   1   2
ATOM      2  C   UNL     1       3.723   6.516  17.972  0.00  0.00    +0.000 A 
ATOM      3  C   UNL     1       3.241   7.631  17.264  0.00  0.00    +0.000 A 
ATOM      4  C   UNL     1       2.343   8.520  17.859  0.00  0.00    +0.000 A 
ATOM      5  C   UNL     1       1.903   8.300  19.163  0.00  0.00    +0.000 A 
ATOM      6  C   UNL     1       2.347   7.182  19.865  0.00  0.00    +0.000 A 
ATOM      7  C   UNL     1       3.246   6.292  19.273  0.00  0.00    +0.000 A 
ENDBRANCH   1   2
BRANCH   1   8
ATOM      8  C   UNL     1       6.027   6.319  16.898  0.00  0.00    +0.000 C 
ATOM      9  O   UNL     1       6.640   6.046  15.871  0.00  0.00    +0.000 OA
BRANCH   8  10
ATOM     10  O   UNL     1       6.427   7.262  17.792  0.00  0.00    +0.000 OA
BRANCH  10  11
ATOM     11  C   UNL     1       7.809   7.644  17.722  0.00  0.00    +0.000 C 
BRANCH  11  13
ATOM     12  C   UNL     1       8.903   9.755  18.513  0.00  0.00    +0.000 C 
ATOM     13  C   UNL     1       7.943   9.134  17.814  0.00  0.00    +0.000 C 
ENDBRANCH  11  13
ENDBRANCH  10  11
ENDBRANCH   8  10
ENDBRANCH   1   8
BRANCH   1  14
ATOM     14  C   UNL     1       4.974   4.304  18.080  0.00  0.00    +0.000 C 
ATOM     15  O   UNL     1       5.919   4.206  18.877  0.00  0.00    +0.000 OA
BRANCH  14  16
ATOM     16  C   UNL     1       4.005   3.159  17.876  0.00  0.00    +0.000 C 
BRANCH  16  17
ATOM     17  C   UNL     1       3.024   3.017  19.010  0.00  0.00    +0.000 A 
ATOM     18  C   UNL     1       1.648   3.165  18.791  0.00  0.00    +0.000 A 
ATOM     19  C   UNL     1       0.746   3.060  19.852  0.00  0.00    +0.000 A 
ATOM     20  C   UNL     1       1.212   2.815  21.142  0.00  0.00    +0.000 A 
ATOM     21  C   UNL     1       2.577   2.669  21.373  0.00  0.00    +0.000 A 
ATOM     22  C   UNL     1       3.478   2.767  20.312  0.00  0.00    +0.000 A 
ENDBRANCH  16  17
ENDBRANCH  14  16
ENDBRANCH   1  14
TORSDOF 8
ENDMDL
MODEL 8
REMARK VINA RESULT:      -7.5      1.956      4.978
REMARK  Name = 
REMARK  8 active torsions:
REMARK  status: ('A' for Active; 'I' for Inactive)
REMARK    1  A    between atoms: C_2  and  C_3
REMARK    2  A    between atoms: C_3  and  O_4
REMARK    3  A    between atoms: O_4  and  C_5
REMARK    4  A    between atoms: C_5  and  C_7
REMARK    5  A    between atoms: C_7  and  C_8
REMARK    6  A    between atoms: C_7  and  C_17
REMARK    7  A    between atoms: C_8  and  C_10
REMARK    8  A    between atoms: C_10  and  C_11
REMARK                            x       y       z     vdW  Elec       q    Type
REMARK                         _______ _______ _______ _____ _____    ______ ____
ROOT
ATOM      1  C   UNL     1       4.532   5.549  17.165  0.00  0.00    +0.000 C 
ENDROOT
BRANCH   1   2
ATOM      2  C   UNL     1       3.577   6.501  17.876  0.00  0.00    +0.000 A 
ATOM      3  C   UNL     1       3.129   7.655  17.211  0.00  0.00    +0.000 A 
ATOM      4  C   UNL     1       2.308   8.580  17.861  0.00  0.00    +0.000 A 
ATOM      5  C   UNL     1       1.913   8.357  19.178  0.00  0.00    +0.000 A 
ATOM      6  C   UNL     1       2.323   7.203  19.840  0.00  0.00    +0.000 A 
ATOM      7  C   UNL     1       3.145   6.277  19.193  0.00  0.00    +0.000 A 
ENDBRANCH   1   2
BRANCH   1   8
ATOM      8  C   UNL     1       5.664   6.242  16.436  0.00  0.00    +0.000 C 
ATOM      9  O   UNL     1       6.391   7.077  16.963  0.00  0.00    +0.000 OA
BRANCH   8  10
ATOM     10  O   UNL     1       5.763   5.865  15.133  0.00  0.00    +0.000 OA
BRANCH  10  11
ATOM     11  C   UNL     1       6.428   4.617  14.890  0.00  0.00    +0.000 C 
BRANCH  11  13
ATOM     12  C   UNL     1       6.055   3.469  12.695  0.00  0.00    +0.000 C 
ATOM     13  C   UNL     1       6.653   4.423  13.421  0.00  0.00    +0.000 C 
ENDBRANCH  11  13
ENDBRANCH  10  11
ENDBRANCH   8  10
ENDBRANCH   1   8
BRANCH   1  14
ATOM     14  C   UNL     1       4.948   4.363  18.024  0.00  0.00    +0.000 C 
ATOM     15  O   UNL     1       5.932   4.461  18.772  0.00  0.00    +0.000 OA
BRANCH  14  16
ATOM     16  C   UNL     1       4.127   3.092  17.980  0.00  0.00    +0.000 C 
BRANCH  16  17
ATOM     17  C   UNL     1       3.100   3.021  19.080  0.00  0.00    +0.000 A 
ATOM     18  C   UNL     1       3.486   2.792  20.407  0.00  0.00    +0.000 A 
ATOM     19  C   UNL     1       2.527   2.700  21.418  0.00  0.00    +0.000 A 
ATOM     20  C   UNL     1       1.174   2.827  21.110  0.00  0.00    +0.000 A 
ATOM     21  C   UNL     1       0.778   3.053  19.795  0.00  0.00    +0.000 A 
ATOM     22  C   UNL     1       1.736   3.152  18.785  0.00  0.00    +0.000 A 
ENDBRANCH  16  17
ENDBRANCH  14  16
ENDBRANCH   1  14
TORSDOF 8
ENDMDL
MODEL 9
REMARK VINA RESULT:      -7.5      2.539      4.454
REMARK  Name = 
REMARK  8 active torsions:
REMARK  status: ('A' for Active; 'I' for Inactive)
REMARK    1  A    between atoms: C_2  and  C_3
REMARK    2  A    between atoms: C_3  and  O_4
REMARK    3  A    between atoms: O_4  and  C_5
REMARK    4  A    between atoms: C_5  and  C_7
REMARK    5  A    between atoms: C_7  and  C_8
REMARK    6  A    between atoms: C_7  and  C_17
REMARK    7  A    between atoms: C_8  and  C_10
REMARK    8  A    between atoms: C_10  and  C_11
REMARK                            x       y       z     vdW  Elec       q    Type
REMARK                         _______ _______ _______ _____ _____    ______ ____
ROOT
ATOM      1  C   UNL     1       4.688   5.648  17.362  0.00  0.00    +0.000 C 
ENDROOT
BRANCH   1   2
ATOM      2  C   UNL     1       3.680   6.577  18.030  0.00  0.00    +0.000 A 
ATOM      3  C   UNL     1       3.271   6.320  19.349  0.00  0.00    +0.000 A 
ATOM      4  C   UNL     1       2.299   7.112  19.963  0.00  0.00    +0.000 A 
ATOM      5  C   UNL     1       1.733   8.182  19.273  0.00  0.00    +0.000 A 
ATOM      6  C   UNL     1       2.150   8.469  17.977  0.00  0.00    +0.000 A 
ATOM      7  C   UNL     1       3.122   7.677  17.360  0.00  0.00    +0.000 A 
ENDBRANCH   1   2
BRANCH   1   8
ATOM      8  C   UNL     1       5.922   6.352  16.837  0.00  0.00    +0.000 C 
ATOM      9  O   UNL     1       6.445   6.077  15.762  0.00  0.00    +0.000 OA
BRANCH   8  10
ATOM     10  O   UNL     1       6.403   7.288  17.698  0.00  0.00    +0.000 OA
BRANCH  10  11
ATOM     11  C   UNL     1       7.796   7.607  17.561  0.00  0.00    +0.000 C 
BRANCH  11  13
ATOM     12  C   UNL     1       8.819   9.586  18.707  0.00  0.00    +0.000 C 
ATOM     13  C   UNL     1       8.017   9.076  17.763  0.00  0.00    +0.000 C 
ENDBRANCH  11  13
ENDBRANCH  10  11
ENDBRANCH   8  10
ENDBRANCH   1   8
BRANCH   1  14
ATOM     14  C   UNL     1       4.958   4.383  18.164  0.00  0.00    +0.000 C 
ATOM     15  O   UNL     1       5.916   4.346  18.951  0.00  0.00    +0.000 OA
BRANCH  14  16
ATOM     16  C   UNL     1       4.028   3.198  18.014  0.00  0.00    +0.000 C 
BRANCH  16  17
ATOM     17  C   UNL     1       3.034   3.091  19.141  0.00  0.00    +0.000 A 
ATOM     18  C   UNL     1       3.451   2.761  20.437  0.00  0.00    +0.000 A 
ATOM     19  C   UNL     1       2.521   2.636  21.471  0.00  0.00    +0.000 A 
ATOM     20  C   UNL     1       1.165   2.831  21.217  0.00  0.00    +0.000 A 
ATOM     21  C   UNL     1       0.737   3.156  19.933  0.00  0.00    +0.000 A 
ATOM     22  C   UNL     1       1.667   3.289  18.901  0.00  0.00    +0.000 A 
ENDBRANCH  16  17
ENDBRANCH  14  16
ENDBRANCH   1  14
TORSDOF 8
ENDMDL
