MODEL 1
REMARK VINA RESULT:      -8.7      0.000      0.000
REMARK  Name = 
REMARK  3 active torsions:
REMARK  status: ('A' for Active; 'I' for Inactive)
REMARK    1  A    between atoms: C_12  and  C_13
REMARK    2  A    between atoms: C_13  and  S_14
REMARK    3  A    between atoms: S_14  and  C_15
REMARK                            x       y       z     vdW  Elec       q    Type
REMARK                         _______ _______ _______ _____ _____    ______ ____
ROOT
ATOM      1  O   UNL     1       6.275   4.930  20.044  0.00  0.00    +0.000 OA
ATOM      2  C   UNL     1       5.389   5.096  19.212  0.00  0.00    +0.000 A 
ATOM      3  C   UNL     1       4.078   4.310  19.307  0.00  0.00    +0.000 A 
ATOM      4  C   UNL     1       3.809   3.331  20.272  0.00  0.00    +0.000 A 
ATOM      5  C   UNL     1       2.595   2.610  20.245  0.00  0.00    +0.000 A 
ATOM      6  C   UNL     1       1.617   2.888  19.285  0.00  0.00    +0.000 A 
ATOM      7  C   UNL     1       1.895   3.834  18.309  0.00  0.00    +0.000 A 
ATOM      8  C   UNL     1       3.139   4.493  18.285  0.00  0.00    +0.000 A 
ATOM      9  N   UNL     1       3.519   5.056  17.073  0.00  0.00    +0.000 NA
ATOM     10  C   UNL     1       4.683   5.595  17.039  0.00  0.00    +0.000 A 
ATOM     11  N   UNL     1       5.534   5.905  18.096  0.00  0.00    +0.000 N 
ATOM     12  C   UNL     1       6.738   6.633  17.544  0.00  0.00    +0.000 C 
ATOM     13  C   UNL     1       7.121   5.719  16.384  0.00  0.00    +0.000 C 
ATOM     14  S   UNL     1       5.521   5.711  15.505  0.00  0.00    +0.000 S 
ENDROOT
BRANCH  12  15
ATOM     15  C   UNL     1       8.000   7.287  18.241  0.00  0.00    +0.000 C 
BRANCH  15  16
ATOM     16  S   UNL     1       7.962   9.200  17.760  0.00  0.00    +0.000 S 
BRANCH  16  17
ATOM     17  C   UNL     1       9.182  10.206  18.615  0.00  0.00    +0.000 A 
ATOM     18  C   UNL     1       9.215  10.412  19.987  0.00  0.00    +0.000 A 
ATOM     19  C   UNL     1      10.174  11.270  20.563  0.00  0.00    +0.000 A 
ATOM     20  C   UNL     1      11.108  11.939  19.782  0.00  0.00    +0.000 A 
ATOM     21  C   UNL     1      11.102  11.762  18.406  0.00  0.00    +0.000 A 
ATOM     22  C   UNL     1      10.143  10.902  17.833  0.00  0.00    +0.000 A 
ENDBRANCH  16  17
ENDBRANCH  15  16
ENDBRANCH  12  15
TORSDOF 3
ENDMDL
MODEL 2
REMARK VINA RESULT:      -8.6      0.255      1.052
REMARK  Name = 
REMARK  3 active torsions:
REMARK  status: ('A' for Active; 'I' for Inactive)
REMARK    1  A    between atoms: C_12  and  C_13
REMARK    2  A    between atoms: C_13  and  S_14
REMARK    3  A    between atoms: S_14  and  C_15
REMARK                            x       y       z     vdW  Elec       q    Type
REMARK                         _______ _______ _______ _____ _____    ______ ____
ROOT
ATOM      1  O   UNL     1       6.545   4.952  19.948  0.00  0.00    +0.000 OA
ATOM      2  C   UNL     1       5.620   5.111  19.159  0.00  0.00    +0.000 A 
ATOM      3  C   UNL     1       4.356   4.253  19.261  0.00  0.00    +0.000 A 
ATOM      4  C   UNL     1       4.176   3.213  20.183  0.00  0.00    +0.000 A 
ATOM      5  C   UNL     1       3.000   2.431  20.162  0.00  0.00    +0.000 A 
ATOM      6  C   UNL     1       1.972   2.704  19.254  0.00  0.00    +0.000 A 
ATOM      7  C   UNL     1       2.163   3.711  18.319  0.00  0.00    +0.000 A 
ATOM      8  C   UNL     1       3.369   4.436  18.285  0.00  0.00    +0.000 A 
ATOM      9  N   UNL     1       3.673   5.078  17.090  0.00  0.00    +0.000 NA
ATOM     10  C   UNL     1       4.805   5.680  17.042  0.00  0.00    +0.000 A 
ATOM     11  N   UNL     1       5.680   5.981  18.083  0.00  0.00    +0.000 N 
ATOM     12  C   UNL     1       6.822   6.799  17.525  0.00  0.00    +0.000 C 
ATOM     13  C   UNL     1       7.206   5.966  16.306  0.00  0.00    +0.000 C 
ATOM     14  S   UNL     1       5.575   5.917  15.487  0.00  0.00    +0.000 S 
ENDROOT
BRANCH  12  15
ATOM     15  C   UNL     1       8.075   7.484  18.210  0.00  0.00    +0.000 C 
BRANCH  15  16
ATOM     16  S   UNL     1       7.960   9.404  17.768  0.00  0.00    +0.000 S 
BRANCH  16  17
ATOM     17  C   UNL     1       9.232  10.420  18.528  0.00  0.00    +0.000 A 
ATOM     18  C   UNL     1      10.298  10.991  17.848  0.00  0.00    +0.000 A 
ATOM     19  C   UNL     1      11.285  11.722  18.539  0.00  0.00    +0.000 A 
ATOM     20  C   UNL     1      11.229  11.890  19.918  0.00  0.00    +0.000 A 
ATOM     21  C   UNL     1      10.181  11.328  20.632  0.00  0.00    +0.000 A 
ATOM     22  C   UNL     1       9.195  10.599  19.937  0.00  0.00    +0.000 A 
ENDBRANCH  16  17
ENDBRANCH  15  16
ENDBRANCH  12  15
TORSDOF 3
ENDMDL
MODEL 3
REMARK VINA RESULT:      -8.3      4.150      6.653
REMARK  Name = 
REMARK  3 active torsions:
REMARK  status: ('A' for Active; 'I' for Inactive)
REMARK    1  A    between atoms: C_12  and  C_13
REMARK    2  A    between atoms: C_13  and  S_14
REMARK    3  A    between atoms: S_14  and  C_15
REMARK                            x       y       z     vdW  Elec       q    Type
REMARK                         _______ _______ _______ _____ _____    ______ ____
ROOT
ATOM      1  O   UNL     1       3.933   3.964  16.335  0.00  0.00    +0.000 OA
ATOM      2  C   UNL     1       4.923   4.657  16.126  0.00  0.00    +0.000 A 
ATOM      3  C   UNL     1       5.700   4.523  14.814  0.00  0.00    +0.000 A 
ATOM      4  C   UNL     1       5.402   3.597  13.806  0.00  0.00    +0.000 A 
ATOM      5  C   UNL     1       6.214   3.502  12.654  0.00  0.00    +0.000 A 
ATOM      6  C   UNL     1       7.304   4.359  12.472  0.00  0.00    +0.000 A 
ATOM      7  C   UNL     1       7.621   5.254  13.484  0.00  0.00    +0.000 A 
ATOM      8  C   UNL     1       6.862   5.292  14.669  0.00  0.00    +0.000 A 
ATOM      9  N   UNL     1       7.478   5.851  15.782  0.00  0.00    +0.000 NA
ATOM     10  C   UNL     1       6.808   5.820  16.876  0.00  0.00    +0.000 A 
ATOM     11  N   UNL     1       5.463   5.516  17.069  0.00  0.00    +0.000 N 
ATOM     12  C   UNL     1       5.129   5.734  18.526  0.00  0.00    +0.000 C 
ATOM     13  C   UNL     1       6.274   4.985  19.200  0.00  0.00    +0.000 C 
ATOM     14  S   UNL     1       7.670   5.848  18.401  0.00  0.00    +0.000 S 
ENDROOT
BRANCH  12  15
ATOM     15  C   UNL     1       3.772   5.621  19.336  0.00  0.00    +0.000 C 
BRANCH  15  16
ATOM     16  S   UNL     1       2.503   6.847  18.454  0.00  0.00    +0.000 S 
BRANCH  16  17
ATOM     17  C   UNL     1       1.773   8.073  19.545  0.00  0.00    +0.000 A 
ATOM     18  C   UNL     1       1.483   7.865  20.887  0.00  0.00    +0.000 A 
ATOM     19  C   UNL     1       0.851   8.867  21.651  0.00  0.00    +0.000 A 
ATOM     20  C   UNL     1       0.493  10.088  21.089  0.00  0.00    +0.000 A 
ATOM     21  C   UNL     1       0.762  10.329  19.750  0.00  0.00    +0.000 A 
ATOM     22  C   UNL     1       1.395   9.325  18.989  0.00  0.00    +0.000 A 
ENDBRANCH  16  17
ENDBRANCH  15  16
ENDBRANCH  12  15
TORSDOF 3
ENDMDL
MODEL 4
REMARK VINA RESULT:      -8.2      4.147      6.684
REMARK  Name = 
REMARK  3 active torsions:
REMARK  status: ('A' for Active; 'I' for Inactive)
REMARK    1  A    between atoms: C_12  and  C_13
REMARK    2  A    between atoms: C_13  and  S_14
REMARK    3  A    between atoms: S_14  and  C_15
REMARK                            x       y       z     vdW  Elec       q    Type
REMARK                         _______ _______ _______ _____ _____    ______ ____
ROOT
ATOM      1  O   UNL     1       3.927   4.007  16.360  0.00  0.00    +0.000 OA
ATOM      2  C   UNL     1       4.920   4.691  16.138  0.00  0.00    +0.000 A 
ATOM      3  C   UNL     1       5.693   4.534  14.825  0.00  0.00    +0.000 A 
ATOM      4  C   UNL     1       5.386   3.595  13.831  0.00  0.00    +0.000 A 
ATOM      5  C   UNL     1       6.194   3.478  12.679  0.00  0.00    +0.000 A 
ATOM      6  C   UNL     1       7.289   4.325  12.482  0.00  0.00    +0.000 A 
ATOM      7  C   UNL     1       7.614   5.233  13.479  0.00  0.00    +0.000 A 
ATOM      8  C   UNL     1       6.859   5.292  14.666  0.00  0.00    +0.000 A 
ATOM      9  N   UNL     1       7.482   5.864  15.769  0.00  0.00    +0.000 NA
ATOM     10  C   UNL     1       6.815   5.854  16.865  0.00  0.00    +0.000 A 
ATOM     11  N   UNL     1       5.469   5.561  17.066  0.00  0.00    +0.000 N 
ATOM     12  C   UNL     1       5.140   5.801  18.521  0.00  0.00    +0.000 C 
ATOM     13  C   UNL     1       6.283   5.055  19.203  0.00  0.00    +0.000 C 
ATOM     14  S   UNL     1       7.682   5.897  18.387  0.00  0.00    +0.000 S 
ENDROOT
BRANCH  12  15
ATOM     15  C   UNL     1       3.785   5.709  19.337  0.00  0.00    +0.000 C 
BRANCH  15  16
ATOM     16  S   UNL     1       2.496   6.863  18.390  0.00  0.00    +0.000 S 
BRANCH  16  17
ATOM     17  C   UNL     1       1.729   8.121  19.419  0.00  0.00    +0.000 A 
ATOM     18  C   UNL     1       1.350   9.382  18.977  0.00  0.00    +0.000 A 
ATOM     19  C   UNL     1       0.812  10.327  19.873  0.00  0.00    +0.000 A 
ATOM     20  C   UNL     1       0.648  10.035  21.222  0.00  0.00    +0.000 A 
ATOM     21  C   UNL     1       1.020   8.787  21.701  0.00  0.00    +0.000 A 
ATOM     22  C   UNL     1       1.557   7.843  20.802  0.00  0.00    +0.000 A 
ENDBRANCH  16  17
ENDBRANCH  15  16
ENDBRANCH  12  15
TORSDOF 3
ENDMDL
MODEL 5
REMARK VINA RESULT:      -7.9      4.824      7.274
REMARK  Name = 
REMARK  3 active torsions:
REMARK  status: ('A' for Active; 'I' for Inactive)
REMARK    1  A    between atoms: C_12  and  C_13
REMARK    2  A    between atoms: C_13  and  S_14
REMARK    3  A    between atoms: S_14  and  C_15
REMARK                            x       y       z     vdW  Elec       q    Type
REMARK                         _______ _______ _______ _____ _____    ______ ____
ROOT
ATOM      1  O   UNL     1       2.613   6.650  17.797  0.00  0.00    +0.000 OA
ATOM      2  C   UNL     1       3.470   5.924  18.290  0.00  0.00    +0.000 A 
ATOM      3  C   UNL     1       4.743   5.585  17.510  0.00  0.00    +0.000 A 
ATOM      4  C   UNL     1       5.004   6.003  16.198  0.00  0.00    +0.000 A 
ATOM      5  C   UNL     1       6.179   5.588  15.533  0.00  0.00    +0.000 A 
ATOM      6  C   UNL     1       7.127   4.791  16.181  0.00  0.00    +0.000 A 
ATOM      7  C   UNL     1       6.855   4.349  17.468  0.00  0.00    +0.000 A 
ATOM      8  C   UNL     1       5.646   4.693  18.101  0.00  0.00    +0.000 A 
ATOM      9  N   UNL     1       5.242   3.877  19.151  0.00  0.00    +0.000 NA
ATOM     10  C   UNL     1       4.106   4.154  19.680  0.00  0.00    +0.000 A 
ATOM     11  N   UNL     1       3.317   5.289  19.512  0.00  0.00    +0.000 N 
ATOM     12  C   UNL     1       2.129   5.187  20.440  0.00  0.00    +0.000 C 
ATOM     13  C   UNL     1       1.652   3.769  20.142  0.00  0.00    +0.000 C 
ATOM     14  S   UNL     1       3.210   2.880  20.483  0.00  0.00    +0.000 S 
ENDROOT
BRANCH  12  15
ATOM     15  C   UNL     1       0.932   6.176  20.750  0.00  0.00    +0.000 C 
BRANCH  15  16
ATOM     16  S   UNL     1       1.744   7.955  21.011  0.00  0.00    +0.000 S 
BRANCH  16  17
ATOM     17  C   UNL     1       0.571   9.256  21.415  0.00  0.00    +0.000 A 
ATOM     18  C   UNL     1       0.161  10.250  20.537  0.00  0.00    +0.000 A 
ATOM     19  C   UNL     1      -0.716  11.268  20.963  0.00  0.00    +0.000 A 
ATOM     20  C   UNL     1      -1.192  11.314  22.268  0.00  0.00    +0.000 A 
ATOM     21  C   UNL     1      -0.799  10.340  23.174  0.00  0.00    +0.000 A 
ATOM     22  C   UNL     1       0.077   9.323  22.745  0.00  0.00    +0.000 A 
ENDBRANCH  16  17
ENDBRANCH  15  16
ENDBRANCH  12  15
TORSDOF 3
ENDMDL
MODEL 6
REMARK VINA RESULT:      -7.8      4.816      7.216
REMARK  Name = 
REMARK  3 active torsions:
REMARK  status: ('A' for Active; 'I' for Inactive)
REMARK    1  A    between atoms: C_12  and  C_13
REMARK    2  A    between atoms: C_13  and  S_14
REMARK    3  A    between atoms: S_14  and  C_15
REMARK                            x       y       z     vdW  Elec       q    Type
REMARK                         _______ _______ _______ _____ _____    ______ ____
ROOT
ATOM      1  O   UNL     1       2.631   6.704  17.823  0.00  0.00    +0.000 OA
ATOM      2  C   UNL     1       3.479   5.957  18.298  0.00  0.00    +0.000 A 
ATOM      3  C   UNL     1       4.746   5.618  17.508  0.00  0.00    +0.000 A 
ATOM      4  C   UNL     1       5.010   6.061  16.205  0.00  0.00    +0.000 A 
ATOM      5  C   UNL     1       6.178   5.645  15.528  0.00  0.00    +0.000 A 
ATOM      6  C   UNL     1       7.117   4.822  16.156  0.00  0.00    +0.000 A 
ATOM      7  C   UNL     1       6.842   4.355  17.434  0.00  0.00    +0.000 A 
ATOM      8  C   UNL     1       5.638   4.701  18.077  0.00  0.00    +0.000 A 
ATOM      9  N   UNL     1       5.226   3.868  19.111  0.00  0.00    +0.000 NA
ATOM     10  C   UNL     1       4.095   4.148  19.648  0.00  0.00    +0.000 A 
ATOM     11  N   UNL     1       3.321   5.297  19.506  0.00  0.00    +0.000 N 
ATOM     12  C   UNL     1       2.134   5.190  20.435  0.00  0.00    +0.000 C 
ATOM     13  C   UNL     1       1.637   3.785  20.107  0.00  0.00    +0.000 C 
ATOM     14  S   UNL     1       3.184   2.869  20.425  0.00  0.00    +0.000 S 
ENDROOT
BRANCH  12  15
ATOM     15  C   UNL     1       0.950   6.188  20.770  0.00  0.00    +0.000 C 
BRANCH  15  16
ATOM     16  S   UNL     1       1.795   7.922  21.181  0.00  0.00    +0.000 S 
BRANCH  16  17
ATOM     17  C   UNL     1       0.639   9.231  21.605  0.00  0.00    +0.000 A 
ATOM     18  C   UNL     1       0.114   9.442  22.873  0.00  0.00    +0.000 A 
ATOM     19  C   UNL     1      -0.838  10.457  23.098  0.00  0.00    +0.000 A 
ATOM     20  C   UNL     1      -1.284  11.273  22.064  0.00  0.00    +0.000 A 
ATOM     21  C   UNL     1      -0.785  11.088  20.784  0.00  0.00    +0.000 A 
ATOM     22  C   UNL     1       0.168  10.073  20.562  0.00  0.00    +0.000 A 
ENDBRANCH  16  17
ENDBRANCH  15  16
ENDBRANCH  12  15
TORSDOF 3
ENDMDL
MODEL 7
REMARK VINA RESULT:      -7.8      7.130      9.777
REMARK  Name = 
REMARK  3 active torsions:
REMARK  status: ('A' for Active; 'I' for Inactive)
REMARK    1  A    between atoms: C_12  and  C_13
REMARK    2  A    between atoms: C_13  and  S_14
REMARK    3  A    between atoms: S_14  and  C_15
REMARK                            x       y       z     vdW  Elec       q    Type
REMARK                         _______ _______ _______ _____ _____    ______ ____
ROOT
ATOM      1  O   UNL     1      -1.305   9.509  16.693  0.00  0.00    +0.000 OA
ATOM      2  C   UNL     1      -1.492  10.104  17.748  0.00  0.00    +0.000 A 
ATOM      3  C   UNL     1      -2.798  10.866  17.990  0.00  0.00    +0.000 A 
ATOM      4  C   UNL     1      -3.826  10.997  17.046  0.00  0.00    +0.000 A 
ATOM      5  C   UNL     1      -4.970  11.773  17.333  0.00  0.00    +0.000 A 
ATOM      6  C   UNL     1      -5.125  12.388  18.579  0.00  0.00    +0.000 A 
ATOM      7  C   UNL     1      -4.095  12.288  19.503  0.00  0.00    +0.000 A 
ATOM      8  C   UNL     1      -2.917  11.584  19.185  0.00  0.00    +0.000 A 
ATOM      9  N   UNL     1      -1.788  11.898  19.932  0.00  0.00    +0.000 NA
ATOM     10  C   UNL     1      -0.702  11.304  19.594  0.00  0.00    +0.000 A 
ATOM     11  N   UNL     1      -0.528  10.221  18.737  0.00  0.00    +0.000 N 
ATOM     12  C   UNL     1       0.929   9.823  18.759  0.00  0.00    +0.000 C 
ATOM     13  C   UNL     1       1.602  11.178  18.562  0.00  0.00    +0.000 C 
ATOM     14  S   UNL     1       0.832  12.068  19.958  0.00  0.00    +0.000 S 
ENDROOT
BRANCH  12  15
ATOM     15  C   UNL     1       1.723   8.646  18.057  0.00  0.00    +0.000 C 
BRANCH  15  16
ATOM     16  S   UNL     1       2.357   7.470  19.509  0.00  0.00    +0.000 S 
BRANCH  16  17
ATOM     17  C   UNL     1       1.962   5.731  19.284  0.00  0.00    +0.000 A 
ATOM     18  C   UNL     1       2.028   5.056  18.073  0.00  0.00    +0.000 A 
ATOM     19  C   UNL     1       1.638   3.704  17.980  0.00  0.00    +0.000 A 
ATOM     20  C   UNL     1       1.171   3.008  19.089  0.00  0.00    +0.000 A 
ATOM     21  C   UNL     1       1.086   3.652  20.315  0.00  0.00    +0.000 A 
ATOM     22  C   UNL     1       1.478   5.003  20.404  0.00  0.00    +0.000 A 
ENDBRANCH  16  17
ENDBRANCH  15  16
ENDBRANCH  12  15
TORSDOF 3
ENDMDL
MODEL 8
REMARK VINA RESULT:      -7.8      4.754      6.837
REMARK  Name = 
REMARK  3 active torsions:
REMARK  status: ('A' for Active; 'I' for Inactive)
REMARK    1  A    between atoms: C_12  and  C_13
REMARK    2  A    between atoms: C_13  and  S_14
REMARK    3  A    between atoms: S_14  and  C_15
REMARK                            x       y       z     vdW  Elec       q    Type
REMARK                         _______ _______ _______ _____ _____    ______ ____
ROOT
ATOM      1  O   UNL     1       2.707   6.253  17.598  0.00  0.00    +0.000 OA
ATOM      2  C   UNL     1       3.666   5.640  18.053  0.00  0.00    +0.000 A 
ATOM      3  C   UNL     1       4.922   5.423  17.204  0.00  0.00    +0.000 A 
ATOM      4  C   UNL     1       5.059   5.831  15.871  0.00  0.00    +0.000 A 
ATOM      5  C   UNL     1       6.232   5.530  15.144  0.00  0.00    +0.000 A 
ATOM      6  C   UNL     1       7.300   4.862  15.751  0.00  0.00    +0.000 A 
ATOM      7  C   UNL     1       7.154   4.428  17.060  0.00  0.00    +0.000 A 
ATOM      8  C   UNL     1       5.953   4.653  17.758  0.00  0.00    +0.000 A 
ATOM      9  N   UNL     1       5.705   3.826  18.848  0.00  0.00    +0.000 NA
ATOM     10  C   UNL     1       4.577   3.990  19.439  0.00  0.00    +0.000 A 
ATOM     11  N   UNL     1       3.657   5.026  19.295  0.00  0.00    +0.000 N 
ATOM     12  C   UNL     1       2.544   4.818  20.295  0.00  0.00    +0.000 C 
ATOM     13  C   UNL     1       2.213   3.348  20.057  0.00  0.00    +0.000 C 
ATOM     14  S   UNL     1       3.878   2.648  20.321  0.00  0.00    +0.000 S 
ENDROOT
BRANCH  12  15
ATOM     15  C   UNL     1       1.263   5.676  20.657  0.00  0.00    +0.000 C 
BRANCH  15  16
ATOM     16  S   UNL     1       1.916   7.497  21.048  0.00  0.00    +0.000 S 
BRANCH  16  17
ATOM     17  C   UNL     1       1.038   8.804  20.181  0.00  0.00    +0.000 A 
ATOM     18  C   UNL     1      -0.041   9.508  20.698  0.00  0.00    +0.000 A 
ATOM     19  C   UNL     1      -0.708  10.475  19.919  0.00  0.00    +0.000 A 
ATOM     20  C   UNL     1      -0.315  10.751  18.614  0.00  0.00    +0.000 A 
ATOM     21  C   UNL     1       0.756  10.062  18.063  0.00  0.00    +0.000 A 
ATOM     22  C   UNL     1       1.422   9.097  18.845  0.00  0.00    +0.000 A 
ENDBRANCH  16  17
ENDBRANCH  15  16
ENDBRANCH  12  15
TORSDOF 3
ENDMDL
MODEL 9
REMARK VINA RESULT:      -7.7      3.859      6.755
REMARK  Name = 
REMARK  3 active torsions:
REMARK  status: ('A' for Active; 'I' for Inactive)
REMARK    1  A    between atoms: C_12  and  C_13
REMARK    2  A    between atoms: C_13  and  S_14
REMARK    3  A    between atoms: S_14  and  C_15
REMARK                            x       y       z     vdW  Elec       q    Type
REMARK                         _______ _______ _______ _____ _____    ______ ____
ROOT
ATOM      1  O   UNL     1       2.479   5.134  17.097  0.00  0.00    +0.000 OA
ATOM      2  C   UNL     1       3.218   4.527  17.865  0.00  0.00    +0.000 A 
ATOM      3  C   UNL     1       2.648   3.844  19.112  0.00  0.00    +0.000 A 
ATOM      4  C   UNL     1       1.303   3.899  19.503  0.00  0.00    +0.000 A 
ATOM      5  C   UNL     1       0.879   3.291  20.704  0.00  0.00    +0.000 A 
ATOM      6  C   UNL     1       1.779   2.581  21.506  0.00  0.00    +0.000 A 
ATOM      7  C   UNL     1       3.116   2.553  21.139  0.00  0.00    +0.000 A 
ATOM      8  C   UNL     1       3.555   3.231  19.985  0.00  0.00    +0.000 A 
ATOM      9  N   UNL     1       4.908   3.544  19.928  0.00  0.00    +0.000 NA
ATOM     10  C   UNL     1       5.290   4.222  18.907  0.00  0.00    +0.000 A 
ATOM     11  N   UNL     1       4.596   4.497  17.731  0.00  0.00    +0.000 N 
ATOM     12  C   UNL     1       5.522   5.234  16.792  0.00  0.00    +0.000 C 
ATOM     13  C   UNL     1       6.079   6.309  17.721  0.00  0.00    +0.000 C 
ATOM     14  S   UNL     1       6.722   5.221  19.038  0.00  0.00    +0.000 S 
ENDROOT
BRANCH  12  15
ATOM     15  C   UNL     1       5.340   5.754  15.306  0.00  0.00    +0.000 C 
BRANCH  15  16
ATOM     16  S   UNL     1       6.833   4.984  14.271  0.00  0.00    +0.000 S 
BRANCH  16  17
ATOM     17  C   UNL     1       6.330   3.846  12.974  0.00  0.00    +0.000 A 
ATOM     18  C   UNL     1       5.013   3.540  12.658  0.00  0.00    +0.000 A 
ATOM     19  C   UNL     1       4.715   2.585  11.665  0.00  0.00    +0.000 A 
ATOM     20  C   UNL     1       5.721   1.918  10.976  0.00  0.00    +0.000 A 
ATOM     21  C   UNL     1       7.048   2.195  11.269  0.00  0.00    +0.000 A 
ATOM     22  C   UNL     1       7.344   3.151  12.262  0.00  0.00    +0.000 A 
ENDBRANCH  16  17
ENDBRANCH  15  16
ENDBRANCH  12  15
TORSDOF 3
ENDMDL
