MODEL 1
REMARK VINA RESULT:      -9.1      0.000      0.000
REMARK  Name = 
REMARK  9 active torsions:
REMARK  status: ('A' for Active; 'I' for Inactive)
REMARK    1  A    between atoms: C_2  and  O_3
REMARK    2  A    between atoms: C_2  and  C_4
REMARK    3  A    between atoms: C_11  and  O_12
REMARK    4  A    between atoms: O_12  and  C_13
REMARK    5  A    between atoms: C_13  and  C_14
REMARK    6  A    between atoms: C_14  and  C_15
REMARK    7  A    between atoms: C_15  and  N_16
REMARK    8  A    between atoms: C_20  and  C_21
REMARK    9  A    between atoms: C_20  and  C_27
REMARK                            x       y       z     vdW  Elec       q    Type
REMARK                         _______ _______ _______ _____ _____    ______ ____
ROOT
ATOM      1  C   UNL     1       7.010   5.339  16.130  0.00  0.00    +0.000 C 
ENDROOT
BRANCH   1   2
ATOM      2  N   UNL     1       5.570   5.386  15.836  0.00  0.00    +0.000 NA
ATOM      3  C   UNL     1       4.784   4.348  16.525  0.00  0.00    +0.000 C 
ATOM      4  C   UNL     1       4.581   4.578  18.034  0.00  0.00    +0.000 C 
ATOM      5  C   UNL     1       3.875   5.902  18.276  0.00  0.00    +0.000 C 
ATOM      6  C   UNL     1       2.740   6.033  19.018  0.00  0.00    +0.000 C 
ATOM      7  C   UNL     1       4.613   7.033  17.574  0.00  0.00    +0.000 C 
ATOM      8  C   UNL     1       4.971   6.713  16.103  0.00  0.00    +0.000 C 
BRANCH   6   9
ATOM      9  C   UNL     1       2.222   4.857  19.763  0.00  0.00    +0.000 A 
ATOM     10  C   UNL     1       1.280   4.014  19.155  0.00  0.00    +0.000 A 
ATOM     11  C   UNL     1       0.740   2.934  19.855  0.00  0.00    +0.000 A 
ATOM     12  C   UNL     1       1.138   2.686  21.167  0.00  0.00    +0.000 A 
ATOM     13  C   UNL     1       2.079   3.515  21.779  0.00  0.00    +0.000 A 
ATOM     14  C   UNL     1       2.623   4.596  21.080  0.00  0.00    +0.000 A 
ENDBRANCH   6   9
BRANCH   6  15
ATOM     15  C   UNL     1       2.044   7.340  19.105  0.00  0.00    +0.000 A 
ATOM     16  C   UNL     1       1.800   8.070  17.934  0.00  0.00    +0.000 A 
ATOM     17  C   UNL     1       1.166   9.312  17.994  0.00  0.00    +0.000 A 
ATOM     18  C   UNL     1       0.764   9.830  19.225  0.00  0.00    +0.000 A 
ATOM     19  C   UNL     1       0.987   9.100  20.393  0.00  0.00    +0.000 A 
ATOM     20  C   UNL     1       1.622   7.857  20.334  0.00  0.00    +0.000 A 
ENDBRANCH   6  15
ENDBRANCH   1   2
BRANCH   1  21
ATOM     21  C   UNL     1       7.714   6.710  16.135  0.00  0.00    +0.000 C 
BRANCH  21  22
ATOM     22  C   UNL     1       7.831   7.359  17.516  0.00  0.00    +0.000 C 
BRANCH  22  23
ATOM     23  O   UNL     1       7.540   8.759  17.368  0.00  0.00    +0.000 OA
BRANCH  23  31
ATOM     24  C   UNL     1      10.335  13.998  17.988  0.00  0.00    +0.000 A 
ATOM     25  C   UNL     1      10.981  13.834  19.149  0.00  0.00    +0.000 A 
ATOM     26  C   UNL     1      10.762  12.606  19.918  0.00  0.00    +0.000 A 
ATOM     27  O   UNL     1      11.291  12.436  21.007  0.00  0.00    +0.000 OA
ATOM     28  C   UNL     1       9.899  11.590  19.297  0.00  0.00    +0.000 A 
ATOM     29  C   UNL     1       9.722  10.347  19.908  0.00  0.00    +0.000 A 
ATOM     30  C   UNL     1       8.936   9.374  19.292  0.00  0.00    +0.000 A 
ATOM     31  C   UNL     1       8.314   9.643  18.070  0.00  0.00    +0.000 A 
ATOM     32  C   UNL     1       8.480  10.904  17.474  0.00  0.00    +0.000 A 
ATOM     33  C   UNL     1       9.283  11.877  18.082  0.00  0.00    +0.000 A 
ATOM     34  O   UNL     1       9.444  13.084  17.438  0.00  0.00    +0.000 OA
BRANCH  24  36
ATOM     35  O   UNL     1      10.526  16.381  17.731  0.00  0.00    +0.000 OA
ATOM     36  C   UNL     1      10.606  15.261  17.248  0.00  0.00    +0.000 C 
BRANCH  36  37
ATOM     37  O   UNL     1      10.959  15.035  15.965  0.00  0.00    +0.000 OA
ATOM     38  H   UNL     1      10.389  15.511  15.327  0.00  0.00    +0.000 HD
ENDBRANCH  36  37
ENDBRANCH  24  36
ENDBRANCH  23  31
ENDBRANCH  22  23
ENDBRANCH  21  22
ENDBRANCH   1  21
TORSDOF 9
ENDMDL
MODEL 2
REMARK VINA RESULT:      -8.8      4.450      8.288
REMARK  Name = 
REMARK  9 active torsions:
REMARK  status: ('A' for Active; 'I' for Inactive)
REMARK    1  A    between atoms: C_2  and  O_3
REMARK    2  A    between atoms: C_2  and  C_4
REMARK    3  A    between atoms: C_11  and  O_12
REMARK    4  A    between atoms: O_12  and  C_13
REMARK    5  A    between atoms: C_13  and  C_14
REMARK    6  A    between atoms: C_14  and  C_15
REMARK    7  A    between atoms: C_15  and  N_16
REMARK    8  A    between atoms: C_20  and  C_21
REMARK    9  A    between atoms: C_20  and  C_27
REMARK                            x       y       z     vdW  Elec       q    Type
REMARK                         _______ _______ _______ _____ _____    ______ ____
ROOT
ATOM      1  C   UNL     1       1.944   2.406  19.193  0.00  0.00    +0.000 C 
ENDROOT
BRANCH   1   2
ATOM      2  N   UNL     1       3.397   2.209  19.096  0.00  0.00    +0.000 NA
ATOM      3  C   UNL     1       3.878   1.958  17.726  0.00  0.00    +0.000 C 
ATOM      4  C   UNL     1       3.887   3.190  16.802  0.00  0.00    +0.000 C 
ATOM      5  C   UNL     1       4.766   4.284  17.387  0.00  0.00    +0.000 C 
ATOM      6  C   UNL     1       5.780   4.888  16.708  0.00  0.00    +0.000 C 
ATOM      7  C   UNL     1       4.350   4.589  18.820  0.00  0.00    +0.000 C 
ATOM      8  C   UNL     1       4.170   3.323  19.691  0.00  0.00    +0.000 C 
BRANCH   6   9
ATOM      9  C   UNL     1       5.967   4.583  15.266  0.00  0.00    +0.000 A 
ATOM     10  C   UNL     1       4.899   4.054  14.527  0.00  0.00    +0.000 A 
ATOM     11  C   UNL     1       5.068   3.711  13.185  0.00  0.00    +0.000 A 
ATOM     12  C   UNL     1       6.305   3.895  12.570  0.00  0.00    +0.000 A 
ATOM     13  C   UNL     1       7.373   4.426  13.294  0.00  0.00    +0.000 A 
ATOM     14  C   UNL     1       7.206   4.772  14.638  0.00  0.00    +0.000 A 
ENDBRANCH   6   9
BRANCH   6  15
ATOM     15  C   UNL     1       6.670   5.858  17.390  0.00  0.00    +0.000 A 
ATOM     16  C   UNL     1       6.690   7.193  16.965  0.00  0.00    +0.000 A 
ATOM     17  C   UNL     1       7.535   8.119  17.579  0.00  0.00    +0.000 A 
ATOM     18  C   UNL     1       8.364   7.717  18.627  0.00  0.00    +0.000 A 
ATOM     19  C   UNL     1       8.337   6.394  19.067  0.00  0.00    +0.000 A 
ATOM     20  C   UNL     1       7.490   5.467  18.453  0.00  0.00    +0.000 A 
ENDBRANCH   6  15
ENDBRANCH   1   2
BRANCH   1  21
ATOM     21  C   UNL     1       1.461   3.016  20.523  0.00  0.00    +0.000 C 
BRANCH  21  22
ATOM     22  C   UNL     1       0.853   4.414  20.397  0.00  0.00    +0.000 C 
BRANCH  22  23
ATOM     23  O   UNL     1       1.832   5.360  20.859  0.00  0.00    +0.000 OA
BRANCH  23  31
ATOM     24  C   UNL     1      -0.177  10.960  21.357  0.00  0.00    +0.000 A 
ATOM     25  C   UNL     1       0.242  11.510  20.211  0.00  0.00    +0.000 A 
ATOM     26  C   UNL     1       1.079  10.718  19.306  0.00  0.00    +0.000 A 
ATOM     27  O   UNL     1       1.527  11.196  18.274  0.00  0.00    +0.000 OA
ATOM     28  C   UNL     1       1.325   9.321  19.696  0.00  0.00    +0.000 A 
ATOM     29  C   UNL     1       2.020   8.464  18.841  0.00  0.00    +0.000 A 
ATOM     30  C   UNL     1       2.212   7.130  19.199  0.00  0.00    +0.000 A 
ATOM     31  C   UNL     1       1.721   6.651  20.416  0.00  0.00    +0.000 A 
ATOM     32  C   UNL     1       1.041   7.527  21.279  0.00  0.00    +0.000 A 
ATOM     33  C   UNL     1       0.832   8.863  20.914  0.00  0.00    +0.000 A 
ATOM     34  O   UNL     1       0.127   9.671  21.779  0.00  0.00    +0.000 OA
BRANCH  24  36
ATOM     35  O   UNL     1      -1.205  11.627  23.426  0.00  0.00    +0.000 OA
ATOM     36  C   UNL     1      -1.033  11.810  22.229  0.00  0.00    +0.000 C 
BRANCH  36  37
ATOM     37  O   UNL     1      -1.608  12.824  21.550  0.00  0.00    +0.000 OA
ATOM     38  H   UNL     1      -1.852  13.576  22.127  0.00  0.00    +0.000 HD
ENDBRANCH  36  37
ENDBRANCH  24  36
ENDBRANCH  23  31
ENDBRANCH  22  23
ENDBRANCH  21  22
ENDBRANCH   1  21
TORSDOF 9
ENDMDL
MODEL 3
REMARK VINA RESULT:      -8.6      4.500      8.369
REMARK  Name = 
REMARK  9 active torsions:
REMARK  status: ('A' for Active; 'I' for Inactive)
REMARK    1  A    between atoms: C_2  and  O_3
REMARK    2  A    between atoms: C_2  and  C_4
REMARK    3  A    between atoms: C_11  and  O_12
REMARK    4  A    between atoms: O_12  and  C_13
REMARK    5  A    between atoms: C_13  and  C_14
REMARK    6  A    between atoms: C_14  and  C_15
REMARK    7  A    between atoms: C_15  and  N_16
REMARK    8  A    between atoms: C_20  and  C_21
REMARK    9  A    between atoms: C_20  and  C_27
REMARK                            x       y       z     vdW  Elec       q    Type
REMARK                         _______ _______ _______ _____ _____    ______ ____
ROOT
ATOM      1  C   UNL     1       2.090   2.586  19.483  0.00  0.00    +0.000 C 
ENDROOT
BRANCH   1   2
ATOM      2  N   UNL     1       3.547   2.422  19.372  0.00  0.00    +0.000 NA
ATOM      3  C   UNL     1       4.013   2.098  18.013  0.00  0.00    +0.000 C 
ATOM      4  C   UNL     1       3.973   3.268  17.013  0.00  0.00    +0.000 C 
ATOM      5  C   UNL     1       4.830   4.419  17.513  0.00  0.00    +0.000 C 
ATOM      6  C   UNL     1       5.816   5.006  16.778  0.00  0.00    +0.000 C 
ATOM      7  C   UNL     1       4.429   4.804  18.930  0.00  0.00    +0.000 C 
ATOM      8  C   UNL     1       4.298   3.592  19.882  0.00  0.00    +0.000 C 
BRANCH   6   9
ATOM      9  C   UNL     1       5.989   4.615  15.356  0.00  0.00    +0.000 A 
ATOM     10  C   UNL     1       7.252   4.727  14.756  0.00  0.00    +0.000 A 
ATOM     11  C   UNL     1       7.426   4.417  13.407  0.00  0.00    +0.000 A 
ATOM     12  C   UNL     1       6.340   3.990  12.646  0.00  0.00    +0.000 A 
ATOM     13  C   UNL     1       5.080   3.869  13.233  0.00  0.00    +0.000 A 
ATOM     14  C   UNL     1       4.903   4.178  14.585  0.00  0.00    +0.000 A 
ENDBRANCH   6   9
BRANCH   6  15
ATOM     15  C   UNL     1       6.690   6.040  17.382  0.00  0.00    +0.000 A 
ATOM     16  C   UNL     1       7.577   5.683  18.406  0.00  0.00    +0.000 A 
ATOM     17  C   UNL     1       8.394   6.644  19.003  0.00  0.00    +0.000 A 
ATOM     18  C   UNL     1       8.335   7.971  18.576  0.00  0.00    +0.000 A 
ATOM     19  C   UNL     1       7.468   8.331  17.544  0.00  0.00    +0.000 A 
ATOM     20  C   UNL     1       6.650   7.369  16.946  0.00  0.00    +0.000 A 
ENDBRANCH   6  15
ENDBRANCH   1   2
BRANCH   1  21
ATOM     21  C   UNL     1       1.625   3.452  20.668  0.00  0.00    +0.000 C 
BRANCH  21  22
ATOM     22  C   UNL     1       1.039   4.810  20.272  0.00  0.00    +0.000 C 
BRANCH  22  23
ATOM     23  O   UNL     1       1.796   5.827  20.951  0.00  0.00    +0.000 OA
BRANCH  23  31
ATOM     24  C   UNL     1      -0.251  11.370  21.808  0.00  0.00    +0.000 A 
ATOM     25  C   UNL     1       0.019  11.952  20.633  0.00  0.00    +0.000 A 
ATOM     26  C   UNL     1       0.759  11.197  19.619  0.00  0.00    +0.000 A 
ATOM     27  O   UNL     1       1.073  11.706  18.553  0.00  0.00    +0.000 OA
ATOM     28  C   UNL     1       1.077   9.799  19.945  0.00  0.00    +0.000 A 
ATOM     29  C   UNL     1       1.683   8.975  18.995  0.00  0.00    +0.000 A 
ATOM     30  C   UNL     1       1.942   7.638  19.298  0.00  0.00    +0.000 A 
ATOM     31  C   UNL     1       1.607   7.124  20.553  0.00  0.00    +0.000 A 
ATOM     32  C   UNL     1       1.017   7.967  21.509  0.00  0.00    +0.000 A 
ATOM     33  C   UNL     1       0.740   9.305  21.202  0.00  0.00    +0.000 A 
ATOM     34  O   UNL     1       0.126  10.079  22.162  0.00  0.00    +0.000 OA
BRANCH  24  36
ATOM     35  O   UNL     1      -0.581  13.175  23.362  0.00  0.00    +0.000 OA
ATOM     36  C   UNL     1      -1.015  12.182  22.794  0.00  0.00    +0.000 C 
BRANCH  36  37
ATOM     37  O   UNL     1      -2.260  11.702  22.997  0.00  0.00    +0.000 OA
ATOM     38  H   UNL     1      -2.897  12.400  23.253  0.00  0.00    +0.000 HD
ENDBRANCH  36  37
ENDBRANCH  24  36
ENDBRANCH  23  31
ENDBRANCH  22  23
ENDBRANCH  21  22
ENDBRANCH   1  21
TORSDOF 9
ENDMDL
MODEL 4
REMARK VINA RESULT:      -8.6      5.810      9.807
REMARK  Name = 
REMARK  9 active torsions:
REMARK  status: ('A' for Active; 'I' for Inactive)
REMARK    1  A    between atoms: C_2  and  O_3
REMARK    2  A    between atoms: C_2  and  C_4
REMARK    3  A    between atoms: C_11  and  O_12
REMARK    4  A    between atoms: O_12  and  C_13
REMARK    5  A    between atoms: C_13  and  C_14
REMARK    6  A    between atoms: C_14  and  C_15
REMARK    7  A    between atoms: C_15  and  N_16
REMARK    8  A    between atoms: C_20  and  C_21
REMARK    9  A    between atoms: C_20  and  C_27
REMARK                            x       y       z     vdW  Elec       q    Type
REMARK                         _______ _______ _______ _____ _____    ______ ____
ROOT
ATOM      1  C   UNL     1       1.550  10.946  19.421  0.00  0.00    +0.000 C 
ENDROOT
BRANCH   1   2
ATOM      2  N   UNL     1       0.899   9.796  18.777  0.00  0.00    +0.000 NA
ATOM      3  C   UNL     1       1.677   9.208  17.672  0.00  0.00    +0.000 C 
ATOM      4  C   UNL     1       2.908   8.392  18.105  0.00  0.00    +0.000 C 
ATOM      5  C   UNL     1       2.491   7.245  19.011  0.00  0.00    +0.000 C 
ATOM      6  C   UNL     1       2.825   5.943  18.792  0.00  0.00    +0.000 C 
ATOM      7  C   UNL     1       1.656   7.765  20.173  0.00  0.00    +0.000 C 
ATOM      8  C   UNL     1       0.529   8.731  19.737  0.00  0.00    +0.000 C 
BRANCH   6   9
ATOM      9  C   UNL     1       3.770   5.613  17.694  0.00  0.00    +0.000 A 
ATOM     10  C   UNL     1       4.517   6.637  17.094  0.00  0.00    +0.000 A 
ATOM     11  C   UNL     1       5.371   6.358  16.026  0.00  0.00    +0.000 A 
ATOM     12  C   UNL     1       5.486   5.054  15.549  0.00  0.00    +0.000 A 
ATOM     13  C   UNL     1       4.751   4.027  16.143  0.00  0.00    +0.000 A 
ATOM     14  C   UNL     1       3.896   4.303  17.213  0.00  0.00    +0.000 A 
ENDBRANCH   6   9
BRANCH   6  15
ATOM     15  C   UNL     1       2.275   4.869  19.654  0.00  0.00    +0.000 A 
ATOM     16  C   UNL     1       2.890   4.585  20.880  0.00  0.00    +0.000 A 
ATOM     17  C   UNL     1       2.402   3.565  21.698  0.00  0.00    +0.000 A 
ATOM     18  C   UNL     1       1.290   2.824  21.298  0.00  0.00    +0.000 A 
ATOM     19  C   UNL     1       0.660   3.113  20.087  0.00  0.00    +0.000 A 
ATOM     20  C   UNL     1       1.148   4.134  19.268  0.00  0.00    +0.000 A 
ENDBRANCH   6  15
ENDBRANCH   1   2
BRANCH   1  21
ATOM     21  C   UNL     1       0.842  11.463  20.689  0.00  0.00    +0.000 C 
BRANCH  21  22
ATOM     22  C   UNL     1       0.891  12.982  20.869  0.00  0.00    +0.000 C 
BRANCH  22  23
ATOM     23  O   UNL     1       0.126  13.573  19.805  0.00  0.00    +0.000 OA
BRANCH  23  31
ATOM     24  C   UNL     1      -3.443  10.687  15.986  0.00  0.00    +0.000 A 
ATOM     25  C   UNL     1      -4.591  10.623  16.672  0.00  0.00    +0.000 A 
ATOM     26  C   UNL     1      -4.625  11.114  18.052  0.00  0.00    +0.000 A 
ATOM     27  O   UNL     1      -5.637  11.028  18.732  0.00  0.00    +0.000 OA
ATOM     28  C   UNL     1      -3.390  11.735  18.556  0.00  0.00    +0.000 A 
ATOM     29  C   UNL     1      -3.365  12.327  19.820  0.00  0.00    +0.000 A 
ATOM     30  C   UNL     1      -2.203  12.950  20.273  0.00  0.00    +0.000 A 
ATOM     31  C   UNL     1      -1.059  12.974  19.472  0.00  0.00    +0.000 A 
ATOM     32  C   UNL     1      -1.088  12.357  18.210  0.00  0.00    +0.000 A 
ATOM     33  C   UNL     1      -2.259  11.745  17.745  0.00  0.00    +0.000 A 
ATOM     34  O   UNL     1      -2.245  11.187  16.486  0.00  0.00    +0.000 OA
BRANCH  24  36
ATOM     35  O   UNL     1      -2.485   9.992  13.893  0.00  0.00    +0.000 OA
ATOM     36  C   UNL     1      -3.474  10.182  14.587  0.00  0.00    +0.000 C 
BRANCH  36  37
ATOM     37  O   UNL     1      -4.732   9.949  14.155  0.00  0.00    +0.000 OA
ATOM     38  H   UNL     1      -5.322   9.626  14.865  0.00  0.00    +0.000 HD
ENDBRANCH  36  37
ENDBRANCH  24  36
ENDBRANCH  23  31
ENDBRANCH  22  23
ENDBRANCH  21  22
ENDBRANCH   1  21
TORSDOF 9
ENDMDL
MODEL 5
REMARK VINA RESULT:      -8.5      5.373     10.259
REMARK  Name = 
REMARK  9 active torsions:
REMARK  status: ('A' for Active; 'I' for Inactive)
REMARK    1  A    between atoms: C_2  and  O_3
REMARK    2  A    between atoms: C_2  and  C_4
REMARK    3  A    between atoms: C_11  and  O_12
REMARK    4  A    between atoms: O_12  and  C_13
REMARK    5  A    between atoms: C_13  and  C_14
REMARK    6  A    between atoms: C_14  and  C_15
REMARK    7  A    between atoms: C_15  and  N_16
REMARK    8  A    between atoms: C_20  and  C_21
REMARK    9  A    between atoms: C_20  and  C_27
REMARK                            x       y       z     vdW  Elec       q    Type
REMARK                         _______ _______ _______ _____ _____    ______ ____
ROOT
ATOM      1  C   UNL     1       0.045  10.636  19.502  0.00  0.00    +0.000 C 
ENDROOT
BRANCH   1   2
ATOM      2  N   UNL     1      -0.378  11.880  20.162  0.00  0.00    +0.000 NA
ATOM      3  C   UNL     1       0.667  12.502  20.994  0.00  0.00    +0.000 C 
ATOM      4  C   UNL     1       1.800  13.190  20.211  0.00  0.00    +0.000 C 
ATOM      5  C   UNL     1       1.236  14.283  19.316  0.00  0.00    +0.000 C 
ATOM      6  C   UNL     1       1.676  15.572  19.323  0.00  0.00    +0.000 C 
ATOM      7  C   UNL     1       0.127  13.727  18.435  0.00  0.00    +0.000 C 
ATOM      8  C   UNL     1      -0.911  12.883  19.213  0.00  0.00    +0.000 C 
BRANCH   6   9
ATOM      9  C   UNL     1       2.868  15.926  20.136  0.00  0.00    +0.000 A 
ATOM     10  C   UNL     1       4.147  15.589  19.670  0.00  0.00    +0.000 A 
ATOM     11  C   UNL     1       5.277  15.864  20.442  0.00  0.00    +0.000 A 
ATOM     12  C   UNL     1       5.139  16.479  21.684  0.00  0.00    +0.000 A 
ATOM     13  C   UNL     1       3.871  16.824  22.154  0.00  0.00    +0.000 A 
ATOM     14  C   UNL     1       2.738  16.551  21.383  0.00  0.00    +0.000 A 
ENDBRANCH   6   9
BRANCH   6  15
ATOM     15  C   UNL     1       0.991  16.605  18.509  0.00  0.00    +0.000 A 
ATOM     16  C   UNL     1       1.711  17.298  17.527  0.00  0.00    +0.000 A 
ATOM     17  C   UNL     1       1.092  18.290  16.764  0.00  0.00    +0.000 A 
ATOM     18  C   UNL     1      -0.254  18.591  16.972  0.00  0.00    +0.000 A 
ATOM     19  C   UNL     1      -0.982  17.892  17.936  0.00  0.00    +0.000 A 
ATOM     20  C   UNL     1      -0.363  16.900  18.700  0.00  0.00    +0.000 A 
ENDBRANCH   6  15
ENDBRANCH   1   2
BRANCH   1  21
ATOM     21  C   UNL     1       0.151   9.413  20.432  0.00  0.00    +0.000 C 
BRANCH  21  22
ATOM     22  C   UNL     1       1.483   8.665  20.351  0.00  0.00    +0.000 C 
BRANCH  22  23
ATOM     23  O   UNL     1       1.293   7.367  20.940  0.00  0.00    +0.000 OA
BRANCH  23  31
ATOM     24  C   UNL     1       4.689   4.959  16.660  0.00  0.00    +0.000 A 
ATOM     25  C   UNL     1       4.503   3.649  16.860  0.00  0.00    +0.000 A 
ATOM     26  C   UNL     1       3.706   3.211  18.009  0.00  0.00    +0.000 A 
ATOM     27  O   UNL     1       3.554   2.024  18.260  0.00  0.00    +0.000 OA
ATOM     28  C   UNL     1       3.086   4.271  18.818  0.00  0.00    +0.000 A 
ATOM     29  C   UNL     1       2.222   3.943  19.865  0.00  0.00    +0.000 A 
ATOM     30  C   UNL     1       1.605   4.955  20.600  0.00  0.00    +0.000 A 
ATOM     31  C   UNL     1       1.857   6.295  20.300  0.00  0.00    +0.000 A 
ATOM     32  C   UNL     1       2.744   6.615  19.259  0.00  0.00    +0.000 A 
ATOM     33  C   UNL     1       3.352   5.602  18.507  0.00  0.00    +0.000 A 
ATOM     34  O   UNL     1       4.184   5.968  17.473  0.00  0.00    +0.000 OA
BRANCH  24  36
ATOM     35  O   UNL     1       6.099   4.555  14.754  0.00  0.00    +0.000 OA
ATOM     36  C   UNL     1       5.498   5.343  15.471  0.00  0.00    +0.000 C 
BRANCH  36  37
ATOM     37  O   UNL     1       5.499   6.676  15.261  0.00  0.00    +0.000 OA
ATOM     38  H   UNL     1       4.939   6.940  14.503  0.00  0.00    +0.000 HD
ENDBRANCH  36  37
ENDBRANCH  24  36
ENDBRANCH  23  31
ENDBRANCH  22  23
ENDBRANCH  21  22
ENDBRANCH   1  21
TORSDOF 9
ENDMDL
MODEL 6
REMARK VINA RESULT:      -8.5      5.649     10.382
REMARK  Name = 
REMARK  9 active torsions:
REMARK  status: ('A' for Active; 'I' for Inactive)
REMARK    1  A    between atoms: C_2  and  O_3
REMARK    2  A    between atoms: C_2  and  C_4
REMARK    3  A    between atoms: C_11  and  O_12
REMARK    4  A    between atoms: O_12  and  C_13
REMARK    5  A    between atoms: C_13  and  C_14
REMARK    6  A    between atoms: C_14  and  C_15
REMARK    7  A    between atoms: C_15  and  N_16
REMARK    8  A    between atoms: C_20  and  C_21
REMARK    9  A    between atoms: C_20  and  C_27
REMARK                            x       y       z     vdW  Elec       q    Type
REMARK                         _______ _______ _______ _____ _____    ______ ____
ROOT
ATOM      1  C   UNL     1      -0.157  10.623  18.816  0.00  0.00    +0.000 C 
ENDROOT
BRANCH   1   2
ATOM      2  N   UNL     1       0.770  11.559  19.469  0.00  0.00    +0.000 NA
ATOM      3  C   UNL     1       1.232  12.653  18.596  0.00  0.00    +0.000 C 
ATOM      4  C   UNL     1       0.183  13.742  18.306  0.00  0.00    +0.000 C 
ATOM      5  C   UNL     1      -0.289  14.380  19.602  0.00  0.00    +0.000 C 
ATOM      6  C   UNL     1      -0.276  15.721  19.837  0.00  0.00    +0.000 C 
ATOM      7  C   UNL     1      -0.763  13.311  20.577  0.00  0.00    +0.000 C 
ATOM      8  C   UNL     1       0.225  12.129  20.722  0.00  0.00    +0.000 C 
BRANCH   6   9
ATOM      9  C   UNL     1       0.078  16.647  18.731  0.00  0.00    +0.000 A 
ATOM     10  C   UNL     1       1.418  16.773  18.337  0.00  0.00    +0.000 A 
ATOM     11  C   UNL     1       1.781  17.676  17.336  0.00  0.00    +0.000 A 
ATOM     12  C   UNL     1       0.807  18.458  16.719  0.00  0.00    +0.000 A 
ATOM     13  C   UNL     1      -0.530  18.336  17.099  0.00  0.00    +0.000 A 
ATOM     14  C   UNL     1      -0.896  17.433  18.100  0.00  0.00    +0.000 A 
ENDBRANCH   6   9
BRANCH   6  15
ATOM     15  C   UNL     1      -0.637  16.255  21.173  0.00  0.00    +0.000 A 
ATOM     16  C   UNL     1      -1.977  16.550  21.459  0.00  0.00    +0.000 A 
ATOM     17  C   UNL     1      -2.337  17.073  22.702  0.00  0.00    +0.000 A 
ATOM     18  C   UNL     1      -1.360  17.299  23.672  0.00  0.00    +0.000 A 
ATOM     19  C   UNL     1      -0.026  16.991  23.401  0.00  0.00    +0.000 A 
ATOM     20  C   UNL     1       0.334  16.467  22.157  0.00  0.00    +0.000 A 
ENDBRANCH   6  15
ENDBRANCH   1   2
BRANCH   1  21
ATOM     21  C   UNL     1       0.500   9.657  17.811  0.00  0.00    +0.000 C 
BRANCH  21  22
ATOM     22  C   UNL     1       1.982   9.379  18.072  0.00  0.00    +0.000 C 
BRANCH  22  23
ATOM     23  O   UNL     1       2.064   8.373  19.097  0.00  0.00    +0.000 OA
BRANCH  23  31
ATOM     24  C   UNL     1       5.610   4.826  15.857  0.00  0.00    +0.000 A 
ATOM     25  C   UNL     1       5.201   3.607  16.230  0.00  0.00    +0.000 A 
ATOM     26  C   UNL     1       4.196   3.487  17.289  0.00  0.00    +0.000 A 
ATOM     27  O   UNL     1       3.832   2.393  17.697  0.00  0.00    +0.000 OA
ATOM     28  C   UNL     1       3.639   4.745  17.810  0.00  0.00    +0.000 A 
ATOM     29  C   UNL     1       2.601   4.722  18.742  0.00  0.00    +0.000 A 
ATOM     30  C   UNL     1       2.050   5.919  19.199  0.00  0.00    +0.000 A 
ATOM     31  C   UNL     1       2.541   7.142  18.735  0.00  0.00    +0.000 A 
ATOM     32  C   UNL     1       3.601   7.154  17.813  0.00  0.00    +0.000 A 
ATOM     33  C   UNL     1       4.145   5.954  17.339  0.00  0.00    +0.000 A 
ATOM     34  O   UNL     1       5.157   6.020  16.408  0.00  0.00    +0.000 OA
BRANCH  24  36
ATOM     35  O   UNL     1       6.532   4.295  13.701  0.00  0.00    +0.000 OA
ATOM     36  C   UNL     1       6.623   4.885  14.769  0.00  0.00    +0.000 C 
BRANCH  36  37
ATOM     37  O   UNL     1       7.672   5.672  15.088  0.00  0.00    +0.000 OA
ATOM     38  H   UNL     1       8.490   5.425  14.610  0.00  0.00    +0.000 HD
ENDBRANCH  36  37
ENDBRANCH  24  36
ENDBRANCH  23  31
ENDBRANCH  22  23
ENDBRANCH  21  22
ENDBRANCH   1  21
TORSDOF 9
ENDMDL
MODEL 7
REMARK VINA RESULT:      -8.5      5.756      9.757
REMARK  Name = 
REMARK  9 active torsions:
REMARK  status: ('A' for Active; 'I' for Inactive)
REMARK    1  A    between atoms: C_2  and  O_3
REMARK    2  A    between atoms: C_2  and  C_4
REMARK    3  A    between atoms: C_11  and  O_12
REMARK    4  A    between atoms: O_12  and  C_13
REMARK    5  A    between atoms: C_13  and  C_14
REMARK    6  A    between atoms: C_14  and  C_15
REMARK    7  A    between atoms: C_15  and  N_16
REMARK    8  A    between atoms: C_20  and  C_21
REMARK    9  A    between atoms: C_20  and  C_27
REMARK                            x       y       z     vdW  Elec       q    Type
REMARK                         _______ _______ _______ _____ _____    ______ ____
ROOT
ATOM      1  C   UNL     1       1.113  11.247  19.252  0.00  0.00    +0.000 C 
ENDROOT
BRANCH   1   2
ATOM      2  N   UNL     1      -0.018  10.556  19.888  0.00  0.00    +0.000 NA
ATOM      3  C   UNL     1      -0.459  11.166  21.154  0.00  0.00    +0.000 C 
ATOM      4  C   UNL     1      -1.228  12.491  21.007  0.00  0.00    +0.000 C 
ATOM      5  C   UNL     1      -2.472  12.289  20.156  0.00  0.00    +0.000 C 
ATOM      6  C   UNL     1      -3.726  12.647  20.548  0.00  0.00    +0.000 C 
ATOM      7  C   UNL     1      -2.107  11.636  18.830  0.00  0.00    +0.000 C 
ATOM      8  C   UNL     1      -1.182  10.406  18.985  0.00  0.00    +0.000 C 
BRANCH   6   9
ATOM      9  C   UNL     1      -3.900  13.409  21.811  0.00  0.00    +0.000 A 
ATOM     10  C   UNL     1      -4.003  14.807  21.766  0.00  0.00    +0.000 A 
ATOM     11  C   UNL     1      -4.114  15.547  22.944  0.00  0.00    +0.000 A 
ATOM     12  C   UNL     1      -4.124  14.897  24.176  0.00  0.00    +0.000 A 
ATOM     13  C   UNL     1      -4.028  13.506  24.232  0.00  0.00    +0.000 A 
ATOM     14  C   UNL     1      -3.918  12.762  23.054  0.00  0.00    +0.000 A 
ENDBRANCH   6   9
BRANCH   6  15
ATOM     15  C   UNL     1      -4.902  12.303  19.713  0.00  0.00    +0.000 A 
ATOM     16  C   UNL     1      -4.824  12.441  18.321  0.00  0.00    +0.000 A 
ATOM     17  C   UNL     1      -5.925  12.143  17.517  0.00  0.00    +0.000 A 
ATOM     18  C   UNL     1      -7.112  11.699  18.099  0.00  0.00    +0.000 A 
ATOM     19  C   UNL     1      -7.193  11.542  19.482  0.00  0.00    +0.000 A 
ATOM     20  C   UNL     1      -6.090  11.839  20.288  0.00  0.00    +0.000 A 
ENDBRANCH   6  15
ENDBRANCH   1   2
BRANCH   1  21
ATOM     21  C   UNL     1       1.645  10.574  17.972  0.00  0.00    +0.000 C 
BRANCH  21  22
ATOM     22  C   UNL     1       1.415   9.063  17.905  0.00  0.00    +0.000 C 
BRANCH  22  23
ATOM     23  O   UNL     1       2.329   8.440  18.824  0.00  0.00    +0.000 OA
BRANCH  23  31
ATOM     24  C   UNL     1       5.700   4.627  15.702  0.00  0.00    +0.000 A 
ATOM     25  C   UNL     1       5.273   3.442  16.155  0.00  0.00    +0.000 A 
ATOM     26  C   UNL     1       4.295   3.407  17.245  0.00  0.00    +0.000 A 
ATOM     27  O   UNL     1       3.916   2.349  17.724  0.00  0.00    +0.000 OA
ATOM     28  C   UNL     1       3.782   4.706  17.707  0.00  0.00    +0.000 A 
ATOM     29  C   UNL     1       2.769   4.763  18.666  0.00  0.00    +0.000 A 
ATOM     30  C   UNL     1       2.260   5.997  19.067  0.00  0.00    +0.000 A 
ATOM     31  C   UNL     1       2.767   7.179  18.521  0.00  0.00    +0.000 A 
ATOM     32  C   UNL     1       3.801   7.112  17.573  0.00  0.00    +0.000 A 
ATOM     33  C   UNL     1       4.303   5.874  17.155  0.00  0.00    +0.000 A 
ATOM     34  O   UNL     1       5.291   5.862  16.195  0.00  0.00    +0.000 OA
BRANCH  24  36
ATOM     35  O   UNL     1       7.612   5.385  14.456  0.00  0.00    +0.000 OA
ATOM     36  C   UNL     1       6.685   4.599  14.586  0.00  0.00    +0.000 C 
BRANCH  36  37
ATOM     37  O   UNL     1       6.444   3.594  13.718  0.00  0.00    +0.000 OA
ATOM     38  H   UNL     1       5.809   3.844  13.017  0.00  0.00    +0.000 HD
ENDBRANCH  36  37
ENDBRANCH  24  36
ENDBRANCH  23  31
ENDBRANCH  22  23
ENDBRANCH  21  22
ENDBRANCH   1  21
TORSDOF 9
ENDMDL
MODEL 8
REMARK VINA RESULT:      -8.4      6.286     10.748
REMARK  Name = 
REMARK  9 active torsions:
REMARK  status: ('A' for Active; 'I' for Inactive)
REMARK    1  A    between atoms: C_2  and  O_3
REMARK    2  A    between atoms: C_2  and  C_4
REMARK    3  A    between atoms: C_11  and  O_12
REMARK    4  A    between atoms: O_12  and  C_13
REMARK    5  A    between atoms: C_13  and  C_14
REMARK    6  A    between atoms: C_14  and  C_15
REMARK    7  A    between atoms: C_15  and  N_16
REMARK    8  A    between atoms: C_20  and  C_21
REMARK    9  A    between atoms: C_20  and  C_27
REMARK                            x       y       z     vdW  Elec       q    Type
REMARK                         _______ _______ _______ _____ _____    ______ ____
ROOT
ATOM      1  C   UNL     1       1.786  10.669  18.823  0.00  0.00    +0.000 C 
ENDROOT
BRANCH   1   2
ATOM      2  N   UNL     1       1.302   9.457  18.146  0.00  0.00    +0.000 NA
ATOM      3  C   UNL     1       2.310   8.805  17.292  0.00  0.00    +0.000 C 
ATOM      4  C   UNL     1       3.420   8.055  18.049  0.00  0.00    +0.000 C 
ATOM      5  C   UNL     1       2.819   6.972  18.931  0.00  0.00    +0.000 C 
ATOM      6  C   UNL     1       3.203   5.666  18.897  0.00  0.00    +0.000 C 
ATOM      7  C   UNL     1       1.744   7.560  19.835  0.00  0.00    +0.000 C 
ATOM      8  C   UNL     1       0.736   8.461  19.084  0.00  0.00    +0.000 C 
BRANCH   6   9
ATOM      9  C   UNL     1       4.369   5.275  18.065  0.00  0.00    +0.000 A 
ATOM     10  C   UNL     1       4.159   4.779  16.770  0.00  0.00    +0.000 A 
ATOM     11  C   UNL     1       5.237   4.356  15.990  0.00  0.00    +0.000 A 
ATOM     12  C   UNL     1       6.533   4.427  16.497  0.00  0.00    +0.000 A 
ATOM     13  C   UNL     1       6.754   4.924  17.782  0.00  0.00    +0.000 A 
ATOM     14  C   UNL     1       5.677   5.350  18.564  0.00  0.00    +0.000 A 
ENDBRANCH   6   9
BRANCH   6  15
ATOM     15  C   UNL     1       2.482   4.649  19.701  0.00  0.00    +0.000 A 
ATOM     16  C   UNL     1       2.893   4.390  21.015  0.00  0.00    +0.000 A 
ATOM     17  C   UNL     1       2.243   3.422  21.783  0.00  0.00    +0.000 A 
ATOM     18  C   UNL     1       1.173   2.710  21.244  0.00  0.00    +0.000 A 
ATOM     19  C   UNL     1       0.746   2.974  19.942  0.00  0.00    +0.000 A 
ATOM     20  C   UNL     1       1.396   3.943  19.174  0.00  0.00    +0.000 A 
ENDBRANCH   6  15
ENDBRANCH   1   2
BRANCH   1  21
ATOM     21  C   UNL     1       0.759  11.346  19.752  0.00  0.00    +0.000 C 
BRANCH  21  22
ATOM     22  C   UNL     1      -0.129  12.387  19.067  0.00  0.00    +0.000 C 
BRANCH  22  23
ATOM     23  O   UNL     1      -1.032  11.686  18.195  0.00  0.00    +0.000 OA
BRANCH  23  31
ATOM     24  C   UNL     1      -5.649  12.763  21.824  0.00  0.00    +0.000 A 
ATOM     25  C   UNL     1      -6.694  12.507  21.029  0.00  0.00    +0.000 A 
ATOM     26  C   UNL     1      -6.455  12.184  19.620  0.00  0.00    +0.000 A 
ATOM     27  O   UNL     1      -7.382  11.995  18.846  0.00  0.00    +0.000 OA
ATOM     28  C   UNL     1      -5.049  12.078  19.203  0.00  0.00    +0.000 A 
ATOM     29  C   UNL     1      -4.728  11.668  17.907  0.00  0.00    +0.000 A 
ATOM     30  C   UNL     1      -3.392  11.528  17.533  0.00  0.00    +0.000 A 
ATOM     31  C   UNL     1      -2.373  11.808  18.446  0.00  0.00    +0.000 A 
ATOM     32  C   UNL     1      -2.706  12.240  19.740  0.00  0.00    +0.000 A 
ATOM     33  C   UNL     1      -4.046  12.365  20.125  0.00  0.00    +0.000 A 
ATOM     34  O   UNL     1      -4.319  12.756  21.417  0.00  0.00    +0.000 OA
BRANCH  24  36
ATOM     35  O   UNL     1      -6.802  13.875  23.618  0.00  0.00    +0.000 OA
ATOM     36  C   UNL     1      -5.955  13.074  23.247  0.00  0.00    +0.000 C 
BRANCH  36  37
ATOM     37  O   UNL     1      -5.187  12.367  24.102  0.00  0.00    +0.000 OA
ATOM     38  H   UNL     1      -5.230  11.402  23.940  0.00  0.00    +0.000 HD
ENDBRANCH  36  37
ENDBRANCH  24  36
ENDBRANCH  23  31
ENDBRANCH  22  23
ENDBRANCH  21  22
ENDBRANCH   1  21
TORSDOF 9
ENDMDL
MODEL 9
REMARK VINA RESULT:      -8.4      5.584     10.072
REMARK  Name = 
REMARK  9 active torsions:
REMARK  status: ('A' for Active; 'I' for Inactive)
REMARK    1  A    between atoms: C_2  and  O_3
REMARK    2  A    between atoms: C_2  and  C_4
REMARK    3  A    between atoms: C_11  and  O_12
REMARK    4  A    between atoms: O_12  and  C_13
REMARK    5  A    between atoms: C_13  and  C_14
REMARK    6  A    between atoms: C_14  and  C_15
REMARK    7  A    between atoms: C_15  and  N_16
REMARK    8  A    between atoms: C_20  and  C_21
REMARK    9  A    between atoms: C_20  and  C_27
REMARK                            x       y       z     vdW  Elec       q    Type
REMARK                         _______ _______ _______ _____ _____    ______ ____
ROOT
ATOM      1  C   UNL     1       0.206  10.707  19.582  0.00  0.00    +0.000 C 
ENDROOT
BRANCH   1   2
ATOM      2  N   UNL     1      -0.624  11.865  19.945  0.00  0.00    +0.000 NA
ATOM      3  C   UNL     1      -0.137  12.606  21.122  0.00  0.00    +0.000 C 
ATOM      4  C   UNL     1       1.119  13.462  20.880  0.00  0.00    +0.000 C 
ATOM      5  C   UNL     1       0.859  14.486  19.787  0.00  0.00    +0.000 C 
ATOM      6  C   UNL     1       1.075  15.823  19.933  0.00  0.00    +0.000 C 
ATOM      7  C   UNL     1       0.327  13.803  18.535  0.00  0.00    +0.000 C 
ATOM      8  C   UNL     1      -0.822  12.807  18.820  0.00  0.00    +0.000 C 
BRANCH   6   9
ATOM      9  C   UNL     1       1.737  16.319  21.167  0.00  0.00    +0.000 A 
ATOM     10  C   UNL     1       3.138  16.349  21.236  0.00  0.00    +0.000 A 
ATOM     11  C   UNL     1       3.781  16.760  22.404  0.00  0.00    +0.000 A 
ATOM     12  C   UNL     1       3.030  17.148  23.512  0.00  0.00    +0.000 A 
ATOM     13  C   UNL     1       1.636  17.128  23.452  0.00  0.00    +0.000 A 
ATOM     14  C   UNL     1       0.990  16.717  22.283  0.00  0.00    +0.000 A 
ENDBRANCH   6   9
BRANCH   6  15
ATOM     15  C   UNL     1       0.680  16.771  18.863  0.00  0.00    +0.000 A 
ATOM     16  C   UNL     1      -0.656  17.182  18.765  0.00  0.00    +0.000 A 
ATOM     17  C   UNL     1      -1.055  18.057  17.753  0.00  0.00    +0.000 A 
ATOM     18  C   UNL     1      -0.119  18.532  16.835  0.00  0.00    +0.000 A 
ATOM     19  C   UNL     1       1.216  18.141  16.936  0.00  0.00    +0.000 A 
ATOM     20  C   UNL     1       1.616  17.266  17.949  0.00  0.00    +0.000 A 
ENDBRANCH   6  15
ENDBRANCH   1   2
BRANCH   1  21
ATOM     21  C   UNL     1       0.001  10.189  18.145  0.00  0.00    +0.000 C 
BRANCH  21  22
ATOM     22  C   UNL     1       0.886   8.999  17.766  0.00  0.00    +0.000 C 
BRANCH  22  23
ATOM     23  O   UNL     1       1.808   8.778  18.847  0.00  0.00    +0.000 OA
BRANCH  23  31
ATOM     24  C   UNL     1       5.628   5.031  16.198  0.00  0.00    +0.000 A 
ATOM     25  C   UNL     1       5.658   4.008  17.061  0.00  0.00    +0.000 A 
ATOM     26  C   UNL     1       4.926   4.121  18.325  0.00  0.00    +0.000 A 
ATOM     27  O   UNL     1       4.969   3.233  19.165  0.00  0.00    +0.000 OA
ATOM     28  C   UNL     1       4.125   5.340  18.512  0.00  0.00    +0.000 A 
ATOM     29  C   UNL     1       3.311   5.483  19.637  0.00  0.00    +0.000 A 
ATOM     30  C   UNL     1       2.522   6.623  19.784  0.00  0.00    +0.000 A 
ATOM     31  C   UNL     1       2.552   7.630  18.816  0.00  0.00    +0.000 A 
ATOM     32  C   UNL     1       3.391   7.486  17.698  0.00  0.00    +0.000 A 
ATOM     33  C   UNL     1       4.172   6.335  17.538  0.00  0.00    +0.000 A 
ATOM     34  O   UNL     1       4.948   6.227  16.406  0.00  0.00    +0.000 OA
BRANCH  24  36
ATOM     35  O   UNL     1       6.007   4.167  13.987  0.00  0.00    +0.000 OA
ATOM     36  C   UNL     1       6.381   4.853  14.928  0.00  0.00    +0.000 C 
BRANCH  36  37
ATOM     37  O   UNL     1       7.542   5.542  14.921  0.00  0.00    +0.000 OA
ATOM     38  H   UNL     1       7.819   5.808  14.020  0.00  0.00    +0.000 HD
ENDBRANCH  36  37
ENDBRANCH  24  36
ENDBRANCH  23  31
ENDBRANCH  22  23
ENDBRANCH  21  22
ENDBRANCH   1  21
TORSDOF 9
ENDMDL
