MODEL 1
REMARK VINA RESULT:      -8.2      0.000      0.000
REMARK  Name = 
REMARK  5 active torsions:
REMARK  status: ('A' for Active; 'I' for Inactive)
REMARK    1  A    between atoms: C_1  and  C_2
REMARK    2  A    between atoms: C_7  and  C_8
REMARK    3  A    between atoms: N_10  and  C_11
REMARK    4  A    between atoms: C_11  and  C_12
REMARK    5  A    between atoms: C_17  and  C_18
REMARK                            x       y       z     vdW  Elec       q    Type
REMARK                         _______ _______ _______ _____ _____    ______ ____
ROOT
ATOM      1  C   UNL     1       7.468   7.006  18.096  0.00  0.00    +0.000 C 
ATOM      2  O   UNL     1       8.233   6.632  18.986  0.00  0.00    +0.000 OA
ATOM      3  N   UNL     1       6.539   6.158  17.527  0.00  0.00    +0.000 N 
ATOM      4  C   UNL     1       5.676   6.431  16.396  0.00  0.00    +0.000 C 
ATOM      5  C   UNL     1       4.430   5.642  16.746  0.00  0.00    +0.000 C 
ATOM      6  C   UNL     1       4.974   4.360  17.402  0.00  0.00    +0.000 C 
ATOM      7  C   UNL     1       6.335   4.799  17.993  0.00  0.00    +0.000 C 
ENDROOT
BRANCH   6   8
ATOM      8  C   UNL     1       4.000   3.744  18.438  0.00  0.00    +0.000 C 
ATOM      9  C   UNL     1       3.436   2.401  17.943  0.00  0.00    +0.000 C 
ATOM     10  C   UNL     1       2.378   1.853  18.895  0.00  0.00    +0.000 C 
ATOM     11  O   UNL     1       1.336   2.804  19.094  0.00  0.00    +0.000 OA
ATOM     12  C   UNL     1       1.819   4.003  19.696  0.00  0.00    +0.000 C 
ATOM     13  C   UNL     1       2.834   4.690  18.786  0.00  0.00    +0.000 C 
ENDBRANCH   6   8
BRANCH   1  14
ATOM     14  C   UNL     1       7.564   8.436  17.538  0.00  0.00    +0.000 C 
BRANCH  14  17
ATOM     15  C   UNL     1       8.790  10.536  18.054  0.00  0.00    +0.000 C 
ATOM     16  O   UNL     1       7.953  11.220  17.474  0.00  0.00    +0.000 OA
ATOM     17  N   UNL     1       8.664   9.165  18.149  0.00  0.00    +0.000 N 
ATOM     18  H   UNL     1       9.295   8.621  18.713  0.00  0.00    +0.000 HD
BRANCH  15  25
ATOM     19  C   UNL     1       8.998  11.148  21.144  0.00  0.00    +0.000 C 
ATOM     20  C   UNL     1      10.058  11.464  20.126  0.00  0.00    +0.000 A 
ATOM     21  C   UNL     1      11.257  12.030  20.615  0.00  0.00    +0.000 A 
ATOM     22  C   UNL     1      12.323  12.339  19.772  0.00  0.00    +0.000 A 
ATOM     23  C   UNL     1      12.212  12.087  18.410  0.00  0.00    +0.000 A 
ATOM     24  C   UNL     1      11.037  11.522  17.906  0.00  0.00    +0.000 A 
ATOM     25  C   UNL     1       9.947  11.203  18.742  0.00  0.00    +0.000 A 
ENDBRANCH  15  25
ENDBRANCH  14  17
ENDBRANCH   1  14
TORSDOF 4
ENDMDL
MODEL 2
REMARK VINA RESULT:      -7.9      5.480      8.271
REMARK  Name = 
REMARK  5 active torsions:
REMARK  status: ('A' for Active; 'I' for Inactive)
REMARK    1  A    between atoms: C_1  and  C_2
REMARK    2  A    between atoms: C_7  and  C_8
REMARK    3  A    between atoms: N_10  and  C_11
REMARK    4  A    between atoms: C_11  and  C_12
REMARK    5  A    between atoms: C_17  and  C_18
REMARK                            x       y       z     vdW  Elec       q    Type
REMARK                         _______ _______ _______ _____ _____    ______ ____
ROOT
ATOM      1  C   UNL     1       2.268   7.163  19.492  0.00  0.00    +0.000 C 
ATOM      2  O   UNL     1       2.363   8.124  18.729  0.00  0.00    +0.000 OA
ATOM      3  N   UNL     1       2.564   5.877  19.088  0.00  0.00    +0.000 N 
ATOM      4  C   UNL     1       2.372   4.654  19.839  0.00  0.00    +0.000 C 
ATOM      5  C   UNL     1       3.537   3.803  19.370  0.00  0.00    +0.000 C 
ATOM      6  C   UNL     1       3.663   4.141  17.874  0.00  0.00    +0.000 C 
ATOM      7  C   UNL     1       3.091   5.575  17.771  0.00  0.00    +0.000 C 
ENDROOT
BRANCH   6   8
ATOM      8  C   UNL     1       5.108   3.992  17.333  0.00  0.00    +0.000 C 
ATOM      9  C   UNL     1       6.123   4.686  18.257  0.00  0.00    +0.000 C 
ATOM     10  C   UNL     1       7.528   4.659  17.667  0.00  0.00    +0.000 C 
ATOM     11  O   UNL     1       7.540   5.240  16.366  0.00  0.00    +0.000 OA
ATOM     12  C   UNL     1       6.720   4.516  15.453  0.00  0.00    +0.000 C 
ATOM     13  C   UNL     1       5.261   4.545  15.902  0.00  0.00    +0.000 C 
ENDBRANCH   6   8
BRANCH   1  14
ATOM     14  C   UNL     1       1.750   7.359  20.927  0.00  0.00    +0.000 C 
BRANCH  14  17
ATOM     15  C   UNL     1       0.855   9.449  21.932  0.00  0.00    +0.000 C 
ATOM     16  O   UNL     1       1.771   9.503  22.746  0.00  0.00    +0.000 OA
ATOM     17  N   UNL     1       0.780   8.440  20.992  0.00  0.00    +0.000 N 
ATOM     18  H   UNL     1       0.087   8.458  20.263  0.00  0.00    +0.000 HD
BRANCH  15  25
ATOM     19  C   UNL     1       0.236  11.342  19.483  0.00  0.00    +0.000 C 
ATOM     20  C   UNL     1      -0.475  11.378  20.807  0.00  0.00    +0.000 A 
ATOM     21  C   UNL     1      -1.538  12.302  20.928  0.00  0.00    +0.000 A 
ATOM     22  C   UNL     1      -2.291  12.408  22.097  0.00  0.00    +0.000 A 
ATOM     23  C   UNL     1      -1.996  11.586  23.176  0.00  0.00    +0.000 A 
ATOM     24  C   UNL     1      -0.953  10.661  23.075  0.00  0.00    +0.000 A 
ATOM     25  C   UNL     1      -0.178  10.539  21.902  0.00  0.00    +0.000 A 
ENDBRANCH  15  25
ENDBRANCH  14  17
ENDBRANCH   1  14
TORSDOF 4
ENDMDL
MODEL 3
REMARK VINA RESULT:      -7.8      0.890      1.688
REMARK  Name = 
REMARK  5 active torsions:
REMARK  status: ('A' for Active; 'I' for Inactive)
REMARK    1  A    between atoms: C_1  and  C_2
REMARK    2  A    between atoms: C_7  and  C_8
REMARK    3  A    between atoms: N_10  and  C_11
REMARK    4  A    between atoms: C_11  and  C_12
REMARK    5  A    between atoms: C_17  and  C_18
REMARK                            x       y       z     vdW  Elec       q    Type
REMARK                         _______ _______ _______ _____ _____    ______ ____
ROOT
ATOM      1  C   UNL     1       7.491   6.674  18.063  0.00  0.00    +0.000 C 
ATOM      2  O   UNL     1       8.109   6.330  19.071  0.00  0.00    +0.000 OA
ATOM      3  N   UNL     1       6.678   5.800  17.370  0.00  0.00    +0.000 N 
ATOM      4  C   UNL     1       6.004   6.037  16.111  0.00  0.00    +0.000 C 
ATOM      5  C   UNL     1       4.729   5.233  16.272  0.00  0.00    +0.000 C 
ATOM      6  C   UNL     1       5.179   3.973  17.033  0.00  0.00    +0.000 C 
ATOM      7  C   UNL     1       6.422   4.446  17.825  0.00  0.00    +0.000 C 
ENDROOT
BRANCH   6   8
ATOM      8  C   UNL     1       4.061   3.358  17.913  0.00  0.00    +0.000 C 
ATOM      9  C   UNL     1       2.668   3.809  17.440  0.00  0.00    +0.000 C 
ATOM     10  C   UNL     1       1.572   3.317  18.378  0.00  0.00    +0.000 C 
ATOM     11  O   UNL     1       1.821   3.744  19.714  0.00  0.00    +0.000 OA
ATOM     12  C   UNL     1       3.040   3.209  20.224  0.00  0.00    +0.000 C 
ATOM     13  C   UNL     1       4.228   3.705  19.406  0.00  0.00    +0.000 C 
ENDBRANCH   6   8
BRANCH   1  14
ATOM     14  C   UNL     1       7.655   8.096  17.499  0.00  0.00    +0.000 C 
BRANCH  14  17
ATOM     15  C   UNL     1       8.631  10.269  18.209  0.00  0.00    +0.000 C 
ATOM     16  O   UNL     1       7.965  10.888  17.385  0.00  0.00    +0.000 OA
ATOM     17  N   UNL     1       8.524   8.899  18.343  0.00  0.00    +0.000 N 
ATOM     18  H   UNL     1       8.992   8.410  19.088  0.00  0.00    +0.000 HD
BRANCH  15  25
ATOM     19  C   UNL     1      11.335  11.696  17.425  0.00  0.00    +0.000 C 
ATOM     20  C   UNL     1      10.735  11.674  18.804  0.00  0.00    +0.000 A 
ATOM     21  C   UNL     1      11.422  12.400  19.803  0.00  0.00    +0.000 A 
ATOM     22  C   UNL     1      10.949  12.478  21.112  0.00  0.00    +0.000 A 
ATOM     23  C   UNL     1       9.769  11.827  21.452  0.00  0.00    +0.000 A 
ATOM     24  C   UNL     1       9.072  11.109  20.477  0.00  0.00    +0.000 A 
ATOM     25  C   UNL     1       9.534  11.016  19.147  0.00  0.00    +0.000 A 
ENDBRANCH  15  25
ENDBRANCH  14  17
ENDBRANCH   1  14
TORSDOF 4
ENDMDL
MODEL 4
REMARK VINA RESULT:      -7.7      6.593      9.487
REMARK  Name = 
REMARK  5 active torsions:
REMARK  status: ('A' for Active; 'I' for Inactive)
REMARK    1  A    between atoms: C_1  and  C_2
REMARK    2  A    between atoms: C_7  and  C_8
REMARK    3  A    between atoms: N_10  and  C_11
REMARK    4  A    between atoms: C_11  and  C_12
REMARK    5  A    between atoms: C_17  and  C_18
REMARK                            x       y       z     vdW  Elec       q    Type
REMARK                         _______ _______ _______ _____ _____    ______ ____
ROOT
ATOM      1  C   UNL     1       1.086   9.115  19.221  0.00  0.00    +0.000 C 
ATOM      2  O   UNL     1       0.515   9.223  20.307  0.00  0.00    +0.000 OA
ATOM      3  N   UNL     1       2.053   8.157  18.995  0.00  0.00    +0.000 N 
ATOM      4  C   UNL     1       2.884   8.007  17.819  0.00  0.00    +0.000 C 
ATOM      5  C   UNL     1       3.058   6.503  17.739  0.00  0.00    +0.000 C 
ATOM      6  C   UNL     1       3.182   6.065  19.209  0.00  0.00    +0.000 C 
ATOM      7  C   UNL     1       2.403   7.154  19.984  0.00  0.00    +0.000 C 
ENDROOT
BRANCH   6   8
ATOM      8  C   UNL     1       2.676   4.621  19.461  0.00  0.00    +0.000 C 
ATOM      9  C   UNL     1       1.852   4.104  18.270  0.00  0.00    +0.000 C 
ATOM     10  C   UNL     1       1.240   2.738  18.564  0.00  0.00    +0.000 C 
ATOM     11  O   UNL     1       0.453   2.782  19.751  0.00  0.00    +0.000 OA
ATOM     12  C   UNL     1       1.236   3.113  20.895  0.00  0.00    +0.000 C 
ATOM     13  C   UNL     1       1.837   4.508  20.749  0.00  0.00    +0.000 C 
ENDBRANCH   6   8
BRANCH   1  14
ATOM     14  C   UNL     1       0.778  10.100  18.080  0.00  0.00    +0.000 C 
BRANCH  14  17
ATOM     15  C   UNL     1      -1.277  11.496  18.176  0.00  0.00    +0.000 C 
ATOM     16  O   UNL     1      -0.641  12.488  18.517  0.00  0.00    +0.000 OA
ATOM     17  N   UNL     1      -0.655  10.290  17.923  0.00  0.00    +0.000 N 
ATOM     18  H   UNL     1      -1.166   9.510  17.545  0.00  0.00    +0.000 HD
BRANCH  15  25
ATOM     19  C   UNL     1      -2.810  10.772  15.513  0.00  0.00    +0.000 C 
ATOM     20  C   UNL     1      -3.456  11.264  16.778  0.00  0.00    +0.000 A 
ATOM     21  C   UNL     1      -4.867  11.351  16.775  0.00  0.00    +0.000 A 
ATOM     22  C   UNL     1      -5.582  11.765  17.898  0.00  0.00    +0.000 A 
ATOM     23  C   UNL     1      -4.896  12.104  19.057  0.00  0.00    +0.000 A 
ATOM     24  C   UNL     1      -3.501  12.019  19.084  0.00  0.00    +0.000 A 
ATOM     25  C   UNL     1      -2.759  11.603  17.958  0.00  0.00    +0.000 A 
ENDBRANCH  15  25
ENDBRANCH  14  17
ENDBRANCH   1  14
TORSDOF 4
ENDMDL
MODEL 5
REMARK VINA RESULT:      -7.7      0.856      1.709
REMARK  Name = 
REMARK  5 active torsions:
REMARK  status: ('A' for Active; 'I' for Inactive)
REMARK    1  A    between atoms: C_1  and  C_2
REMARK    2  A    between atoms: C_7  and  C_8
REMARK    3  A    between atoms: N_10  and  C_11
REMARK    4  A    between atoms: C_11  and  C_12
REMARK    5  A    between atoms: C_17  and  C_18
REMARK                            x       y       z     vdW  Elec       q    Type
REMARK                         _______ _______ _______ _____ _____    ______ ____
ROOT
ATOM      1  C   UNL     1       7.482   6.649  18.234  0.00  0.00    +0.000 C 
ATOM      2  O   UNL     1       8.083   6.282  19.245  0.00  0.00    +0.000 OA
ATOM      3  N   UNL     1       6.492   5.883  17.654  0.00  0.00    +0.000 N 
ATOM      4  C   UNL     1       5.804   6.135  16.405  0.00  0.00    +0.000 C 
ATOM      5  C   UNL     1       4.418   5.589  16.686  0.00  0.00    +0.000 C 
ATOM      6  C   UNL     1       4.679   4.335  17.538  0.00  0.00    +0.000 C 
ATOM      7  C   UNL     1       6.026   4.639  18.237  0.00  0.00    +0.000 C 
ENDROOT
BRANCH   6   8
ATOM      8  C   UNL     1       3.519   4.005  18.512  0.00  0.00    +0.000 C 
ATOM      9  C   UNL     1       3.979   3.046  19.623  0.00  0.00    +0.000 C 
ATOM     10  C   UNL     1       2.814   2.612  20.506  0.00  0.00    +0.000 C 
ATOM     11  O   UNL     1       1.777   2.028  19.723  0.00  0.00    +0.000 OA
ATOM     12  C   UNL     1       1.232   2.955  18.787  0.00  0.00    +0.000 C 
ATOM     13  C   UNL     1       2.298   3.400  17.790  0.00  0.00    +0.000 C 
ENDBRANCH   6   8
BRANCH   1  14
ATOM     14  C   UNL     1       7.864   7.968  17.539  0.00  0.00    +0.000 C 
BRANCH  14  17
ATOM     15  C   UNL     1       8.683  10.195  18.277  0.00  0.00    +0.000 C 
ATOM     16  O   UNL     1       8.044  10.770  17.401  0.00  0.00    +0.000 OA
ATOM     17  N   UNL     1       8.635   8.824  18.426  0.00  0.00    +0.000 N 
ATOM     18  H   UNL     1       9.077   8.369  19.207  0.00  0.00    +0.000 HD
BRANCH  15  25
ATOM     19  C   UNL     1      11.385  11.708  17.658  0.00  0.00    +0.000 C 
ATOM     20  C   UNL     1      10.684  11.695  18.988  0.00  0.00    +0.000 A 
ATOM     21  C   UNL     1      11.267  12.470  20.017  0.00  0.00    +0.000 A 
ATOM     22  C   UNL     1      10.694  12.560  21.284  0.00  0.00    +0.000 A 
ATOM     23  C   UNL     1       9.518  11.872  21.553  0.00  0.00    +0.000 A 
ATOM     24  C   UNL     1       8.922  11.105  20.548  0.00  0.00    +0.000 A 
ATOM     25  C   UNL     1       9.486  10.999  19.259  0.00  0.00    +0.000 A 
ENDBRANCH  15  25
ENDBRANCH  14  17
ENDBRANCH   1  14
TORSDOF 4
ENDMDL
MODEL 6
REMARK VINA RESULT:      -7.7      6.760      9.751
REMARK  Name = 
REMARK  5 active torsions:
REMARK  status: ('A' for Active; 'I' for Inactive)
REMARK    1  A    between atoms: C_1  and  C_2
REMARK    2  A    between atoms: C_7  and  C_8
REMARK    3  A    between atoms: N_10  and  C_11
REMARK    4  A    between atoms: C_11  and  C_12
REMARK    5  A    between atoms: C_17  and  C_18
REMARK                            x       y       z     vdW  Elec       q    Type
REMARK                         _______ _______ _______ _____ _____    ______ ____
ROOT
ATOM      1  C   UNL     1       0.896   9.701  19.667  0.00  0.00    +0.000 C 
ATOM      2  O   UNL     1       0.360   9.927  20.753  0.00  0.00    +0.000 OA
ATOM      3  N   UNL     1       1.667   8.577  19.452  0.00  0.00    +0.000 N 
ATOM      4  C   UNL     1       2.449   8.260  18.275  0.00  0.00    +0.000 C 
ATOM      5  C   UNL     1       2.340   6.749  18.215  0.00  0.00    +0.000 C 
ATOM      6  C   UNL     1       2.388   6.314  19.690  0.00  0.00    +0.000 C 
ATOM      7  C   UNL     1       1.829   7.539  20.453  0.00  0.00    +0.000 C 
ENDROOT
BRANCH   6   8
ATOM      8  C   UNL     1       1.623   4.993  19.963  0.00  0.00    +0.000 C 
ATOM      9  C   UNL     1       2.232   4.233  21.154  0.00  0.00    +0.000 C 
ATOM     10  C   UNL     1       1.572   2.873  21.346  0.00  0.00    +0.000 C 
ATOM     11  O   UNL     1       1.650   2.100  20.152  0.00  0.00    +0.000 OA
ATOM     12  C   UNL     1       0.958   2.720  19.072  0.00  0.00    +0.000 C 
ATOM     13  C   UNL     1       1.590   4.067  18.731  0.00  0.00    +0.000 C 
ENDBRANCH   6   8
BRANCH   1  14
ATOM     14  C   UNL     1       0.770  10.712  18.514  0.00  0.00    +0.000 C 
BRANCH  14  17
ATOM     15  C   UNL     1      -1.609  10.604  17.801  0.00  0.00    +0.000 C 
ATOM     16  O   UNL     1      -1.452   9.501  17.289  0.00  0.00    +0.000 OA
ATOM     17  N   UNL     1      -0.575  11.259  18.440  0.00  0.00    +0.000 N 
ATOM     18  H   UNL     1      -0.734  12.113  18.947  0.00  0.00    +0.000 HD
BRANCH  15  25
ATOM     19  C   UNL     1      -3.614  10.672  15.364  0.00  0.00    +0.000 C 
ATOM     20  C   UNL     1      -3.883  11.255  16.723  0.00  0.00    +0.000 A 
ATOM     21  C   UNL     1      -5.160  11.828  16.924  0.00  0.00    +0.000 A 
ATOM     22  C   UNL     1      -5.537  12.374  18.150  0.00  0.00    +0.000 A 
ATOM     23  C   UNL     1      -4.638  12.360  19.209  0.00  0.00    +0.000 A 
ATOM     24  C   UNL     1      -3.372  11.794  19.034  0.00  0.00    +0.000 A 
ATOM     25  C   UNL     1      -2.971  11.236  17.801  0.00  0.00    +0.000 A 
ENDBRANCH  15  25
ENDBRANCH  14  17
ENDBRANCH   1  14
TORSDOF 4
ENDMDL
MODEL 7
REMARK VINA RESULT:      -7.6      0.945      1.350
REMARK  Name = 
REMARK  5 active torsions:
REMARK  status: ('A' for Active; 'I' for Inactive)
REMARK    1  A    between atoms: C_1  and  C_2
REMARK    2  A    between atoms: C_7  and  C_8
REMARK    3  A    between atoms: N_10  and  C_11
REMARK    4  A    between atoms: C_11  and  C_12
REMARK    5  A    between atoms: C_17  and  C_18
REMARK                            x       y       z     vdW  Elec       q    Type
REMARK                         _______ _______ _______ _____ _____    ______ ____
ROOT
ATOM      1  C   UNL     1       7.377   6.927  18.205  0.00  0.00    +0.000 C 
ATOM      2  O   UNL     1       8.050   6.638  19.195  0.00  0.00    +0.000 OA
ATOM      3  N   UNL     1       6.418   6.073  17.698  0.00  0.00    +0.000 N 
ATOM      4  C   UNL     1       5.656   6.233  16.477  0.00  0.00    +0.000 C 
ATOM      5  C   UNL     1       4.327   5.602  16.843  0.00  0.00    +0.000 C 
ATOM      6  C   UNL     1       4.717   4.399  17.721  0.00  0.00    +0.000 C 
ATOM      7  C   UNL     1       6.071   4.821  18.342  0.00  0.00    +0.000 C 
ENDROOT
BRANCH   6   8
ATOM      8  C   UNL     1       3.631   4.023  18.760  0.00  0.00    +0.000 C 
ATOM      9  C   UNL     1       3.184   5.252  19.570  0.00  0.00    +0.000 C 
ATOM     10  C   UNL     1       2.215   4.867  20.682  0.00  0.00    +0.000 C 
ATOM     11  O   UNL     1       2.785   3.875  21.530  0.00  0.00    +0.000 OA
ATOM     12  C   UNL     1       3.065   2.670  20.823  0.00  0.00    +0.000 C 
ATOM     13  C   UNL     1       4.099   2.917  19.727  0.00  0.00    +0.000 C 
ENDBRANCH   6   8
BRANCH   1  14
ATOM     14  C   UNL     1       7.630   8.244  17.452  0.00  0.00    +0.000 C 
BRANCH  14  17
ATOM     15  C   UNL     1       8.737  10.386  18.056  0.00  0.00    +0.000 C 
ATOM     16  O   UNL     1       7.839  11.046  17.542  0.00  0.00    +0.000 OA
ATOM     17  N   UNL     1       8.701   9.007  18.072  0.00  0.00    +0.000 N 
ATOM     18  H   UNL     1       9.384   8.474  18.584  0.00  0.00    +0.000 HD
BRANCH  15  25
ATOM     19  C   UNL     1       8.948  10.938  21.157  0.00  0.00    +0.000 C 
ATOM     20  C   UNL     1       9.983  11.321  20.137  0.00  0.00    +0.000 A 
ATOM     21  C   UNL     1      11.162  11.927  20.629  0.00  0.00    +0.000 A 
ATOM     22  C   UNL     1      12.205  12.301  19.783  0.00  0.00    +0.000 A 
ATOM     23  C   UNL     1      12.092  12.075  18.417  0.00  0.00    +0.000 A 
ATOM     24  C   UNL     1      10.938  11.471  17.911  0.00  0.00    +0.000 A 
ATOM     25  C   UNL     1       9.870  11.087  18.749  0.00  0.00    +0.000 A 
ENDBRANCH  15  25
ENDBRANCH  14  17
ENDBRANCH   1  14
TORSDOF 4
ENDMDL
MODEL 8
REMARK VINA RESULT:      -7.6      6.825      9.951
REMARK  Name = 
REMARK  5 active torsions:
REMARK  status: ('A' for Active; 'I' for Inactive)
REMARK    1  A    between atoms: C_1  and  C_2
REMARK    2  A    between atoms: C_7  and  C_8
REMARK    3  A    between atoms: N_10  and  C_11
REMARK    4  A    between atoms: C_11  and  C_12
REMARK    5  A    between atoms: C_17  and  C_18
REMARK                            x       y       z     vdW  Elec       q    Type
REMARK                         _______ _______ _______ _____ _____    ______ ____
ROOT
ATOM      1  C   UNL     1       0.977   9.224  20.627  0.00  0.00    +0.000 C 
ATOM      2  O   UNL     1       1.301   9.620  19.507  0.00  0.00    +0.000 OA
ATOM      3  N   UNL     1       0.444  10.071  21.577  0.00  0.00    +0.000 N 
ATOM      4  C   UNL     1       0.145   9.764  22.960  0.00  0.00    +0.000 C 
ATOM      5  C   UNL     1      -1.077  10.623  23.222  0.00  0.00    +0.000 C 
ATOM      6  C   UNL     1      -0.793  11.919  22.444  0.00  0.00    +0.000 C 
ATOM      7  C   UNL     1       0.145  11.463  21.300  0.00  0.00    +0.000 C 
ENDROOT
BRANCH   6   8
ATOM      8  C   UNL     1      -2.080  12.638  21.962  0.00  0.00    +0.000 C 
ATOM      9  C   UNL     1      -3.258  12.365  22.912  0.00  0.00    +0.000 C 
ATOM     10  C   UNL     1      -4.557  12.958  22.376  0.00  0.00    +0.000 C 
ATOM     11  O   UNL     1      -4.833  12.470  21.066  0.00  0.00    +0.000 OA
ATOM     12  C   UNL     1      -3.820  12.846  20.136  0.00  0.00    +0.000 C 
ATOM     13  C   UNL     1      -2.477  12.235  20.528  0.00  0.00    +0.000 C 
ENDBRANCH   6   8
BRANCH   1  14
ATOM     14  C   UNL     1       1.216   7.759  21.031  0.00  0.00    +0.000 C 
BRANCH  14  17
ATOM     15  C   UNL     1       2.358   5.740  20.138  0.00  0.00    +0.000 C 
ATOM     16  O   UNL     1       1.783   5.006  20.936  0.00  0.00    +0.000 OA
ATOM     17  N   UNL     1       2.122   7.099  20.105  0.00  0.00    +0.000 N 
ATOM     18  H   UNL     1       2.516   7.679  19.384  0.00  0.00    +0.000 HD
BRANCH  15  25
ATOM     19  C   UNL     1       1.499   4.143  17.554  0.00  0.00    +0.000 C 
ATOM     20  C   UNL     1       2.917   4.446  17.953  0.00  0.00    +0.000 A 
ATOM     21  C   UNL     1       3.929   4.022  17.063  0.00  0.00    +0.000 A 
ATOM     22  C   UNL     1       5.278   4.271  17.310  0.00  0.00    +0.000 A 
ATOM     23  C   UNL     1       5.646   4.955  18.462  0.00  0.00    +0.000 A 
ATOM     24  C   UNL     1       4.661   5.388  19.353  0.00  0.00    +0.000 A 
ATOM     25  C   UNL     1       3.290   5.145  19.122  0.00  0.00    +0.000 A 
ENDBRANCH  15  25
ENDBRANCH  14  17
ENDBRANCH   1  14
TORSDOF 4
ENDMDL
MODEL 9
REMARK VINA RESULT:      -7.5      6.127      8.786
REMARK  Name = 
REMARK  5 active torsions:
REMARK  status: ('A' for Active; 'I' for Inactive)
REMARK    1  A    between atoms: C_1  and  C_2
REMARK    2  A    between atoms: C_7  and  C_8
REMARK    3  A    between atoms: N_10  and  C_11
REMARK    4  A    between atoms: C_11  and  C_12
REMARK    5  A    between atoms: C_17  and  C_18
REMARK                            x       y       z     vdW  Elec       q    Type
REMARK                         _______ _______ _______ _____ _____    ______ ____
ROOT
ATOM      1  C   UNL     1       1.774   8.203  19.709  0.00  0.00    +0.000 C 
ATOM      2  O   UNL     1       1.675   9.143  18.920  0.00  0.00    +0.000 OA
ATOM      3  N   UNL     1       2.321   6.991  19.337  0.00  0.00    +0.000 N 
ATOM      4  C   UNL     1       2.378   5.775  20.120  0.00  0.00    +0.000 C 
ATOM      5  C   UNL     1       3.689   5.162  19.667  0.00  0.00    +0.000 C 
ATOM      6  C   UNL     1       3.745   5.478  18.162  0.00  0.00    +0.000 C 
ATOM      7  C   UNL     1       2.898   6.767  18.024  0.00  0.00    +0.000 C 
ENDROOT
BRANCH   6   8
ATOM      8  C   UNL     1       5.190   5.608  17.617  0.00  0.00    +0.000 C 
ATOM      9  C   UNL     1       5.464   4.575  16.511  0.00  0.00    +0.000 C 
ATOM     10  C   UNL     1       6.921   4.607  16.063  0.00  0.00    +0.000 C 
ATOM     11  O   UNL     1       7.794   4.412  17.171  0.00  0.00    +0.000 OA
ATOM     12  C   UNL     1       7.662   5.448  18.140  0.00  0.00    +0.000 C 
ATOM     13  C   UNL     1       6.252   5.460  18.726  0.00  0.00    +0.000 C 
ENDBRANCH   6   8
BRANCH   1  14
ATOM     14  C   UNL     1       1.227   8.328  21.141  0.00  0.00    +0.000 C 
BRANCH  14  17
ATOM     15  C   UNL     1       0.209  10.569  21.491  0.00  0.00    +0.000 C 
ATOM     16  O   UNL     1       1.303  11.083  21.701  0.00  0.00    +0.000 OA
ATOM     17  N   UNL     1       0.085   9.228  21.190  0.00  0.00    +0.000 N 
ATOM     18  H   UNL     1      -0.800   8.834  20.917  0.00  0.00    +0.000 HD
BRANCH  15  25
ATOM     19  C   UNL     1      -1.194  11.784  18.938  0.00  0.00    +0.000 C 
ATOM     20  C   UNL     1      -1.671  11.957  20.353  0.00  0.00    +0.000 A 
ATOM     21  C   UNL     1      -2.874  12.678  20.531  0.00  0.00    +0.000 A 
ATOM     22  C   UNL     1      -3.432  12.879  21.793  0.00  0.00    +0.000 A 
ATOM     23  C   UNL     1      -2.793  12.359  22.912  0.00  0.00    +0.000 A 
ATOM     24  C   UNL     1      -1.606  11.639  22.758  0.00  0.00    +0.000 A 
ATOM     25  C   UNL     1      -1.025  11.425  21.490  0.00  0.00    +0.000 A 
ENDBRANCH  15  25
ENDBRANCH  14  17
ENDBRANCH   1  14
TORSDOF 4
ENDMDL
