MODEL 1
REMARK VINA RESULT:      -8.3      0.000      0.000
REMARK  Name = 
REMARK  10 active torsions:
REMARK  status: ('A' for Active; 'I' for Inactive)
REMARK    1  A    between atoms: C_6  and  C_7
REMARK    2  A    between atoms: C_6  and  C_8
REMARK    3  A    between atoms: C_8  and  N_9
REMARK    4  A    between atoms: N_9  and  C_10
REMARK    5  A    between atoms: C_10  and  C_11
REMARK    6  A    between atoms: C_11  and  C_12
REMARK    7  A    between atoms: C_18  and  O_19
REMARK    8  A    between atoms: C_22  and  C_23
REMARK    9  A    between atoms: C_24  and  C_25
REMARK   10  A    between atoms: C_26  and  C_27
REMARK                            x       y       z     vdW  Elec       q    Type
REMARK                         _______ _______ _______ _____ _____    ______ ____
ROOT
ATOM      1  C   UNL     1       1.705   3.591  20.608  0.00  0.00    +0.000 C 
ATOM      2  C   UNL     1       2.141   3.770  19.346  0.00  0.00    +0.000 C 
ATOM      3  C   UNL     1       2.692   2.604  18.562  0.00  0.00    +0.000 C 
ATOM      4  C   UNL     1       4.108   2.842  18.013  0.00  0.00    +0.000 C 
ATOM      5  C   UNL     1       4.272   4.202  17.300  0.00  0.00    +0.000 C 
ATOM      6  C   UNL     1       5.694   4.475  16.614  0.00  0.00    +0.000 C 
ATOM      7  C   UNL     1       6.140   3.254  15.760  0.00  0.00    +0.000 C 
ATOM      8  C   UNL     1       5.451   5.662  15.633  0.00  0.00    +0.000 C 
ATOM      9  C   UNL     1       4.833   6.903  16.277  0.00  0.00    +0.000 C 
ATOM     10  C   UNL     1       3.733   6.694  17.318  0.00  0.00    +0.000 C 
ATOM     11  C   UNL     1       3.726   5.392  18.172  0.00  0.00    +0.000 C 
ATOM     12  C   UNL     1       4.529   5.567  19.497  0.00  0.00    +0.000 C 
ATOM     13  C   UNL     1       2.209   5.116  18.614  0.00  0.00    +0.000 C 
ENDROOT
BRANCH   8  14
ATOM     14  O   UNL     1       6.650   6.048  14.955  0.00  0.00    +0.000 OA
ATOM     15  H   UNL     1       7.058   6.790  15.434  0.00  0.00    +0.000 HD
ENDBRANCH   8  14
BRANCH  13  16
ATOM     16  C   UNL     1       1.697   6.265  19.476  0.00  0.00    +0.000 C 
ATOM     17  C   UNL     1       2.062   7.557  19.518  0.00  0.00    +0.000 C 
BRANCH  17  18
ATOM     18  C   UNL     1       1.488   8.469  20.484  0.00  0.00    +0.000 C 
ATOM     19  C   UNL     1       1.489   8.371  21.815  0.00  0.00    +0.000 C 
ATOM     20  C   UNL     1       0.779   9.496  22.439  0.00  0.00    +0.000 C 
ATOM     21  O   UNL     1       0.411  10.335  21.347  0.00  0.00    +0.000 OA
ATOM     22  C   UNL     1       0.822   9.749  20.177  0.00  0.00    +0.000 C 
ATOM     23  O   UNL     1       0.668  10.225  19.071  0.00  0.00    +0.000 OA
ENDBRANCH  17  18
ENDBRANCH  13  16
BRANCH   6  24
ATOM     24  C   UNL     1       6.919   4.825  17.531  0.00  0.00    +0.000 C 
BRANCH  24  25
ATOM     25  N   UNL     1       7.682   5.989  17.076  0.00  0.00    +0.000 NA
ATOM     26  H   UNL     1       7.205   6.407  16.277  0.00  0.00    +0.000 HD
BRANCH  25  27
ATOM     27  C   UNL     1       7.846   7.014  18.116  0.00  0.00    +0.000 C 
BRANCH  27  28
ATOM     28  C   UNL     1       7.498   8.387  17.519  0.00  0.00    +0.000 C 
BRANCH  28  29
ATOM     29  C   UNL     1       8.283   9.528  18.117  0.00  0.00    +0.000 A 
ATOM     30  C   UNL     1       9.050   9.338  19.274  0.00  0.00    +0.000 A 
ATOM     31  C   UNL     1       9.811  10.384  19.801  0.00  0.00    +0.000 A 
ATOM     32  C   UNL     1       9.806  11.632  19.181  0.00  0.00    +0.000 A 
ATOM     33  C   UNL     1       9.037  11.836  18.036  0.00  0.00    +0.000 A 
ATOM     34  C   UNL     1       8.278  10.791  17.508  0.00  0.00    +0.000 A 
ENDBRANCH  28  29
ENDBRANCH  27  28
ENDBRANCH  25  27
ENDBRANCH  24  25
ENDBRANCH   6  24
TORSDOF 8
ENDMDL
MODEL 2
REMARK VINA RESULT:      -8.3      0.804      1.444
REMARK  Name = 
REMARK  10 active torsions:
REMARK  status: ('A' for Active; 'I' for Inactive)
REMARK    1  A    between atoms: C_6  and  C_7
REMARK    2  A    between atoms: C_6  and  C_8
REMARK    3  A    between atoms: C_8  and  N_9
REMARK    4  A    between atoms: N_9  and  C_10
REMARK    5  A    between atoms: C_10  and  C_11
REMARK    6  A    between atoms: C_11  and  C_12
REMARK    7  A    between atoms: C_18  and  O_19
REMARK    8  A    between atoms: C_22  and  C_23
REMARK    9  A    between atoms: C_24  and  C_25
REMARK   10  A    between atoms: C_26  and  C_27
REMARK                            x       y       z     vdW  Elec       q    Type
REMARK                         _______ _______ _______ _____ _____    ______ ____
ROOT
ATOM      1  C   UNL     1       1.975   4.762  20.861  0.00  0.00    +0.000 C 
ATOM      2  C   UNL     1       2.308   4.694  19.559  0.00  0.00    +0.000 C 
ATOM      3  C   UNL     1       2.688   3.369  18.942  0.00  0.00    +0.000 C 
ATOM      4  C   UNL     1       4.063   3.379  18.254  0.00  0.00    +0.000 C 
ATOM      5  C   UNL     1       4.273   4.585  17.313  0.00  0.00    +0.000 C 
ATOM      6  C   UNL     1       5.644   4.607  16.485  0.00  0.00    +0.000 C 
ATOM      7  C   UNL     1       5.909   3.227  15.817  0.00  0.00    +0.000 C 
ATOM      8  C   UNL     1       5.411   5.639  15.340  0.00  0.00    +0.000 C 
ATOM      9  C   UNL     1       4.958   7.020  15.811  0.00  0.00    +0.000 C 
ATOM     10  C   UNL     1       3.944   7.087  16.953  0.00  0.00    +0.000 C 
ATOM     11  C   UNL     1       3.907   5.946  18.012  0.00  0.00    +0.000 C 
ATOM     12  C   UNL     1       4.839   6.254  19.223  0.00  0.00    +0.000 C 
ATOM     13  C   UNL     1       2.420   5.891  18.608  0.00  0.00    +0.000 C 
ENDROOT
BRANCH   8  14
ATOM     14  O   UNL     1       6.572   5.794  14.517  0.00  0.00    +0.000 OA
ATOM     15  H   UNL     1       6.728   6.743  14.371  0.00  0.00    +0.000 HD
ENDBRANCH   8  14
BRANCH  13  16
ATOM     16  C   UNL     1       2.083   7.208  19.300  0.00  0.00    +0.000 C 
ATOM     17  C   UNL     1       1.295   8.224  18.912  0.00  0.00    +0.000 C 
BRANCH  17  18
ATOM     18  C   UNL     1       1.181   9.431  19.703  0.00  0.00    +0.000 C 
ATOM     19  C   UNL     1       1.309  10.697  19.301  0.00  0.00    +0.000 C 
ATOM     20  C   UNL     1       1.142  11.637  20.417  0.00  0.00    +0.000 C 
ATOM     21  O   UNL     1       0.819  10.810  21.534  0.00  0.00    +0.000 OA
ATOM     22  C   UNL     1       0.834   9.498  21.135  0.00  0.00    +0.000 C 
ATOM     23  O   UNL     1       0.585   8.551  21.854  0.00  0.00    +0.000 OA
ENDBRANCH  17  18
ENDBRANCH  13  16
BRANCH   6  24
ATOM     24  C   UNL     1       6.972   4.980  17.234  0.00  0.00    +0.000 C 
BRANCH  24  25
ATOM     25  N   UNL     1       7.572   6.236  16.779  0.00  0.00    +0.000 NA
ATOM     26  H   UNL     1       6.922   6.706  16.148  0.00  0.00    +0.000 HD
BRANCH  25  27
ATOM     27  C   UNL     1       7.901   7.151  17.881  0.00  0.00    +0.000 C 
BRANCH  27  28
ATOM     28  C   UNL     1       7.384   8.556  17.532  0.00  0.00    +0.000 C 
BRANCH  28  29
ATOM     29  C   UNL     1       8.242   9.672  18.073  0.00  0.00    +0.000 A 
ATOM     30  C   UNL     1       8.137  10.970  17.555  0.00  0.00    +0.000 A 
ATOM     31  C   UNL     1       8.901  12.011  18.088  0.00  0.00    +0.000 A 
ATOM     32  C   UNL     1       9.782  11.763  19.139  0.00  0.00    +0.000 A 
ATOM     33  C   UNL     1       9.903  10.474  19.655  0.00  0.00    +0.000 A 
ATOM     34  C   UNL     1       9.140   9.433  19.124  0.00  0.00    +0.000 A 
ENDBRANCH  28  29
ENDBRANCH  27  28
ENDBRANCH  25  27
ENDBRANCH  24  25
ENDBRANCH   6  24
TORSDOF 8
ENDMDL
MODEL 3
REMARK VINA RESULT:      -8.0      1.273      1.729
REMARK  Name = 
REMARK  10 active torsions:
REMARK  status: ('A' for Active; 'I' for Inactive)
REMARK    1  A    between atoms: C_6  and  C_7
REMARK    2  A    between atoms: C_6  and  C_8
REMARK    3  A    between atoms: C_8  and  N_9
REMARK    4  A    between atoms: N_9  and  C_10
REMARK    5  A    between atoms: C_10  and  C_11
REMARK    6  A    between atoms: C_11  and  C_12
REMARK    7  A    between atoms: C_18  and  O_19
REMARK    8  A    between atoms: C_22  and  C_23
REMARK    9  A    between atoms: C_24  and  C_25
REMARK   10  A    between atoms: C_26  and  C_27
REMARK                            x       y       z     vdW  Elec       q    Type
REMARK                         _______ _______ _______ _____ _____    ______ ____
ROOT
ATOM      1  C   UNL     1       1.701   5.894  20.407  0.00  0.00    +0.000 C 
ATOM      2  C   UNL     1       2.126   5.561  19.174  0.00  0.00    +0.000 C 
ATOM      3  C   UNL     1       2.442   4.121  18.846  0.00  0.00    +0.000 C 
ATOM      4  C   UNL     1       3.862   3.909  18.296  0.00  0.00    +0.000 C 
ATOM      5  C   UNL     1       4.243   4.900  17.174  0.00  0.00    +0.000 C 
ATOM      6  C   UNL     1       5.671   4.674  16.485  0.00  0.00    +0.000 C 
ATOM      7  C   UNL     1       5.872   3.178  16.106  0.00  0.00    +0.000 C 
ATOM      8  C   UNL     1       5.613   5.485  15.155  0.00  0.00    +0.000 C 
ATOM      9  C   UNL     1       5.241   6.958  15.324  0.00  0.00    +0.000 C 
ATOM     10  C   UNL     1       4.151   7.306  16.337  0.00  0.00    +0.000 C 
ATOM     11  C   UNL     1       3.938   6.390  17.578  0.00  0.00    +0.000 C 
ATOM     12  C   UNL     1       4.796   6.856  18.794  0.00  0.00    +0.000 C 
ATOM     13  C   UNL     1       2.410   6.548  18.036  0.00  0.00    +0.000 C 
ENDROOT
BRANCH   8  14
ATOM     14  O   UNL     1       6.843   5.405  14.427  0.00  0.00    +0.000 OA
ATOM     15  H   UNL     1       7.576   5.634  15.023  0.00  0.00    +0.000 HD
ENDBRANCH   8  14
BRANCH  13  16
ATOM     16  C   UNL     1       2.131   7.990  18.444  0.00  0.00    +0.000 C 
ATOM     17  C   UNL     1       1.279   8.894  17.933  0.00  0.00    +0.000 C 
BRANCH  17  18
ATOM     18  C   UNL     1       1.235  10.252  18.434  0.00  0.00    +0.000 C 
ATOM     19  C   UNL     1       2.079  11.255  18.179  0.00  0.00    +0.000 C 
ATOM     20  C   UNL     1       1.699  12.476  18.901  0.00  0.00    +0.000 C 
ATOM     21  O   UNL     1       0.484  12.134  19.566  0.00  0.00    +0.000 OA
ATOM     22  C   UNL     1       0.188  10.821  19.303  0.00  0.00    +0.000 C 
ATOM     23  O   UNL     1      -0.793  10.235  19.715  0.00  0.00    +0.000 OA
ENDBRANCH  17  18
ENDBRANCH  13  16
BRANCH   6  24
ATOM     24  C   UNL     1       6.964   5.092  17.271  0.00  0.00    +0.000 C 
BRANCH  24  25
ATOM     25  N   UNL     1       7.605   6.300  16.751  0.00  0.00    +0.000 NA
ATOM     26  H   UNL     1       6.957   6.777  16.124  0.00  0.00    +0.000 HD
BRANCH  25  27
ATOM     27  C   UNL     1       8.013   7.238  17.806  0.00  0.00    +0.000 C 
BRANCH  27  28
ATOM     28  C   UNL     1       7.561   8.654  17.415  0.00  0.00    +0.000 C 
BRANCH  28  29
ATOM     29  C   UNL     1       8.334   9.752  18.103  0.00  0.00    +0.000 A 
ATOM     30  C   UNL     1       9.168   9.464  19.191  0.00  0.00    +0.000 A 
ATOM     31  C   UNL     1       9.917  10.475  19.798  0.00  0.00    +0.000 A 
ATOM     32  C   UNL     1       9.832  11.784  19.328  0.00  0.00    +0.000 A 
ATOM     33  C   UNL     1       8.996  12.084  18.254  0.00  0.00    +0.000 A 
ATOM     34  C   UNL     1       8.249  11.074  17.646  0.00  0.00    +0.000 A 
ENDBRANCH  28  29
ENDBRANCH  27  28
ENDBRANCH  25  27
ENDBRANCH  24  25
ENDBRANCH   6  24
TORSDOF 8
ENDMDL
MODEL 4
REMARK VINA RESULT:      -8.0      1.121      1.486
REMARK  Name = 
REMARK  10 active torsions:
REMARK  status: ('A' for Active; 'I' for Inactive)
REMARK    1  A    between atoms: C_6  and  C_7
REMARK    2  A    between atoms: C_6  and  C_8
REMARK    3  A    between atoms: C_8  and  N_9
REMARK    4  A    between atoms: N_9  and  C_10
REMARK    5  A    between atoms: C_10  and  C_11
REMARK    6  A    between atoms: C_11  and  C_12
REMARK    7  A    between atoms: C_18  and  O_19
REMARK    8  A    between atoms: C_22  and  C_23
REMARK    9  A    between atoms: C_24  and  C_25
REMARK   10  A    between atoms: C_26  and  C_27
REMARK                            x       y       z     vdW  Elec       q    Type
REMARK                         _______ _______ _______ _____ _____    ______ ____
ROOT
ATOM      1  C   UNL     1       2.002   5.217  20.737  0.00  0.00    +0.000 C 
ATOM      2  C   UNL     1       2.366   5.045  19.452  0.00  0.00    +0.000 C 
ATOM      3  C   UNL     1       2.740   3.671  18.948  0.00  0.00    +0.000 C 
ATOM      4  C   UNL     1       4.132   3.609  18.298  0.00  0.00    +0.000 C 
ATOM      5  C   UNL     1       4.384   4.736  17.273  0.00  0.00    +0.000 C 
ATOM      6  C   UNL     1       5.776   4.675  16.482  0.00  0.00    +0.000 C 
ATOM      7  C   UNL     1       6.035   3.244  15.928  0.00  0.00    +0.000 C 
ATOM      8  C   UNL     1       5.588   5.619  15.256  0.00  0.00    +0.000 C 
ATOM      9  C   UNL     1       5.146   7.039  15.608  0.00  0.00    +0.000 C 
ATOM     10  C   UNL     1       4.105   7.208  16.715  0.00  0.00    +0.000 C 
ATOM     11  C   UNL     1       4.024   6.152  17.857  0.00  0.00    +0.000 C 
ATOM     12  C   UNL     1       4.930   6.538  19.065  0.00  0.00    +0.000 C 
ATOM     13  C   UNL     1       2.521   6.164  18.416  0.00  0.00    +0.000 C 
ENDROOT
BRANCH   8  14
ATOM     14  O   UNL     1       6.772   5.694  14.454  0.00  0.00    +0.000 OA
ATOM     15  H   UNL     1       7.534   5.421  14.993  0.00  0.00    +0.000 HD
ENDBRANCH   8  14
BRANCH  13  16
ATOM     16  C   UNL     1       2.189   7.534  18.997  0.00  0.00    +0.000 C 
ATOM     17  C   UNL     1       1.202   8.395  18.698  0.00  0.00    +0.000 C 
BRANCH  17  18
ATOM     18  C   UNL     1       1.122   9.695  19.331  0.00  0.00    +0.000 C 
ATOM     19  C   UNL     1       0.506  10.023  20.469  0.00  0.00    +0.000 C 
ATOM     20  C   UNL     1       0.639  11.457  20.759  0.00  0.00    +0.000 C 
ATOM     21  O   UNL     1       1.471  11.957  19.714  0.00  0.00    +0.000 OA
ATOM     22  C   UNL     1       1.771  10.930  18.855  0.00  0.00    +0.000 C 
ATOM     23  O   UNL     1       2.474  11.033  17.870  0.00  0.00    +0.000 OA
ENDBRANCH  17  18
ENDBRANCH  13  16
BRANCH   6  24
ATOM     24  C   UNL     1       7.091   5.086  17.234  0.00  0.00    +0.000 C 
BRANCH  24  25
ATOM     25  N   UNL     1       7.613   6.395  16.837  0.00  0.00    +0.000 NA
ATOM     26  H   UNL     1       6.907   6.879  16.283  0.00  0.00    +0.000 HD
BRANCH  25  27
ATOM     27  C   UNL     1       7.975   7.243  17.982  0.00  0.00    +0.000 C 
BRANCH  27  28
ATOM     28  C   UNL     1       7.691   8.710  17.623  0.00  0.00    +0.000 C 
BRANCH  28  29
ATOM     29  C   UNL     1       8.656   9.688  18.247  0.00  0.00    +0.000 A 
ATOM     30  C   UNL     1       9.354  10.608  17.454  0.00  0.00    +0.000 A 
ATOM     31  C   UNL     1      10.212  11.541  18.040  0.00  0.00    +0.000 A 
ATOM     32  C   UNL     1      10.387  11.558  19.422  0.00  0.00    +0.000 A 
ATOM     33  C   UNL     1       9.707  10.639  20.220  0.00  0.00    +0.000 A 
ATOM     34  C   UNL     1       8.848   9.707  19.636  0.00  0.00    +0.000 A 
ENDBRANCH  28  29
ENDBRANCH  27  28
ENDBRANCH  25  27
ENDBRANCH  24  25
ENDBRANCH   6  24
TORSDOF 8
ENDMDL
MODEL 5
REMARK VINA RESULT:      -7.9      4.188      9.520
REMARK  Name = 
REMARK  10 active torsions:
REMARK  status: ('A' for Active; 'I' for Inactive)
REMARK    1  A    between atoms: C_6  and  C_7
REMARK    2  A    between atoms: C_6  and  C_8
REMARK    3  A    between atoms: C_8  and  N_9
REMARK    4  A    between atoms: N_9  and  C_10
REMARK    5  A    between atoms: C_10  and  C_11
REMARK    6  A    between atoms: C_11  and  C_12
REMARK    7  A    between atoms: C_18  and  O_19
REMARK    8  A    between atoms: C_22  and  C_23
REMARK    9  A    between atoms: C_24  and  C_25
REMARK   10  A    between atoms: C_26  and  C_27
REMARK                            x       y       z     vdW  Elec       q    Type
REMARK                         _______ _______ _______ _____ _____    ______ ____
ROOT
ATOM      1  C   UNL     1       2.041   4.890  19.926  0.00  0.00    +0.000 C 
ATOM      2  C   UNL     1       2.133   6.220  20.113  0.00  0.00    +0.000 C 
ATOM      3  C   UNL     1       1.329   6.889  21.202  0.00  0.00    +0.000 C 
ATOM      4  C   UNL     1       0.441   8.039  20.698  0.00  0.00    +0.000 C 
ATOM      5  C   UNL     1       1.182   9.030  19.775  0.00  0.00    +0.000 C 
ATOM      6  C   UNL     1       0.345  10.309  19.293  0.00  0.00    +0.000 C 
ATOM      7  C   UNL     1      -0.379  10.981  20.495  0.00  0.00    +0.000 C 
ATOM      8  C   UNL     1       1.412  11.319  18.772  0.00  0.00    +0.000 C 
ATOM      9  C   UNL     1       2.348  10.760  17.700  0.00  0.00    +0.000 C 
ATOM     10  C   UNL     1       2.849   9.326  17.869  0.00  0.00    +0.000 C 
ATOM     11  C   UNL     1       1.968   8.292  18.630  0.00  0.00    +0.000 C 
ATOM     12  C   UNL     1       1.015   7.525  17.663  0.00  0.00    +0.000 C 
ATOM     13  C   UNL     1       2.950   7.184  19.245  0.00  0.00    +0.000 C 
ENDROOT
BRANCH   8  14
ATOM     14  O   UNL     1       0.812  12.520  18.274  0.00  0.00    +0.000 OA
ATOM     15  H   UNL     1       0.300  12.306  17.475  0.00  0.00    +0.000 HD
ENDBRANCH   8  14
BRANCH  13  16
ATOM     16  C   UNL     1       3.691   6.460  18.126  0.00  0.00    +0.000 C 
ATOM     17  C   UNL     1       4.936   5.956  18.085  0.00  0.00    +0.000 C 
BRANCH  17  18
ATOM     18  C   UNL     1       5.470   5.372  16.873  0.00  0.00    +0.000 C 
ATOM     19  C   UNL     1       4.917   4.441  16.091  0.00  0.00    +0.000 C 
ATOM     20  C   UNL     1       5.791   4.098  14.961  0.00  0.00    +0.000 C 
ATOM     21  O   UNL     1       6.906   4.977  15.093  0.00  0.00    +0.000 OA
ATOM     22  C   UNL     1       6.738   5.743  16.218  0.00  0.00    +0.000 C 
ATOM     23  O   UNL     1       7.512   6.599  16.597  0.00  0.00    +0.000 OA
ENDBRANCH  17  18
ENDBRANCH  13  16
BRANCH   6  24
ATOM     24  C   UNL     1      -0.750  10.121  18.185  0.00  0.00    +0.000 C 
BRANCH  24  25
ATOM     25  N   UNL     1      -1.963  10.909  18.415  0.00  0.00    +0.000 NA
ATOM     26  H   UNL     1      -1.798  11.868  18.111  0.00  0.00    +0.000 HD
BRANCH  25  27
ATOM     27  C   UNL     1      -3.136  10.384  17.703  0.00  0.00    +0.000 C 
BRANCH  27  28
ATOM     28  C   UNL     1      -4.175  11.508  17.561  0.00  0.00    +0.000 C 
BRANCH  28  29
ATOM     29  C   UNL     1      -5.189  11.544  18.677  0.00  0.00    +0.000 A 
ATOM     30  C   UNL     1      -6.275  10.659  18.684  0.00  0.00    +0.000 A 
ATOM     31  C   UNL     1      -7.188  10.665  19.742  0.00  0.00    +0.000 A 
ATOM     32  C   UNL     1      -7.029  11.561  20.796  0.00  0.00    +0.000 A 
ATOM     33  C   UNL     1      -5.959  12.455  20.794  0.00  0.00    +0.000 A 
ATOM     34  C   UNL     1      -5.045  12.448  19.739  0.00  0.00    +0.000 A 
ENDBRANCH  28  29
ENDBRANCH  27  28
ENDBRANCH  25  27
ENDBRANCH  24  25
ENDBRANCH   6  24
TORSDOF 8
ENDMDL
MODEL 6
REMARK VINA RESULT:      -7.7      6.191     10.694
REMARK  Name = 
REMARK  10 active torsions:
REMARK  status: ('A' for Active; 'I' for Inactive)
REMARK    1  A    between atoms: C_6  and  C_7
REMARK    2  A    between atoms: C_6  and  C_8
REMARK    3  A    between atoms: C_8  and  N_9
REMARK    4  A    between atoms: N_9  and  C_10
REMARK    5  A    between atoms: C_10  and  C_11
REMARK    6  A    between atoms: C_11  and  C_12
REMARK    7  A    between atoms: C_18  and  O_19
REMARK    8  A    between atoms: C_22  and  C_23
REMARK    9  A    between atoms: C_24  and  C_25
REMARK   10  A    between atoms: C_26  and  C_27
REMARK                            x       y       z     vdW  Elec       q    Type
REMARK                         _______ _______ _______ _____ _____    ______ ____
ROOT
ATOM      1  C   UNL     1       2.054  17.379  19.559  0.00  0.00    +0.000 C 
ATOM      2  C   UNL     1       1.503  16.301  18.972  0.00  0.00    +0.000 C 
ATOM      3  C   UNL     1       0.001  16.147  18.929  0.00  0.00    +0.000 C 
ATOM      4  C   UNL     1      -0.502  14.824  19.529  0.00  0.00    +0.000 C 
ATOM      5  C   UNL     1       0.264  13.584  19.018  0.00  0.00    +0.000 C 
ATOM      6  C   UNL     1      -0.273  12.162  19.523  0.00  0.00    +0.000 C 
ATOM      7  C   UNL     1      -1.817  12.064  19.362  0.00  0.00    +0.000 C 
ATOM      8  C   UNL     1       0.361  11.120  18.553  0.00  0.00    +0.000 C 
ATOM      9  C   UNL     1       1.884  11.196  18.443  0.00  0.00    +0.000 C 
ATOM     10  C   UNL     1       2.527  12.582  18.408  0.00  0.00    +0.000 C 
ATOM     11  C   UNL     1       1.822  13.772  19.124  0.00  0.00    +0.000 C 
ATOM     12  C   UNL     1       2.297  13.920  20.602  0.00  0.00    +0.000 C 
ATOM     13  C   UNL     1       2.279  15.118  18.381  0.00  0.00    +0.000 C 
ENDROOT
BRANCH   8  14
ATOM     14  O   UNL     1      -0.006   9.779  18.895  0.00  0.00    +0.000 OA
ATOM     15  H   UNL     1       0.020   9.232  18.091  0.00  0.00    +0.000 HD
ENDBRANCH   8  14
BRANCH  13  16
ATOM     16  C   UNL     1       3.787  15.301  18.507  0.00  0.00    +0.000 C 
ATOM     17  C   UNL     1       4.778  15.013  17.647  0.00  0.00    +0.000 C 
BRANCH  17  18
ATOM     18  C   UNL     1       6.167  15.199  18.011  0.00  0.00    +0.000 C 
ATOM     19  C   UNL     1       6.719  16.222  18.668  0.00  0.00    +0.000 C 
ATOM     20  C   UNL     1       8.169  16.043  18.822  0.00  0.00    +0.000 C 
ATOM     21  O   UNL     1       8.433  14.761  18.255  0.00  0.00    +0.000 OA
ATOM     22  C   UNL     1       7.261  14.240  17.769  0.00  0.00    +0.000 C 
ATOM     23  O   UNL     1       7.153  13.153  17.238  0.00  0.00    +0.000 OA
ENDBRANCH  17  18
ENDBRANCH  13  16
BRANCH   6  24
ATOM     24  C   UNL     1       0.031  11.722  20.999  0.00  0.00    +0.000 C 
BRANCH  24  25
ATOM     25  N   UNL     1      -1.007  10.872  21.586  0.00  0.00    +0.000 NA
ATOM     26  H   UNL     1      -0.784   9.896  21.396  0.00  0.00    +0.000 HD
BRANCH  25  27
ATOM     27  C   UNL     1      -1.144  11.049  23.039  0.00  0.00    +0.000 C 
BRANCH  27  28
ATOM     28  C   UNL     1      -2.428  11.845  23.324  0.00  0.00    +0.000 C 
BRANCH  28  29
ATOM     29  C   UNL     1      -2.307  13.320  23.030  0.00  0.00    +0.000 A 
ATOM     30  C   UNL     1      -3.269  13.973  22.249  0.00  0.00    +0.000 A 
ATOM     31  C   UNL     1      -3.179  15.348  22.016  0.00  0.00    +0.000 A 
ATOM     32  C   UNL     1      -2.122  16.079  22.554  0.00  0.00    +0.000 A 
ATOM     33  C   UNL     1      -1.153  15.438  23.323  0.00  0.00    +0.000 A 
ATOM     34  C   UNL     1      -1.243  14.065  23.558  0.00  0.00    +0.000 A 
ENDBRANCH  28  29
ENDBRANCH  27  28
ENDBRANCH  25  27
ENDBRANCH  24  25
ENDBRANCH   6  24
TORSDOF 8
ENDMDL
MODEL 7
REMARK VINA RESULT:      -7.7      4.513      9.955
REMARK  Name = 
REMARK  10 active torsions:
REMARK  status: ('A' for Active; 'I' for Inactive)
REMARK    1  A    between atoms: C_6  and  C_7
REMARK    2  A    between atoms: C_6  and  C_8
REMARK    3  A    between atoms: C_8  and  N_9
REMARK    4  A    between atoms: N_9  and  C_10
REMARK    5  A    between atoms: C_10  and  C_11
REMARK    6  A    between atoms: C_11  and  C_12
REMARK    7  A    between atoms: C_18  and  O_19
REMARK    8  A    between atoms: C_22  and  C_23
REMARK    9  A    between atoms: C_24  and  C_25
REMARK   10  A    between atoms: C_26  and  C_27
REMARK                            x       y       z     vdW  Elec       q    Type
REMARK                         _______ _______ _______ _____ _____    ______ ____
ROOT
ATOM      1  C   UNL     1      -0.298   7.840  21.956  0.00  0.00    +0.000 C 
ATOM      2  C   UNL     1       0.344   9.016  21.826  0.00  0.00    +0.000 C 
ATOM      3  C   UNL     1       0.000  10.172  22.734  0.00  0.00    +0.000 C 
ATOM      4  C   UNL     1      -0.393  11.454  21.982  0.00  0.00    +0.000 C 
ATOM      5  C   UNL     1       0.584  11.827  20.846  0.00  0.00    +0.000 C 
ATOM      6  C   UNL     1       0.292  13.206  20.085  0.00  0.00    +0.000 C 
ATOM      7  C   UNL     1       0.033  14.355  21.102  0.00  0.00    +0.000 C 
ATOM      8  C   UNL     1       1.615  13.543  19.332  0.00  0.00    +0.000 C 
ATOM      9  C   UNL     1       2.125  12.432  18.414  0.00  0.00    +0.000 C 
ATOM     10  C   UNL     1       2.017  10.991  18.910  0.00  0.00    +0.000 C 
ATOM     11  C   UNL     1       0.877  10.605  19.900  0.00  0.00    +0.000 C 
ATOM     12  C   UNL     1      -0.401  10.124  19.148  0.00  0.00    +0.000 C 
ATOM     13  C   UNL     1       1.385   9.343  20.749  0.00  0.00    +0.000 C 
ENDROOT
BRANCH   8  14
ATOM     14  O   UNL     1       1.504  14.750  18.572  0.00  0.00    +0.000 OA
ATOM     15  H   UNL     1       0.962  14.576  17.783  0.00  0.00    +0.000 HD
ENDBRANCH   8  14
BRANCH  13  16
ATOM     16  C   UNL     1       1.647   8.160  19.825  0.00  0.00    +0.000 C 
ATOM     17  C   UNL     1       2.360   7.038  20.021  0.00  0.00    +0.000 C 
BRANCH  17  18
ATOM     18  C   UNL     1       2.543   6.069  18.961  0.00  0.00    +0.000 C 
ATOM     19  C   UNL     1       1.789   5.005  18.675  0.00  0.00    +0.000 C 
ATOM     20  C   UNL     1       2.325   4.257  17.529  0.00  0.00    +0.000 C 
ATOM     21  O   UNL     1       3.446   5.025  17.095  0.00  0.00    +0.000 OA
ATOM     22  C   UNL     1       3.594   6.105  17.927  0.00  0.00    +0.000 C 
ATOM     23  O   UNL     1       4.452   6.957  17.811  0.00  0.00    +0.000 OA
ENDBRANCH  17  18
ENDBRANCH  13  16
BRANCH   6  24
ATOM     24  C   UNL     1      -0.897  13.266  19.062  0.00  0.00    +0.000 C 
BRANCH  24  25
ATOM     25  N   UNL     1      -2.178  13.634  19.668  0.00  0.00    +0.000 NA
ATOM     26  H   UNL     1      -2.666  14.279  19.047  0.00  0.00    +0.000 HD
BRANCH  25  27
ATOM     27  C   UNL     1      -3.049  12.477  19.923  0.00  0.00    +0.000 C 
BRANCH  27  28
ATOM     28  C   UNL     1      -4.421  12.984  20.393  0.00  0.00    +0.000 C 
BRANCH  28  29
ATOM     29  C   UNL     1      -4.658  12.812  21.874  0.00  0.00    +0.000 A 
ATOM     30  C   UNL     1      -3.589  12.564  22.744  0.00  0.00    +0.000 A 
ATOM     31  C   UNL     1      -3.806  12.450  24.119  0.00  0.00    +0.000 A 
ATOM     32  C   UNL     1      -5.094  12.574  24.636  0.00  0.00    +0.000 A 
ATOM     33  C   UNL     1      -6.167  12.809  23.778  0.00  0.00    +0.000 A 
ATOM     34  C   UNL     1      -5.951  12.925  22.404  0.00  0.00    +0.000 A 
ENDBRANCH  28  29
ENDBRANCH  27  28
ENDBRANCH  25  27
ENDBRANCH  24  25
ENDBRANCH   6  24
TORSDOF 8
ENDMDL
MODEL 8
REMARK VINA RESULT:      -7.7      7.954     12.748
REMARK  Name = 
REMARK  10 active torsions:
REMARK  status: ('A' for Active; 'I' for Inactive)
REMARK    1  A    between atoms: C_6  and  C_7
REMARK    2  A    between atoms: C_6  and  C_8
REMARK    3  A    between atoms: C_8  and  N_9
REMARK    4  A    between atoms: N_9  and  C_10
REMARK    5  A    between atoms: C_10  and  C_11
REMARK    6  A    between atoms: C_11  and  C_12
REMARK    7  A    between atoms: C_18  and  O_19
REMARK    8  A    between atoms: C_22  and  C_23
REMARK    9  A    between atoms: C_24  and  C_25
REMARK   10  A    between atoms: C_26  and  C_27
REMARK                            x       y       z     vdW  Elec       q    Type
REMARK                         _______ _______ _______ _____ _____    ______ ____
ROOT
ATOM      1  C   UNL     1       0.445  11.301  20.638  0.00  0.00    +0.000 C 
ATOM      2  C   UNL     1      -0.119  11.884  21.712  0.00  0.00    +0.000 C 
ATOM      3  C   UNL     1      -0.747  11.036  22.793  0.00  0.00    +0.000 C 
ATOM      4  C   UNL     1      -2.213  11.394  23.087  0.00  0.00    +0.000 C 
ATOM      5  C   UNL     1      -2.452  12.909  23.270  0.00  0.00    +0.000 C 
ATOM      6  C   UNL     1      -3.938  13.346  23.679  0.00  0.00    +0.000 C 
ATOM      7  C   UNL     1      -4.468  12.474  24.854  0.00  0.00    +0.000 C 
ATOM      8  C   UNL     1      -3.800  14.805  24.211  0.00  0.00    +0.000 C 
ATOM      9  C   UNL     1      -3.121  15.774  23.243  0.00  0.00    +0.000 C 
ATOM     10  C   UNL     1      -1.919  15.263  22.449  0.00  0.00    +0.000 C 
ATOM     11  C   UNL     1      -1.821  13.749  22.099  0.00  0.00    +0.000 C 
ATOM     12  C   UNL     1      -2.483  13.430  20.724  0.00  0.00    +0.000 C 
ATOM     13  C   UNL     1      -0.266  13.395  21.927  0.00  0.00    +0.000 C 
ENDROOT
BRANCH   8  14
ATOM     14  O   UNL     1      -5.064  15.355  24.596  0.00  0.00    +0.000 OA
ATOM     15  H   UNL     1      -5.084  15.448  25.565  0.00  0.00    +0.000 HD
ENDBRANCH   8  14
BRANCH  13  16
ATOM     16  C   UNL     1       0.331  14.199  20.777  0.00  0.00    +0.000 C 
ATOM     17  C   UNL     1       1.450  14.941  20.717  0.00  0.00    +0.000 C 
BRANCH  17  18
ATOM     18  C   UNL     1       1.788  15.695  19.528  0.00  0.00    +0.000 C 
ATOM     19  C   UNL     1       1.244  16.832  19.089  0.00  0.00    +0.000 C 
ATOM     20  C   UNL     1       1.855  17.268  17.826  0.00  0.00    +0.000 C 
ATOM     21  O   UNL     1       2.886  16.314  17.580  0.00  0.00    +0.000 OA
ATOM     22  C   UNL     1       2.867  15.372  18.576  0.00  0.00    +0.000 C 
ATOM     23  O   UNL     1       3.634  14.434  18.658  0.00  0.00    +0.000 OA
ENDBRANCH  17  18
ENDBRANCH  13  16
BRANCH   6  24
ATOM     24  C   UNL     1      -5.062  13.316  22.584  0.00  0.00    +0.000 C 
BRANCH  24  25
ATOM     25  N   UNL     1      -6.036  12.238  22.769  0.00  0.00    +0.000 NA
ATOM     26  H   UNL     1      -6.241  12.142  23.763  0.00  0.00    +0.000 HD
BRANCH  25  27
ATOM     27  C   UNL     1      -7.295  12.468  22.048  0.00  0.00    +0.000 C 
BRANCH  27  28
ATOM     28  C   UNL     1      -7.464  11.375  20.981  0.00  0.00    +0.000 C 
BRANCH  28  29
ATOM     29  C   UNL     1      -6.968  11.777  19.614  0.00  0.00    +0.000 A 
ATOM     30  C   UNL     1      -7.282  13.035  19.081  0.00  0.00    +0.000 A 
ATOM     31  C   UNL     1      -6.785  13.421  17.835  0.00  0.00    +0.000 A 
ATOM     32  C   UNL     1      -5.976  12.553  17.105  0.00  0.00    +0.000 A 
ATOM     33  C   UNL     1      -5.666  11.294  17.620  0.00  0.00    +0.000 A 
ATOM     34  C   UNL     1      -6.162  10.907  18.866  0.00  0.00    +0.000 A 
ENDBRANCH  28  29
ENDBRANCH  27  28
ENDBRANCH  25  27
ENDBRANCH  24  25
ENDBRANCH   6  24
TORSDOF 8
ENDMDL
MODEL 9
REMARK VINA RESULT:      -7.6      4.774      9.973
REMARK  Name = 
REMARK  10 active torsions:
REMARK  status: ('A' for Active; 'I' for Inactive)
REMARK    1  A    between atoms: C_6  and  C_7
REMARK    2  A    between atoms: C_6  and  C_8
REMARK    3  A    between atoms: C_8  and  N_9
REMARK    4  A    between atoms: N_9  and  C_10
REMARK    5  A    between atoms: C_10  and  C_11
REMARK    6  A    between atoms: C_11  and  C_12
REMARK    7  A    between atoms: C_18  and  O_19
REMARK    8  A    between atoms: C_22  and  C_23
REMARK    9  A    between atoms: C_24  and  C_25
REMARK   10  A    between atoms: C_26  and  C_27
REMARK                            x       y       z     vdW  Elec       q    Type
REMARK                         _______ _______ _______ _____ _____    ______ ____
ROOT
ATOM      1  C   UNL     1      -0.531   8.324  22.556  0.00  0.00    +0.000 C 
ATOM      2  C   UNL     1      -0.191   9.601  22.296  0.00  0.00    +0.000 C 
ATOM      3  C   UNL     1      -0.764  10.722  23.130  0.00  0.00    +0.000 C 
ATOM      4  C   UNL     1      -1.479  11.804  22.304  0.00  0.00    +0.000 C 
ATOM      5  C   UNL     1      -0.663  12.290  21.086  0.00  0.00    +0.000 C 
ATOM      6  C   UNL     1      -1.304  13.488  20.238  0.00  0.00    +0.000 C 
ATOM      7  C   UNL     1      -1.788  14.632  21.174  0.00  0.00    +0.000 C 
ATOM      8  C   UNL     1      -0.129  14.054  19.384  0.00  0.00    +0.000 C 
ATOM      9  C   UNL     1       0.594  13.015  18.527  0.00  0.00    +0.000 C 
ATOM     10  C   UNL     1       0.850  11.639  19.141  0.00  0.00    +0.000 C 
ATOM     11  C   UNL     1      -0.126  11.089  20.223  0.00  0.00    +0.000 C 
ATOM     12  C   UNL     1      -1.282  10.258  19.588  0.00  0.00    +0.000 C 
ATOM     13  C   UNL     1       0.700  10.063  21.138  0.00  0.00    +0.000 C 
ENDROOT
BRANCH   8  14
ATOM     14  O   UNL     1      -0.553  15.129  18.539  0.00  0.00    +0.000 OA
ATOM     15  H   UNL     1       0.147  15.311  17.887  0.00  0.00    +0.000 HD
ENDBRANCH   8  14
BRANCH  13  16
ATOM     16  C   UNL     1       1.199   8.894  20.295  0.00  0.00    +0.000 C 
ATOM     17  C   UNL     1       1.941   7.827  20.633  0.00  0.00    +0.000 C 
BRANCH  17  18
ATOM     18  C   UNL     1       2.372   6.866  19.639  0.00  0.00    +0.000 C 
ATOM     19  C   UNL     1       2.975   7.100  18.471  0.00  0.00    +0.000 C 
ATOM     20  C   UNL     1       3.230   5.852  17.738  0.00  0.00    +0.000 C 
ATOM     21  O   UNL     1       2.787   4.823  18.620  0.00  0.00    +0.000 OA
ATOM     22  C   UNL     1       2.276   5.399  19.755  0.00  0.00    +0.000 C 
ATOM     23  O   UNL     1       1.831   4.786  20.704  0.00  0.00    +0.000 OA
ENDBRANCH  17  18
ENDBRANCH  13  16
BRANCH   6  24
ATOM     24  C   UNL     1      -2.511  13.177  19.284  0.00  0.00    +0.000 C 
BRANCH  24  25
ATOM     25  N   UNL     1      -3.748  12.839  19.992  0.00  0.00    +0.000 NA
ATOM     26  H   UNL     1      -3.947  13.565  20.679  0.00  0.00    +0.000 HD
BRANCH  25  27
ATOM     27  C   UNL     1      -4.907  12.708  19.097  0.00  0.00    +0.000 C 
BRANCH  27  28
ATOM     28  C   UNL     1      -5.094  11.224  18.742  0.00  0.00    +0.000 C 
BRANCH  28  29
ATOM     29  C   UNL     1      -4.332  10.792  17.514  0.00  0.00    +0.000 A 
ATOM     30  C   UNL     1      -4.443  11.508  16.315  0.00  0.00    +0.000 A 
ATOM     31  C   UNL     1      -3.702  11.131  15.192  0.00  0.00    +0.000 A 
ATOM     32  C   UNL     1      -2.849  10.031  15.255  0.00  0.00    +0.000 A 
ATOM     33  C   UNL     1      -2.739   9.304  16.439  0.00  0.00    +0.000 A 
ATOM     34  C   UNL     1      -3.478   9.680  17.562  0.00  0.00    +0.000 A 
ENDBRANCH  28  29
ENDBRANCH  27  28
ENDBRANCH  25  27
ENDBRANCH  24  25
ENDBRANCH   6  24
TORSDOF 8
ENDMDL
