MODEL 1
REMARK VINA RESULT:      -5.5      0.000      0.000
REMARK  Name = 
REMARK  21 active torsions:
REMARK  status: ('A' for Active; 'I' for Inactive)
REMARK    1  A    between atoms: C_1  and  C_2
REMARK    2  A    between atoms: C_2  and  C_3
REMARK    3  A    between atoms: C_3  and  C_4
REMARK    4  A    between atoms: C_4  and  N_5
REMARK    5  A    between atoms: C_6  and  O_8
REMARK    6  A    between atoms: O_8  and  C_9
REMARK    7  A    between atoms: C_9  and  C_10
REMARK    8  A    between atoms: C_10  and  C_11
REMARK    9  A    between atoms: C_11  and  C_12
REMARK   10  A    between atoms: C_12  and  C_13
REMARK   11  A    between atoms: C_13  and  C_14
REMARK   12  A    between atoms: C_14  and  C_15
REMARK   13  A    between atoms: C_15  and  C_16
REMARK   14  A    between atoms: C_16  and  C_17
REMARK   15  A    between atoms: C_17  and  C_18
REMARK   16  A    between atoms: C_18  and  O_19
REMARK   17  A    between atoms: O_19  and  C_20
REMARK   18  A    between atoms: N_22  and  C_23
REMARK   19  A    between atoms: C_23  and  C_24
REMARK   20  A    between atoms: C_24  and  C_25
REMARK   21  A    between atoms: C_25  and  C_26
REMARK                            x       y       z     vdW  Elec       q    Type
REMARK                         _______ _______ _______ _____ _____    ______ ____
ROOT
ATOM      1  C   UNL     1       1.011   3.756  20.553  0.00  0.00    +0.000 C 
ENDROOT
BRANCH   1   2
ATOM      2  C   UNL     1       2.103   4.753  20.938  0.00  0.00    +0.000 C 
BRANCH   2   3
ATOM      3  C   UNL     1       1.701   6.178  20.557  0.00  0.00    +0.000 C 
BRANCH   3   4
ATOM      4  C   UNL     1       2.615   6.736  19.468  0.00  0.00    +0.000 C 
BRANCH   4   5
ATOM      5  C   UNL     1       2.039   8.013  18.852  0.00  0.00    +0.000 C 
BRANCH   5   6
ATOM      6  C   UNL     1       1.359   8.891  19.898  0.00  0.00    +0.000 C 
BRANCH   6   7
ATOM      7  O   UNL     1       0.324   9.705  19.322  0.00  0.00    +0.000 OA
BRANCH   7   8
ATOM      8  C   UNL     1       0.586  11.042  19.258  0.00  0.00    +0.000 C 
ATOM      9  O   UNL     1       1.693  11.526  19.022  0.00  0.00    +0.000 OA
ATOM     10  N   UNL     1      -0.544  11.787  19.439  0.00  0.00    +0.000 N 
ATOM     11  H   UNL     1      -0.775  12.494  18.741  0.00  0.00    +0.000 HD
BRANCH  10  12
ATOM     12  C   UNL     1      -1.303  11.724  20.672  0.00  0.00    +0.000 C 
BRANCH  12  13
ATOM     13  C   UNL     1      -0.434  11.663  21.936  0.00  0.00    +0.000 C 
BRANCH  13  14
ATOM     14  C   UNL     1      -0.995  10.678  22.966  0.00  0.00    +0.000 C 
ATOM     15  C   UNL     1      -0.030   9.534  23.234  0.00  0.00    +0.000 C 
ENDBRANCH  13  14
ENDBRANCH  12  13
ENDBRANCH  10  12
ENDBRANCH   7   8
ENDBRANCH   6   7
ENDBRANCH   5   6
ENDBRANCH   4   5
ENDBRANCH   3   4
ENDBRANCH   2   3
ENDBRANCH   1   2
BRANCH   1  16
ATOM     16  C   UNL     1       1.454   2.883  19.379  0.00  0.00    +0.000 C 
BRANCH  16  17
ATOM     17  C   UNL     1       1.170   3.565  18.041  0.00  0.00    +0.000 C 
BRANCH  17  18
ATOM     18  C   UNL     1       2.463   3.851  17.274  0.00  0.00    +0.000 C 
BRANCH  18  19
ATOM     19  C   UNL     1       3.632   3.006  17.782  0.00  0.00    +0.000 C 
BRANCH  19  20
ATOM     20  O   UNL     1       4.900   3.549  17.396  0.00  0.00    +0.000 OA
BRANCH  20  22
ATOM     21  N   UNL     1       6.941   4.224  18.017  0.00  0.00    +0.000 N 
ATOM     22  C   UNL     1       5.673   3.958  18.418  0.00  0.00    +0.000 C 
ATOM     23  O   UNL     1       5.315   4.026  19.611  0.00  0.00    +0.000 OA
ATOM     24  H   UNL     1       7.701   3.744  18.501  0.00  0.00    +0.000 HD
BRANCH  21  25
ATOM     25  C   UNL     1       7.219   5.251  17.034  0.00  0.00    +0.000 C 
BRANCH  25  26
ATOM     26  C   UNL     1       6.875   6.671  17.511  0.00  0.00    +0.000 C 
BRANCH  26  28
ATOM     27  C   UNL     1       5.141   6.519  15.676  0.00  0.00    +0.000 C 
ATOM     28  C   UNL     1       5.496   7.128  17.024  0.00  0.00    +0.000 C 
ENDBRANCH  26  28
ENDBRANCH  25  26
ENDBRANCH  21  25
ENDBRANCH  20  22
ENDBRANCH  19  20
ENDBRANCH  18  19
ENDBRANCH  17  18
ENDBRANCH  16  17
ENDBRANCH   1  16
TORSDOF 19
ENDMDL
MODEL 2
REMARK VINA RESULT:      -5.4      1.867      8.521
REMARK  Name = 
REMARK  21 active torsions:
REMARK  status: ('A' for Active; 'I' for Inactive)
REMARK    1  A    between atoms: C_1  and  C_2
REMARK    2  A    between atoms: C_2  and  C_3
REMARK    3  A    between atoms: C_3  and  C_4
REMARK    4  A    between atoms: C_4  and  N_5
REMARK    5  A    between atoms: C_6  and  O_8
REMARK    6  A    between atoms: O_8  and  C_9
REMARK    7  A    between atoms: C_9  and  C_10
REMARK    8  A    between atoms: C_10  and  C_11
REMARK    9  A    between atoms: C_11  and  C_12
REMARK   10  A    between atoms: C_12  and  C_13
REMARK   11  A    between atoms: C_13  and  C_14
REMARK   12  A    between atoms: C_14  and  C_15
REMARK   13  A    between atoms: C_15  and  C_16
REMARK   14  A    between atoms: C_16  and  C_17
REMARK   15  A    between atoms: C_17  and  C_18
REMARK   16  A    between atoms: C_18  and  O_19
REMARK   17  A    between atoms: O_19  and  C_20
REMARK   18  A    between atoms: N_22  and  C_23
REMARK   19  A    between atoms: C_23  and  C_24
REMARK   20  A    between atoms: C_24  and  C_25
REMARK   21  A    between atoms: C_25  and  C_26
REMARK                            x       y       z     vdW  Elec       q    Type
REMARK                         _______ _______ _______ _____ _____    ______ ____
ROOT
ATOM      1  C   UNL     1       2.704   5.728  19.671  0.00  0.00    +0.000 C 
ENDROOT
BRANCH   1   2
ATOM      2  C   UNL     1       1.964   5.024  20.809  0.00  0.00    +0.000 C 
BRANCH   2   3
ATOM      3  C   UNL     1       0.914   4.056  20.263  0.00  0.00    +0.000 C 
BRANCH   3   4
ATOM      4  C   UNL     1       1.534   2.698  19.940  0.00  0.00    +0.000 C 
BRANCH   4   5
ATOM      5  C   UNL     1       1.733   2.515  18.434  0.00  0.00    +0.000 C 
BRANCH   5   6
ATOM      6  C   UNL     1       3.102   1.924  18.110  0.00  0.00    +0.000 C 
BRANCH   6   7
ATOM      7  O   UNL     1       4.059   2.943  17.776  0.00  0.00    +0.000 OA
BRANCH   7   8
ATOM      8  C   UNL     1       4.989   3.222  18.735  0.00  0.00    +0.000 C 
ATOM      9  O   UNL     1       4.950   2.798  19.890  0.00  0.00    +0.000 OA
ATOM     10  N   UNL     1       6.003   3.993  18.244  0.00  0.00    +0.000 N 
ATOM     11  H   UNL     1       6.963   3.673  18.376  0.00  0.00    +0.000 HD
BRANCH  10  12
ATOM     12  C   UNL     1       5.757   5.321  17.718  0.00  0.00    +0.000 C 
BRANCH  12  13
ATOM     13  C   UNL     1       6.492   5.616  16.403  0.00  0.00    +0.000 C 
BRANCH  13  14
ATOM     14  C   UNL     1       5.624   5.296  15.181  0.00  0.00    +0.000 C 
ATOM     15  C   UNL     1       6.030   3.983  14.532  0.00  0.00    +0.000 C 
ENDBRANCH  13  14
ENDBRANCH  12  13
ENDBRANCH  10  12
ENDBRANCH   7   8
ENDBRANCH   6   7
ENDBRANCH   5   6
ENDBRANCH   4   5
ENDBRANCH   3   4
ENDBRANCH   2   3
ENDBRANCH   1   2
BRANCH   1  16
ATOM     16  C   UNL     1       2.274   7.190  19.558  0.00  0.00    +0.000 C 
BRANCH  16  17
ATOM     17  C   UNL     1       2.518   7.734  18.151  0.00  0.00    +0.000 C 
BRANCH  17  18
ATOM     18  C   UNL     1       2.171   9.222  18.060  0.00  0.00    +0.000 C 
BRANCH  18  19
ATOM     19  C   UNL     1       0.816   9.537  18.697  0.00  0.00    +0.000 C 
BRANCH  19  20
ATOM     20  O   UNL     1       0.856  10.725  19.494  0.00  0.00    +0.000 OA
BRANCH  20  22
ATOM     21  N   UNL     1      -0.215  12.053  18.045  0.00  0.00    +0.000 N 
ATOM     22  C   UNL     1       0.902  11.873  18.794  0.00  0.00    +0.000 C 
ATOM     23  O   UNL     1       1.869  12.660  18.761  0.00  0.00    +0.000 OA
ATOM     24  H   UNL     1      -0.093  12.208  17.043  0.00  0.00    +0.000 HD
BRANCH  21  25
ATOM     25  C   UNL     1      -1.522  12.157  18.658  0.00  0.00    +0.000 C 
BRANCH  25  26
ATOM     26  C   UNL     1      -2.516  11.087  18.180  0.00  0.00    +0.000 C 
BRANCH  26  28
ATOM     27  C   UNL     1      -4.607  11.632  16.865  0.00  0.00    +0.000 C 
ATOM     28  C   UNL     1      -3.968  11.575  18.244  0.00  0.00    +0.000 C 
ENDBRANCH  26  28
ENDBRANCH  25  26
ENDBRANCH  21  25
ENDBRANCH  20  22
ENDBRANCH  19  20
ENDBRANCH  18  19
ENDBRANCH  17  18
ENDBRANCH  16  17
ENDBRANCH   1  16
TORSDOF 19
ENDMDL
MODEL 3
REMARK VINA RESULT:      -5.2      1.823      2.580
REMARK  Name = 
REMARK  21 active torsions:
REMARK  status: ('A' for Active; 'I' for Inactive)
REMARK    1  A    between atoms: C_1  and  C_2
REMARK    2  A    between atoms: C_2  and  C_3
REMARK    3  A    between atoms: C_3  and  C_4
REMARK    4  A    between atoms: C_4  and  N_5
REMARK    5  A    between atoms: C_6  and  O_8
REMARK    6  A    between atoms: O_8  and  C_9
REMARK    7  A    between atoms: C_9  and  C_10
REMARK    8  A    between atoms: C_10  and  C_11
REMARK    9  A    between atoms: C_11  and  C_12
REMARK   10  A    between atoms: C_12  and  C_13
REMARK   11  A    between atoms: C_13  and  C_14
REMARK   12  A    between atoms: C_14  and  C_15
REMARK   13  A    between atoms: C_15  and  C_16
REMARK   14  A    between atoms: C_16  and  C_17
REMARK   15  A    between atoms: C_17  and  C_18
REMARK   16  A    between atoms: C_18  and  O_19
REMARK   17  A    between atoms: O_19  and  C_20
REMARK   18  A    between atoms: N_22  and  C_23
REMARK   19  A    between atoms: C_23  and  C_24
REMARK   20  A    between atoms: C_24  and  C_25
REMARK   21  A    between atoms: C_25  and  C_26
REMARK                            x       y       z     vdW  Elec       q    Type
REMARK                         _______ _______ _______ _____ _____    ______ ____
ROOT
ATOM      1  C   UNL     1       2.090   5.164  20.877  0.00  0.00    +0.000 C 
ENDROOT
BRANCH   1   2
ATOM      2  C   UNL     1       2.892   5.782  19.732  0.00  0.00    +0.000 C 
BRANCH   2   3
ATOM      3  C   UNL     1       2.508   7.247  19.522  0.00  0.00    +0.000 C 
BRANCH   3   4
ATOM      4  C   UNL     1       2.214   7.533  18.051  0.00  0.00    +0.000 C 
BRANCH   4   5
ATOM      5  C   UNL     1       2.252   9.034  17.753  0.00  0.00    +0.000 C 
BRANCH   5   6
ATOM      6  C   UNL     1       1.735   9.858  18.929  0.00  0.00    +0.000 C 
BRANCH   6   7
ATOM      7  O   UNL     1       1.230  11.136  18.505  0.00  0.00    +0.000 OA
BRANCH   7   8
ATOM      8  C   UNL     1       0.586  11.867  19.460  0.00  0.00    +0.000 C 
ATOM      9  O   UNL     1       0.829  11.810  20.665  0.00  0.00    +0.000 OA
ATOM     10  N   UNL     1      -0.334  12.714  18.912  0.00  0.00    +0.000 N 
ATOM     11  H   UNL     1      -0.290  13.702  19.158  0.00  0.00    +0.000 HD
BRANCH  10  12
ATOM     12  C   UNL     1      -1.463  12.215  18.152  0.00  0.00    +0.000 C 
BRANCH  12  13
ATOM     13  C   UNL     1      -2.692  11.881  19.008  0.00  0.00    +0.000 C 
BRANCH  13  14
ATOM     14  C   UNL     1      -3.859  11.370  18.156  0.00  0.00    +0.000 C 
ATOM     15  C   UNL     1      -3.520  10.059  17.466  0.00  0.00    +0.000 C 
ENDBRANCH  13  14
ENDBRANCH  12  13
ENDBRANCH  10  12
ENDBRANCH   7   8
ENDBRANCH   6   7
ENDBRANCH   5   6
ENDBRANCH   4   5
ENDBRANCH   3   4
ENDBRANCH   2   3
ENDBRANCH   1   2
BRANCH   1  16
ATOM     16  C   UNL     1       1.038   4.190  20.347  0.00  0.00    +0.000 C 
BRANCH  16  17
ATOM     17  C   UNL     1       1.188   3.976  18.841  0.00  0.00    +0.000 C 
BRANCH  17  18
ATOM     18  C   UNL     1       1.265   2.487  18.495  0.00  0.00    +0.000 C 
BRANCH  18  19
ATOM     19  C   UNL     1       2.449   1.798  19.175  0.00  0.00    +0.000 C 
BRANCH  19  20
ATOM     20  O   UNL     1       3.629   1.826  18.366  0.00  0.00    +0.000 OA
BRANCH  20  22
ATOM     21  N   UNL     1       5.139   3.337  17.698  0.00  0.00    +0.000 N 
ATOM     22  C   UNL     1       4.560   2.717  18.755  0.00  0.00    +0.000 C 
ATOM     23  O   UNL     1       4.917   2.916  19.933  0.00  0.00    +0.000 OA
ATOM     24  H   UNL     1       6.157   3.299  17.626  0.00  0.00    +0.000 HD
BRANCH  21  25
ATOM     25  C   UNL     1       4.360   4.140  16.778  0.00  0.00    +0.000 C 
BRANCH  25  26
ATOM     26  C   UNL     1       5.214   4.993  15.827  0.00  0.00    +0.000 C 
BRANCH  26  28
ATOM     27  C   UNL     1       6.068   6.934  17.207  0.00  0.00    +0.000 C 
ATOM     28  C   UNL     1       5.092   6.492  16.127  0.00  0.00    +0.000 C 
ENDBRANCH  26  28
ENDBRANCH  25  26
ENDBRANCH  21  25
ENDBRANCH  20  22
ENDBRANCH  19  20
ENDBRANCH  18  19
ENDBRANCH  17  18
ENDBRANCH  16  17
ENDBRANCH   1  16
TORSDOF 19
ENDMDL
MODEL 4
REMARK VINA RESULT:      -5.2      1.701      2.484
REMARK  Name = 
REMARK  21 active torsions:
REMARK  status: ('A' for Active; 'I' for Inactive)
REMARK    1  A    between atoms: C_1  and  C_2
REMARK    2  A    between atoms: C_2  and  C_3
REMARK    3  A    between atoms: C_3  and  C_4
REMARK    4  A    between atoms: C_4  and  N_5
REMARK    5  A    between atoms: C_6  and  O_8
REMARK    6  A    between atoms: O_8  and  C_9
REMARK    7  A    between atoms: C_9  and  C_10
REMARK    8  A    between atoms: C_10  and  C_11
REMARK    9  A    between atoms: C_11  and  C_12
REMARK   10  A    between atoms: C_12  and  C_13
REMARK   11  A    between atoms: C_13  and  C_14
REMARK   12  A    between atoms: C_14  and  C_15
REMARK   13  A    between atoms: C_15  and  C_16
REMARK   14  A    between atoms: C_16  and  C_17
REMARK   15  A    between atoms: C_17  and  C_18
REMARK   16  A    between atoms: C_18  and  O_19
REMARK   17  A    between atoms: O_19  and  C_20
REMARK   18  A    between atoms: N_22  and  C_23
REMARK   19  A    between atoms: C_23  and  C_24
REMARK   20  A    between atoms: C_24  and  C_25
REMARK   21  A    between atoms: C_25  and  C_26
REMARK                            x       y       z     vdW  Elec       q    Type
REMARK                         _______ _______ _______ _____ _____    ______ ____
ROOT
ATOM      1  C   UNL     1       1.503   3.210  20.080  0.00  0.00    +0.000 C 
ENDROOT
BRANCH   1   2
ATOM      2  C   UNL     1       0.951   4.552  20.560  0.00  0.00    +0.000 C 
BRANCH   2   3
ATOM      3  C   UNL     1       2.074   5.577  20.726  0.00  0.00    +0.000 C 
BRANCH   3   4
ATOM      4  C   UNL     1       2.089   6.570  19.566  0.00  0.00    +0.000 C 
BRANCH   4   5
ATOM      5  C   UNL     1       1.818   7.998  20.046  0.00  0.00    +0.000 C 
BRANCH   5   6
ATOM      6  C   UNL     1       1.217   8.020  21.448  0.00  0.00    +0.000 C 
BRANCH   6   7
ATOM      7  O   UNL     1      -0.005   8.776  21.495  0.00  0.00    +0.000 OA
BRANCH   7   8
ATOM      8  C   UNL     1       0.075   9.996  22.101  0.00  0.00    +0.000 C 
ATOM      9  O   UNL     1       0.161  10.168  23.316  0.00  0.00    +0.000 OA
ATOM     10  N   UNL     1       0.098  11.011  21.188  0.00  0.00    +0.000 N 
ATOM     11  H   UNL     1       0.851  11.696  21.244  0.00  0.00    +0.000 HD
BRANCH  10  12
ATOM     12  C   UNL     1      -1.008  11.236  20.279  0.00  0.00    +0.000 C 
BRANCH  12  13
ATOM     13  C   UNL     1      -0.783  10.668  18.871  0.00  0.00    +0.000 C 
BRANCH  13  14
ATOM     14  C   UNL     1      -1.982  10.929  17.953  0.00  0.00    +0.000 C 
ATOM     15  C   UNL     1      -2.063   9.908  16.829  0.00  0.00    +0.000 C 
ENDBRANCH  13  14
ENDBRANCH  12  13
ENDBRANCH  10  12
ENDBRANCH   7   8
ENDBRANCH   6   7
ENDBRANCH   5   6
ENDBRANCH   4   5
ENDBRANCH   3   4
ENDBRANCH   2   3
ENDBRANCH   1   2
BRANCH   1  16
ATOM     16  C   UNL     1       1.161   2.971  18.610  0.00  0.00    +0.000 C 
BRANCH  16  17
ATOM     17  C   UNL     1       1.917   1.765  18.052  0.00  0.00    +0.000 C 
BRANCH  17  18
ATOM     18  C   UNL     1       3.396   2.088  17.828  0.00  0.00    +0.000 C 
BRANCH  18  19
ATOM     19  C   UNL     1       3.599   3.495  17.267  0.00  0.00    +0.000 C 
BRANCH  19  20
ATOM     20  O   UNL     1       4.159   4.389  18.235  0.00  0.00    +0.000 OA
BRANCH  20  22
ATOM     21  N   UNL     1       6.382   4.176  18.373  0.00  0.00    +0.000 N 
ATOM     22  C   UNL     1       5.186   3.884  18.942  0.00  0.00    +0.000 C 
ATOM     23  O   UNL     1       5.080   3.170  19.959  0.00  0.00    +0.000 OA
ATOM     24  H   UNL     1       7.008   3.398  18.160  0.00  0.00    +0.000 HD
BRANCH  21  25
ATOM     25  C   UNL     1       6.817   5.546  18.199  0.00  0.00    +0.000 C 
BRANCH  25  26
ATOM     26  C   UNL     1       7.220   5.887  16.755  0.00  0.00    +0.000 C 
BRANCH  26  28
ATOM     27  C   UNL     1       5.797   5.109  14.814  0.00  0.00    +0.000 C 
ATOM     28  C   UNL     1       6.912   4.743  15.782  0.00  0.00    +0.000 C 
ENDBRANCH  26  28
ENDBRANCH  25  26
ENDBRANCH  21  25
ENDBRANCH  20  22
ENDBRANCH  19  20
ENDBRANCH  18  19
ENDBRANCH  17  18
ENDBRANCH  16  17
ENDBRANCH   1  16
TORSDOF 19
ENDMDL
MODEL 5
REMARK VINA RESULT:      -5.1      2.588      3.663
REMARK  Name = 
REMARK  21 active torsions:
REMARK  status: ('A' for Active; 'I' for Inactive)
REMARK    1  A    between atoms: C_1  and  C_2
REMARK    2  A    between atoms: C_2  and  C_3
REMARK    3  A    between atoms: C_3  and  C_4
REMARK    4  A    between atoms: C_4  and  N_5
REMARK    5  A    between atoms: C_6  and  O_8
REMARK    6  A    between atoms: O_8  and  C_9
REMARK    7  A    between atoms: C_9  and  C_10
REMARK    8  A    between atoms: C_10  and  C_11
REMARK    9  A    between atoms: C_11  and  C_12
REMARK   10  A    between atoms: C_12  and  C_13
REMARK   11  A    between atoms: C_13  and  C_14
REMARK   12  A    between atoms: C_14  and  C_15
REMARK   13  A    between atoms: C_15  and  C_16
REMARK   14  A    between atoms: C_16  and  C_17
REMARK   15  A    between atoms: C_17  and  C_18
REMARK   16  A    between atoms: C_18  and  O_19
REMARK   17  A    between atoms: O_19  and  C_20
REMARK   18  A    between atoms: N_22  and  C_23
REMARK   19  A    between atoms: C_23  and  C_24
REMARK   20  A    between atoms: C_24  and  C_25
REMARK   21  A    between atoms: C_25  and  C_26
REMARK                            x       y       z     vdW  Elec       q    Type
REMARK                         _______ _______ _______ _____ _____    ______ ____
ROOT
ATOM      1  C   UNL     1       2.239   2.697  17.921  0.00  0.00    +0.000 C 
ENDROOT
BRANCH   1   2
ATOM      2  C   UNL     1       1.351   3.745  18.593  0.00  0.00    +0.000 C 
BRANCH   2   3
ATOM      3  C   UNL     1       1.505   3.700  20.113  0.00  0.00    +0.000 C 
BRANCH   3   4
ATOM      4  C   UNL     1       1.358   5.092  20.724  0.00  0.00    +0.000 C 
BRANCH   4   5
ATOM      5  C   UNL     1       2.473   6.030  20.257  0.00  0.00    +0.000 C 
BRANCH   5   6
ATOM      6  C   UNL     1       1.973   7.461  20.080  0.00  0.00    +0.000 C 
BRANCH   6   7
ATOM      7  O   UNL     1       1.052   7.838  21.117  0.00  0.00    +0.000 OA
BRANCH   7   8
ATOM      8  C   UNL     1       1.210   9.095  21.624  0.00  0.00    +0.000 C 
ATOM      9  O   UNL     1       1.655   9.346  22.743  0.00  0.00    +0.000 OA
ATOM     10  N   UNL     1       0.860  10.053  20.715  0.00  0.00    +0.000 N 
ATOM     11  H   UNL     1       1.531  10.792  20.507  0.00  0.00    +0.000 HD
BRANCH  10  12
ATOM     12  C   UNL     1      -0.489  10.144  20.194  0.00  0.00    +0.000 C 
BRANCH  12  13
ATOM     13  C   UNL     1      -0.892  11.556  19.750  0.00  0.00    +0.000 C 
BRANCH  13  14
ATOM     14  C   UNL     1       0.078  12.124  18.708  0.00  0.00    +0.000 C 
ATOM     15  C   UNL     1       0.419  13.578  18.992  0.00  0.00    +0.000 C 
ENDBRANCH  13  14
ENDBRANCH  12  13
ENDBRANCH  10  12
ENDBRANCH   7   8
ENDBRANCH   6   7
ENDBRANCH   5   6
ENDBRANCH   4   5
ENDBRANCH   3   4
ENDBRANCH   2   3
ENDBRANCH   1   2
BRANCH   1  16
ATOM     16  C   UNL     1       3.437   3.352  17.235  0.00  0.00    +0.000 C 
BRANCH  16  17
ATOM     17  C   UNL     1       3.387   4.874  17.361  0.00  0.00    +0.000 C 
BRANCH  17  18
ATOM     18  C   UNL     1       4.789   5.467  17.515  0.00  0.00    +0.000 C 
BRANCH  18  19
ATOM     19  C   UNL     1       5.270   6.149  16.233  0.00  0.00    +0.000 C 
BRANCH  19  20
ATOM     20  O   UNL     1       6.682   6.012  16.045  0.00  0.00    +0.000 OA
BRANCH  20  22
ATOM     21  N   UNL     1       6.453   3.930  15.259  0.00  0.00    +0.000 N 
ATOM     22  C   UNL     1       7.139   4.748  16.095  0.00  0.00    +0.000 C 
ATOM     23  O   UNL     1       8.034   4.334  16.858  0.00  0.00    +0.000 OA
ATOM     24  H   UNL     1       6.028   3.092  15.659  0.00  0.00    +0.000 HD
BRANCH  21  25
ATOM     25  C   UNL     1       6.435   4.159  13.829  0.00  0.00    +0.000 C 
BRANCH  25  26
ATOM     26  C   UNL     1       5.111   3.763  13.156  0.00  0.00    +0.000 C 
BRANCH  26  28
ATOM     27  C   UNL     1       5.835   1.912  11.592  0.00  0.00    +0.000 C 
ATOM     28  C   UNL     1       5.307   3.335  11.698  0.00  0.00    +0.000 C 
ENDBRANCH  26  28
ENDBRANCH  25  26
ENDBRANCH  21  25
ENDBRANCH  20  22
ENDBRANCH  19  20
ENDBRANCH  18  19
ENDBRANCH  17  18
ENDBRANCH  16  17
ENDBRANCH   1  16
TORSDOF 19
ENDMDL
MODEL 6
REMARK VINA RESULT:      -5.1      2.546      8.837
REMARK  Name = 
REMARK  21 active torsions:
REMARK  status: ('A' for Active; 'I' for Inactive)
REMARK    1  A    between atoms: C_1  and  C_2
REMARK    2  A    between atoms: C_2  and  C_3
REMARK    3  A    between atoms: C_3  and  C_4
REMARK    4  A    between atoms: C_4  and  N_5
REMARK    5  A    between atoms: C_6  and  O_8
REMARK    6  A    between atoms: O_8  and  C_9
REMARK    7  A    between atoms: C_9  and  C_10
REMARK    8  A    between atoms: C_10  and  C_11
REMARK    9  A    between atoms: C_11  and  C_12
REMARK   10  A    between atoms: C_12  and  C_13
REMARK   11  A    between atoms: C_13  and  C_14
REMARK   12  A    between atoms: C_14  and  C_15
REMARK   13  A    between atoms: C_15  and  C_16
REMARK   14  A    between atoms: C_16  and  C_17
REMARK   15  A    between atoms: C_17  and  C_18
REMARK   16  A    between atoms: C_18  and  O_19
REMARK   17  A    between atoms: O_19  and  C_20
REMARK   18  A    between atoms: N_22  and  C_23
REMARK   19  A    between atoms: C_23  and  C_24
REMARK   20  A    between atoms: C_24  and  C_25
REMARK   21  A    between atoms: C_25  and  C_26
REMARK                            x       y       z     vdW  Elec       q    Type
REMARK                         _______ _______ _______ _____ _____    ______ ____
ROOT
ATOM      1  C   UNL     1       1.843   3.841  21.326  0.00  0.00    +0.000 C 
ENDROOT
BRANCH   1   2
ATOM      2  C   UNL     1       2.113   2.559  20.538  0.00  0.00    +0.000 C 
BRANCH   2   3
ATOM      3  C   UNL     1       3.453   2.637  19.807  0.00  0.00    +0.000 C 
BRANCH   3   4
ATOM      4  C   UNL     1       3.270   2.457  18.302  0.00  0.00    +0.000 C 
BRANCH   4   5
ATOM      5  C   UNL     1       3.709   3.703  17.530  0.00  0.00    +0.000 C 
BRANCH   5   6
ATOM      6  C   UNL     1       5.009   4.282  18.080  0.00  0.00    +0.000 C 
BRANCH   6   7
ATOM      7  O   UNL     1       5.725   5.031  17.084  0.00  0.00    +0.000 OA
BRANCH   7   8
ATOM      8  C   UNL     1       6.754   4.374  16.474  0.00  0.00    +0.000 C 
ATOM      9  O   UNL     1       7.938   4.482  16.793  0.00  0.00    +0.000 OA
ATOM     10  N   UNL     1       6.307   3.538  15.491  0.00  0.00    +0.000 N 
ATOM     11  H   UNL     1       6.601   2.562  15.514  0.00  0.00    +0.000 HD
BRANCH  10  12
ATOM     12  C   UNL     1       5.591   4.043  14.336  0.00  0.00    +0.000 C 
BRANCH  12  13
ATOM     13  C   UNL     1       6.341   3.860  13.010  0.00  0.00    +0.000 C 
BRANCH  13  14
ATOM     14  C   UNL     1       5.410   3.384  11.890  0.00  0.00    +0.000 C 
ATOM     15  C   UNL     1       5.653   1.926  11.538  0.00  0.00    +0.000 C 
ENDBRANCH  13  14
ENDBRANCH  12  13
ENDBRANCH  10  12
ENDBRANCH   7   8
ENDBRANCH   6   7
ENDBRANCH   5   6
ENDBRANCH   4   5
ENDBRANCH   3   4
ENDBRANCH   2   3
ENDBRANCH   1   2
BRANCH   1  16
ATOM     16  C   UNL     1       1.379   4.965  20.400  0.00  0.00    +0.000 C 
BRANCH  16  17
ATOM     17  C   UNL     1       2.387   6.114  20.372  0.00  0.00    +0.000 C 
BRANCH  17  18
ATOM     18  C   UNL     1       1.692   7.461  20.163  0.00  0.00    +0.000 C 
BRANCH  18  19
ATOM     19  C   UNL     1       1.382   8.160  21.488  0.00  0.00    +0.000 C 
BRANCH  19  20
ATOM     20  O   UNL     1       0.081   8.760  21.492  0.00  0.00    +0.000 OA
BRANCH  20  22
ATOM     21  N   UNL     1       0.263  10.802  20.594  0.00  0.00    +0.000 N 
ATOM     22  C   UNL     1       0.071  10.084  21.729  0.00  0.00    +0.000 C 
ATOM     23  O   UNL     1      -0.028  10.614  22.853  0.00  0.00    +0.000 OA
ATOM     24  H   UNL     1       1.028  11.478  20.586  0.00  0.00    +0.000 HD
BRANCH  21  25
ATOM     25  C   UNL     1      -0.663  10.715  19.485  0.00  0.00    +0.000 C 
BRANCH  25  26
ATOM     26  C   UNL     1      -1.205  12.077  19.024  0.00  0.00    +0.000 C 
BRANCH  26  28
ATOM     27  C   UNL     1      -0.391  14.471  19.115  0.00  0.00    +0.000 C 
ATOM     28  C   UNL     1      -0.081  13.053  18.657  0.00  0.00    +0.000 C 
ENDBRANCH  26  28
ENDBRANCH  25  26
ENDBRANCH  21  25
ENDBRANCH  20  22
ENDBRANCH  19  20
ENDBRANCH  18  19
ENDBRANCH  17  18
ENDBRANCH  16  17
ENDBRANCH   1  16
TORSDOF 19
ENDMDL
MODEL 7
REMARK VINA RESULT:      -5.1      1.790      8.999
REMARK  Name = 
REMARK  21 active torsions:
REMARK  status: ('A' for Active; 'I' for Inactive)
REMARK    1  A    between atoms: C_1  and  C_2
REMARK    2  A    between atoms: C_2  and  C_3
REMARK    3  A    between atoms: C_3  and  C_4
REMARK    4  A    between atoms: C_4  and  N_5
REMARK    5  A    between atoms: C_6  and  O_8
REMARK    6  A    between atoms: O_8  and  C_9
REMARK    7  A    between atoms: C_9  and  C_10
REMARK    8  A    between atoms: C_10  and  C_11
REMARK    9  A    between atoms: C_11  and  C_12
REMARK   10  A    between atoms: C_12  and  C_13
REMARK   11  A    between atoms: C_13  and  C_14
REMARK   12  A    between atoms: C_14  and  C_15
REMARK   13  A    between atoms: C_15  and  C_16
REMARK   14  A    between atoms: C_16  and  C_17
REMARK   15  A    between atoms: C_17  and  C_18
REMARK   16  A    between atoms: C_18  and  O_19
REMARK   17  A    between atoms: O_19  and  C_20
REMARK   18  A    between atoms: N_22  and  C_23
REMARK   19  A    between atoms: C_23  and  C_24
REMARK   20  A    between atoms: C_24  and  C_25
REMARK   21  A    between atoms: C_25  and  C_26
REMARK                            x       y       z     vdW  Elec       q    Type
REMARK                         _______ _______ _______ _____ _____    ______ ____
ROOT
ATOM      1  C   UNL     1       2.912   6.663  18.276  0.00  0.00    +0.000 C 
ENDROOT
BRANCH   1   2
ATOM      2  C   UNL     1       2.919   6.508  19.797  0.00  0.00    +0.000 C 
BRANCH   2   3
ATOM      3  C   UNL     1       1.634   5.838  20.284  0.00  0.00    +0.000 C 
BRANCH   3   4
ATOM      4  C   UNL     1       1.424   4.488  19.600  0.00  0.00    +0.000 C 
BRANCH   4   5
ATOM      5  C   UNL     1       1.061   3.397  20.610  0.00  0.00    +0.000 C 
BRANCH   5   6
ATOM      6  C   UNL     1       2.289   2.611  21.059  0.00  0.00    +0.000 C 
BRANCH   6   7
ATOM      7  O   UNL     1       3.506   3.178  20.544  0.00  0.00    +0.000 OA
BRANCH   7   8
ATOM      8  C   UNL     1       4.381   2.296  19.982  0.00  0.00    +0.000 C 
ATOM      9  O   UNL     1       5.251   1.684  20.601  0.00  0.00    +0.000 OA
ATOM     10  N   UNL     1       4.144   2.131  18.647  0.00  0.00    +0.000 N 
ATOM     11  H   UNL     1       4.021   1.184  18.290  0.00  0.00    +0.000 HD
BRANCH  10  12
ATOM     12  C   UNL     1       4.248   3.239  17.718  0.00  0.00    +0.000 C 
BRANCH  12  13
ATOM     13  C   UNL     1       5.471   4.136  17.953  0.00  0.00    +0.000 C 
BRANCH  13  14
ATOM     14  C   UNL     1       6.048   4.669  16.638  0.00  0.00    +0.000 C 
ATOM     15  C   UNL     1       5.773   3.723  15.479  0.00  0.00    +0.000 C 
ENDBRANCH  13  14
ENDBRANCH  12  13
ENDBRANCH  10  12
ENDBRANCH   7   8
ENDBRANCH   6   7
ENDBRANCH   5   6
ENDBRANCH   4   5
ENDBRANCH   3   4
ENDBRANCH   2   3
ENDBRANCH   1   2
BRANCH   1  16
ATOM     16  C   UNL     1       2.894   8.137  17.875  0.00  0.00    +0.000 C 
BRANCH  16  17
ATOM     17  C   UNL     1       1.466   8.675  17.797  0.00  0.00    +0.000 C 
BRANCH  17  18
ATOM     18  C   UNL     1       1.147   9.586  18.985  0.00  0.00    +0.000 C 
BRANCH  18  19
ATOM     19  C   UNL     1       0.496  10.898  18.545  0.00  0.00    +0.000 C 
BRANCH  19  20
ATOM     20  O   UNL     1      -0.480  11.360  19.485  0.00  0.00    +0.000 OA
BRANCH  20  22
ATOM     21  N   UNL     1      -2.523  12.196  19.851  0.00  0.00    +0.000 N 
ATOM     22  C   UNL     1      -1.545  11.972  18.937  0.00  0.00    +0.000 C 
ATOM     23  O   UNL     1      -1.676  12.248  17.729  0.00  0.00    +0.000 OA
ATOM     24  H   UNL     1      -3.456  11.834  19.643  0.00  0.00    +0.000 HD
BRANCH  21  25
ATOM     25  C   UNL     1      -2.292  13.031  21.010  0.00  0.00    +0.000 C 
BRANCH  25  26
ATOM     26  C   UNL     1      -2.304  12.259  22.339  0.00  0.00    +0.000 C 
BRANCH  26  28
ATOM     27  C   UNL     1      -0.917  10.310  23.163  0.00  0.00    +0.000 C 
ATOM     28  C   UNL     1      -0.907  11.771  22.739  0.00  0.00    +0.000 C 
ENDBRANCH  26  28
ENDBRANCH  25  26
ENDBRANCH  21  25
ENDBRANCH  20  22
ENDBRANCH  19  20
ENDBRANCH  18  19
ENDBRANCH  17  18
ENDBRANCH  16  17
ENDBRANCH   1  16
TORSDOF 19
ENDMDL
MODEL 8
REMARK VINA RESULT:      -5.0      2.656      3.557
REMARK  Name = 
REMARK  21 active torsions:
REMARK  status: ('A' for Active; 'I' for Inactive)
REMARK    1  A    between atoms: C_1  and  C_2
REMARK    2  A    between atoms: C_2  and  C_3
REMARK    3  A    between atoms: C_3  and  C_4
REMARK    4  A    between atoms: C_4  and  N_5
REMARK    5  A    between atoms: C_6  and  O_8
REMARK    6  A    between atoms: O_8  and  C_9
REMARK    7  A    between atoms: C_9  and  C_10
REMARK    8  A    between atoms: C_10  and  C_11
REMARK    9  A    between atoms: C_11  and  C_12
REMARK   10  A    between atoms: C_12  and  C_13
REMARK   11  A    between atoms: C_13  and  C_14
REMARK   12  A    between atoms: C_14  and  C_15
REMARK   13  A    between atoms: C_15  and  C_16
REMARK   14  A    between atoms: C_16  and  C_17
REMARK   15  A    between atoms: C_17  and  C_18
REMARK   16  A    between atoms: C_18  and  O_19
REMARK   17  A    between atoms: O_19  and  C_20
REMARK   18  A    between atoms: N_22  and  C_23
REMARK   19  A    between atoms: C_23  and  C_24
REMARK   20  A    between atoms: C_24  and  C_25
REMARK   21  A    between atoms: C_25  and  C_26
REMARK                            x       y       z     vdW  Elec       q    Type
REMARK                         _______ _______ _______ _____ _____    ______ ____
ROOT
ATOM      1  C   UNL     1       1.314   5.063  20.670  0.00  0.00    +0.000 C 
ENDROOT
BRANCH   1   2
ATOM      2  C   UNL     1       2.044   6.280  20.102  0.00  0.00    +0.000 C 
BRANCH   2   3
ATOM      3  C   UNL     1       1.586   7.564  20.794  0.00  0.00    +0.000 C 
BRANCH   3   4
ATOM      4  C   UNL     1       1.407   8.698  19.786  0.00  0.00    +0.000 C 
BRANCH   4   5
ATOM      5  C   UNL     1       0.856   9.960  20.453  0.00  0.00    +0.000 C 
BRANCH   5   6
ATOM      6  C   UNL     1      -0.515  10.341  19.900  0.00  0.00    +0.000 C 
BRANCH   6   7
ATOM      7  O   UNL     1      -0.436  10.790  18.537  0.00  0.00    +0.000 OA
BRANCH   7   8
ATOM      8  C   UNL     1      -0.840  12.073  18.310  0.00  0.00    +0.000 C 
ATOM      9  O   UNL     1      -0.325  13.068  18.819  0.00  0.00    +0.000 OA
ATOM     10  N   UNL     1      -1.860  12.128  17.404  0.00  0.00    +0.000 N 
ATOM     11  H   UNL     1      -1.758  12.741  16.595  0.00  0.00    +0.000 HD
BRANCH  10  12
ATOM     12  C   UNL     1      -3.135  11.489  17.661  0.00  0.00    +0.000 C 
BRANCH  12  13
ATOM     13  C   UNL     1      -3.468  10.348  16.690  0.00  0.00    +0.000 C 
BRANCH  13  14
ATOM     14  C   UNL     1      -3.727  10.865  15.271  0.00  0.00    +0.000 C 
ATOM     15  C   UNL     1      -3.058   9.990  14.223  0.00  0.00    +0.000 C 
ENDBRANCH  13  14
ENDBRANCH  12  13
ENDBRANCH  10  12
ENDBRANCH   7   8
ENDBRANCH   6   7
ENDBRANCH   5   6
ENDBRANCH   4   5
ENDBRANCH   3   4
ENDBRANCH   2   3
ENDBRANCH   1   2
BRANCH   1  16
ATOM     16  C   UNL     1       2.292   3.927  20.969  0.00  0.00    +0.000 C 
BRANCH  16  17
ATOM     17  C   UNL     1       2.328   2.910  19.829  0.00  0.00    +0.000 C 
BRANCH  17  18
ATOM     18  C   UNL     1       3.637   3.003  19.040  0.00  0.00    +0.000 C 
BRANCH  18  19
ATOM     19  C   UNL     1       3.482   3.833  17.765  0.00  0.00    +0.000 C 
BRANCH  19  20
ATOM     20  O   UNL     1       4.314   4.998  17.773  0.00  0.00    +0.000 OA
BRANCH  20  22
ATOM     21  N   UNL     1       6.354   4.099  17.575  0.00  0.00    +0.000 N 
ATOM     22  C   UNL     1       5.516   4.829  18.353  0.00  0.00    +0.000 C 
ATOM     23  O   UNL     1       5.827   5.223  19.495  0.00  0.00    +0.000 OA
ATOM     24  H   UNL     1       6.775   3.265  17.987  0.00  0.00    +0.000 HD
BRANCH  21  25
ATOM     25  C   UNL     1       6.746   4.555  16.259  0.00  0.00    +0.000 C 
BRANCH  25  26
ATOM     26  C   UNL     1       6.035   3.819  15.112  0.00  0.00    +0.000 C 
BRANCH  26  28
ATOM     27  C   UNL     1       5.924   3.441  12.614  0.00  0.00    +0.000 C 
ATOM     28  C   UNL     1       6.542   4.261  13.736  0.00  0.00    +0.000 C 
ENDBRANCH  26  28
ENDBRANCH  25  26
ENDBRANCH  21  25
ENDBRANCH  20  22
ENDBRANCH  19  20
ENDBRANCH  18  19
ENDBRANCH  17  18
ENDBRANCH  16  17
ENDBRANCH   1  16
TORSDOF 19
ENDMDL
MODEL 9
REMARK VINA RESULT:      -5.0      2.459      9.157
REMARK  Name = 
REMARK  21 active torsions:
REMARK  status: ('A' for Active; 'I' for Inactive)
REMARK    1  A    between atoms: C_1  and  C_2
REMARK    2  A    between atoms: C_2  and  C_3
REMARK    3  A    between atoms: C_3  and  C_4
REMARK    4  A    between atoms: C_4  and  N_5
REMARK    5  A    between atoms: C_6  and  O_8
REMARK    6  A    between atoms: O_8  and  C_9
REMARK    7  A    between atoms: C_9  and  C_10
REMARK    8  A    between atoms: C_10  and  C_11
REMARK    9  A    between atoms: C_11  and  C_12
REMARK   10  A    between atoms: C_12  and  C_13
REMARK   11  A    between atoms: C_13  and  C_14
REMARK   12  A    between atoms: C_14  and  C_15
REMARK   13  A    between atoms: C_15  and  C_16
REMARK   14  A    between atoms: C_16  and  C_17
REMARK   15  A    between atoms: C_17  and  C_18
REMARK   16  A    between atoms: C_18  and  O_19
REMARK   17  A    between atoms: O_19  and  C_20
REMARK   18  A    between atoms: N_22  and  C_23
REMARK   19  A    between atoms: C_23  and  C_24
REMARK   20  A    between atoms: C_24  and  C_25
REMARK   21  A    between atoms: C_25  and  C_26
REMARK                            x       y       z     vdW  Elec       q    Type
REMARK                         _______ _______ _______ _____ _____    ______ ____
ROOT
ATOM      1  C   UNL     1       1.758   8.394  19.293  0.00  0.00    +0.000 C 
ENDROOT
BRANCH   1   2
ATOM      2  C   UNL     1       2.607   7.539  18.353  0.00  0.00    +0.000 C 
BRANCH   2   3
ATOM      3  C   UNL     1       3.145   6.303  19.075  0.00  0.00    +0.000 C 
BRANCH   3   4
ATOM      4  C   UNL     1       2.038   5.277  19.309  0.00  0.00    +0.000 C 
BRANCH   4   5
ATOM      5  C   UNL     1       1.990   4.826  20.771  0.00  0.00    +0.000 C 
BRANCH   5   6
ATOM      6  C   UNL     1       2.600   3.439  20.957  0.00  0.00    +0.000 C 
BRANCH   6   7
ATOM      7  O   UNL     1       2.721   2.737  19.709  0.00  0.00    +0.000 OA
BRANCH   7   8
ATOM      8  C   UNL     1       3.978   2.317  19.384  0.00  0.00    +0.000 C 
ATOM      9  O   UNL     1       4.854   2.037  20.202  0.00  0.00    +0.000 OA
ATOM     10  N   UNL     1       4.135   2.193  18.033  0.00  0.00    +0.000 N 
ATOM     11  H   UNL     1       4.483   1.308  17.664  0.00  0.00    +0.000 HD
BRANCH  10  12
ATOM     12  C   UNL     1       3.998   3.333  17.148  0.00  0.00    +0.000 C 
BRANCH  12  13
ATOM     13  C   UNL     1       5.335   3.956  16.724  0.00  0.00    +0.000 C 
BRANCH  13  14
ATOM     14  C   UNL     1       6.064   4.603  17.907  0.00  0.00    +0.000 C 
ATOM     15  C   UNL     1       7.563   4.685  17.667  0.00  0.00    +0.000 C 
ENDBRANCH  13  14
ENDBRANCH  12  13
ENDBRANCH  10  12
ENDBRANCH   7   8
ENDBRANCH   6   7
ENDBRANCH   5   6
ENDBRANCH   4   5
ENDBRANCH   3   4
ENDBRANCH   2   3
ENDBRANCH   1   2
BRANCH   1  16
ATOM     16  C   UNL     1       1.119   9.562  18.544  0.00  0.00    +0.000 C 
BRANCH  16  17
ATOM     17  C   UNL     1       0.950  10.780  19.452  0.00  0.00    +0.000 C 
BRANCH  17  18
ATOM     18  C   UNL     1       0.693  12.051  18.639  0.00  0.00    +0.000 C 
BRANCH  18  19
ATOM     19  C   UNL     1      -0.131  13.076  19.420  0.00  0.00    +0.000 C 
BRANCH  19  20
ATOM     20  O   UNL     1      -1.490  13.133  18.971  0.00  0.00    +0.000 OA
BRANCH  20  22
ATOM     21  N   UNL     1      -3.564  12.307  19.123  0.00  0.00    +0.000 N 
ATOM     22  C   UNL     1      -2.366  12.462  19.740  0.00  0.00    +0.000 C 
ATOM     23  O   UNL     1      -2.156  12.080  20.908  0.00  0.00    +0.000 OA
ATOM     24  H   UNL     1      -4.396  12.638  19.614  0.00  0.00    +0.000 HD
BRANCH  21  25
ATOM     25  C   UNL     1      -3.679  11.579  17.877  0.00  0.00    +0.000 C 
BRANCH  25  26
ATOM     26  C   UNL     1      -3.020  10.191  17.910  0.00  0.00    +0.000 C 
BRANCH  26  28
ATOM     27  C   UNL     1      -2.888   9.796  15.415  0.00  0.00    +0.000 C 
ATOM     28  C   UNL     1      -2.100   9.958  16.706  0.00  0.00    +0.000 C 
ENDBRANCH  26  28
ENDBRANCH  25  26
ENDBRANCH  21  25
ENDBRANCH  20  22
ENDBRANCH  19  20
ENDBRANCH  18  19
ENDBRANCH  17  18
ENDBRANCH  16  17
ENDBRANCH   1  16
TORSDOF 19
ENDMDL
