MODEL 1
REMARK VINA RESULT:      -6.5      0.000      0.000
REMARK  Name = 
REMARK  5 active torsions:
REMARK  status: ('A' for Active; 'I' for Inactive)
REMARK    1  A    between atoms: C_1  and  C_2
REMARK    2  A    between atoms: C_2  and  C_3
REMARK    3  A    between atoms: C_5  and  C_6
REMARK    4  A    between atoms: C_11  and  C_12
REMARK    5  A    between atoms: C_12  and  O_14
REMARK                            x       y       z     vdW  Elec       q    Type
REMARK                         _______ _______ _______ _____ _____    ______ ____
ROOT
ATOM      1  C   UNL     1       2.610   3.884  19.149  0.00  0.00    +0.000 A 
ATOM      2  C   UNL     1       2.277   5.192  18.754  0.00  0.00    +0.000 A 
ATOM      3  C   UNL     1       3.246   6.081  18.280  0.00  0.00    +0.000 A 
ATOM      4  C   UNL     1       2.914   7.473  17.851  0.00  0.00    +0.000 C 
ATOM      5  N   UNL     1       4.570   5.679  18.212  0.00  0.00    +0.000 N 
ATOM      6  O   UNL     1       5.495   6.458  17.779  0.00  0.00    +0.000 OA
ATOM      7  C   UNL     1       4.933   4.374  18.608  0.00  0.00    +0.000 A 
ATOM      8  N   UNL     1       6.325   4.051  18.554  0.00  0.00    +0.000 N 
ATOM      9  C   UNL     1       3.955   3.467  19.066  0.00  0.00    +0.000 A 
ATOM     10  H   UNL     1       6.759   4.921  18.190  0.00  0.00    +0.000 HD
ATOM     11  H   UNL     1       6.501   3.302  17.879  0.00  0.00    +0.000 HD
ENDROOT
BRANCH   1  13
ATOM     12  C   UNL     1       1.446   3.140  21.246  0.00  0.00    +0.000 C 
ATOM     13  C   UNL     1       1.488   3.044  19.727  0.00  0.00    +0.000 C 
ENDBRANCH   1  13
BRANCH   9  14
ATOM     14  C   UNL     1       4.368   2.082  19.451  0.00  0.00    +0.000 C 
ATOM     15  O   UNL     1       4.943   1.814  20.489  0.00  0.00    +0.000 OA
BRANCH  14  16
ATOM     16  O   UNL     1       4.054   1.136  18.539  0.00  0.00    +0.000 OA
ATOM     17  H   UNL     1       4.630   1.154  17.738  0.00  0.00    +0.000 HD
ENDBRANCH  14  16
ENDBRANCH   9  14
TORSDOF 3
ENDMDL
MODEL 2
REMARK VINA RESULT:      -6.3      2.027      3.912
REMARK  Name = 
REMARK  5 active torsions:
REMARK  status: ('A' for Active; 'I' for Inactive)
REMARK    1  A    between atoms: C_1  and  C_2
REMARK    2  A    between atoms: C_2  and  C_3
REMARK    3  A    between atoms: C_5  and  C_6
REMARK    4  A    between atoms: C_11  and  C_12
REMARK    5  A    between atoms: C_12  and  O_14
REMARK                            x       y       z     vdW  Elec       q    Type
REMARK                         _______ _______ _______ _____ _____    ______ ____
ROOT
ATOM      1  C   UNL     1       4.176   5.436  18.013  0.00  0.00    +0.000 A 
ATOM      2  C   UNL     1       2.810   5.154  17.829  0.00  0.00    +0.000 A 
ATOM      3  C   UNL     1       2.235   3.977  18.316  0.00  0.00    +0.000 A 
ATOM      4  C   UNL     1       0.786   3.660  18.136  0.00  0.00    +0.000 C 
ATOM      5  N   UNL     1       3.024   3.053  18.983  0.00  0.00    +0.000 N 
ATOM      6  O   UNL     1       2.540   1.961  19.453  0.00  0.00    +0.000 OA
ATOM      7  C   UNL     1       4.399   3.308  19.175  0.00  0.00    +0.000 A 
ATOM      8  N   UNL     1       5.155   2.286  19.829  0.00  0.00    +0.000 N 
ATOM      9  C   UNL     1       4.978   4.505  18.705  0.00  0.00    +0.000 A 
ATOM     10  H   UNL     1       4.445   1.556  20.032  0.00  0.00    +0.000 HD
ATOM     11  H   UNL     1       5.530   2.620  20.719  0.00  0.00    +0.000 HD
ENDROOT
BRANCH   1  13
ATOM     12  C   UNL     1       5.130   6.451  15.925  0.00  0.00    +0.000 C 
ATOM     13  C   UNL     1       4.700   6.702  17.363  0.00  0.00    +0.000 C 
ENDBRANCH   1  13
BRANCH   9  14
ATOM     14  C   UNL     1       6.431   4.758  18.951  0.00  0.00    +0.000 C 
ATOM     15  O   UNL     1       6.851   5.440  19.867  0.00  0.00    +0.000 OA
BRANCH  14  16
ATOM     16  O   UNL     1       7.256   4.167  18.059  0.00  0.00    +0.000 OA
ATOM     17  H   UNL     1       6.983   3.252  17.815  0.00  0.00    +0.000 HD
ENDBRANCH  14  16
ENDBRANCH   9  14
TORSDOF 3
ENDMDL
MODEL 3
REMARK VINA RESULT:      -6.2      0.971      1.286
REMARK  Name = 
REMARK  5 active torsions:
REMARK  status: ('A' for Active; 'I' for Inactive)
REMARK    1  A    between atoms: C_1  and  C_2
REMARK    2  A    between atoms: C_2  and  C_3
REMARK    3  A    between atoms: C_5  and  C_6
REMARK    4  A    between atoms: C_11  and  C_12
REMARK    5  A    between atoms: C_12  and  O_14
REMARK                            x       y       z     vdW  Elec       q    Type
REMARK                         _______ _______ _______ _____ _____    ______ ____
ROOT
ATOM      1  C   UNL     1       2.767   4.515  19.535  0.00  0.00    +0.000 A 
ATOM      2  C   UNL     1       2.510   5.860  19.212  0.00  0.00    +0.000 A 
ATOM      3  C   UNL     1       3.179   6.501  18.166  0.00  0.00    +0.000 A 
ATOM      4  C   UNL     1       2.918   7.926  17.804  0.00  0.00    +0.000 C 
ATOM      5  N   UNL     1       4.131   5.809  17.435  0.00  0.00    +0.000 N 
ATOM      6  O   UNL     1       4.768   6.353  16.462  0.00  0.00    +0.000 OA
ATOM      7  C   UNL     1       4.414   4.460  17.742  0.00  0.00    +0.000 A 
ATOM      8  N   UNL     1       5.443   3.830  16.975  0.00  0.00    +0.000 N 
ATOM      9  C   UNL     1       3.725   3.803  18.783  0.00  0.00    +0.000 A 
ATOM     10  H   UNL     1       5.741   4.576  16.316  0.00  0.00    +0.000 HD
ATOM     11  H   UNL     1       5.067   3.053  16.426  0.00  0.00    +0.000 HD
ENDROOT
BRANCH   1  13
ATOM     12  C   UNL     1       0.729   3.298  20.353  0.00  0.00    +0.000 C 
ATOM     13  C   UNL     1       2.043   3.958  20.745  0.00  0.00    +0.000 C 
ENDBRANCH   1  13
BRANCH   9  14
ATOM     14  C   UNL     1       4.027   2.366  19.063  0.00  0.00    +0.000 C 
ATOM     15  O   UNL     1       3.352   1.443  18.649  0.00  0.00    +0.000 OA
BRANCH  14  16
ATOM     16  O   UNL     1       5.120   2.168  19.832  0.00  0.00    +0.000 OA
ATOM     17  H   UNL     1       5.615   1.345  19.608  0.00  0.00    +0.000 HD
ENDBRANCH  14  16
ENDBRANCH   9  14
TORSDOF 3
ENDMDL
MODEL 4
REMARK VINA RESULT:      -6.1      1.558      4.204
REMARK  Name = 
REMARK  5 active torsions:
REMARK  status: ('A' for Active; 'I' for Inactive)
REMARK    1  A    between atoms: C_1  and  C_2
REMARK    2  A    between atoms: C_2  and  C_3
REMARK    3  A    between atoms: C_5  and  C_6
REMARK    4  A    between atoms: C_11  and  C_12
REMARK    5  A    between atoms: C_12  and  O_14
REMARK                            x       y       z     vdW  Elec       q    Type
REMARK                         _______ _______ _______ _____ _____    ______ ____
ROOT
ATOM      1  C   UNL     1       3.670   6.583  18.168  0.00  0.00    +0.000 A 
ATOM      2  C   UNL     1       2.895   5.905  19.127  0.00  0.00    +0.000 A 
ATOM      3  C   UNL     1       3.325   4.704  19.696  0.00  0.00    +0.000 A 
ATOM      4  C   UNL     1       2.521   3.970  20.720  0.00  0.00    +0.000 C 
ATOM      5  N   UNL     1       4.532   4.150  19.300  0.00  0.00    +0.000 N 
ATOM      6  O   UNL     1       4.971   3.051  19.798  0.00  0.00    +0.000 OA
ATOM      7  C   UNL     1       5.326   4.806  18.335  0.00  0.00    +0.000 A 
ATOM      8  N   UNL     1       6.533   4.147  17.943  0.00  0.00    +0.000 N 
ATOM      9  C   UNL     1       4.906   6.030  17.774  0.00  0.00    +0.000 A 
ATOM     10  H   UNL     1       6.537   3.288  18.526  0.00  0.00    +0.000 HD
ATOM     11  H   UNL     1       7.352   4.705  18.195  0.00  0.00    +0.000 HD
ENDROOT
BRANCH   1  13
ATOM     12  C   UNL     1       2.002   8.434  18.475  0.00  0.00    +0.000 C 
ATOM     13  C   UNL     1       3.058   7.830  17.560  0.00  0.00    +0.000 C 
ENDBRANCH   1  13
BRANCH   9  14
ATOM     14  C   UNL     1       5.784   6.713  16.776  0.00  0.00    +0.000 C 
ATOM     15  O   UNL     1       6.782   7.343  17.074  0.00  0.00    +0.000 OA
BRANCH  14  16
ATOM     16  O   UNL     1       5.373   6.584  15.494  0.00  0.00    +0.000 OA
ATOM     17  H   UNL     1       5.331   7.439  15.006  0.00  0.00    +0.000 HD
ENDBRANCH  14  16
ENDBRANCH   9  14
TORSDOF 3
ENDMDL
MODEL 5
REMARK VINA RESULT:      -6.1      2.950      4.087
REMARK  Name = 
REMARK  5 active torsions:
REMARK  status: ('A' for Active; 'I' for Inactive)
REMARK    1  A    between atoms: C_1  and  C_2
REMARK    2  A    between atoms: C_2  and  C_3
REMARK    3  A    between atoms: C_5  and  C_6
REMARK    4  A    between atoms: C_11  and  C_12
REMARK    5  A    between atoms: C_12  and  O_14
REMARK                            x       y       z     vdW  Elec       q    Type
REMARK                         _______ _______ _______ _____ _____    ______ ____
ROOT
ATOM      1  C   UNL     1       4.933   3.900  17.013  0.00  0.00    +0.000 A 
ATOM      2  C   UNL     1       5.072   3.519  15.667  0.00  0.00    +0.000 A 
ATOM      3  C   UNL     1       6.036   4.101  14.839  0.00  0.00    +0.000 A 
ATOM      4  C   UNL     1       6.203   3.709  13.407  0.00  0.00    +0.000 C 
ATOM      5  N   UNL     1       6.868   5.088  15.343  0.00  0.00    +0.000 N 
ATOM      6  O   UNL     1       7.772   5.647  14.623  0.00  0.00    +0.000 OA
ATOM      7  C   UNL     1       6.746   5.493  16.690  0.00  0.00    +0.000 A 
ATOM      8  N   UNL     1       7.607   6.550  17.122  0.00  0.00    +0.000 N 
ATOM      9  C   UNL     1       5.789   4.893  17.534  0.00  0.00    +0.000 A 
ATOM     10  H   UNL     1       8.167   6.764  16.274  0.00  0.00    +0.000 HD
ATOM     11  H   UNL     1       8.246   6.226  17.851  0.00  0.00    +0.000 HD
ENDROOT
BRANCH   1  13
ATOM     12  C   UNL     1       2.460   3.908  17.444  0.00  0.00    +0.000 C 
ATOM     13  C   UNL     1       3.795   3.261  17.785  0.00  0.00    +0.000 C 
ENDBRANCH   1  13
BRANCH   9  14
ATOM     14  C   UNL     1       5.705   5.325  18.963  0.00  0.00    +0.000 C 
ATOM     15  O   UNL     1       4.708   5.812  19.463  0.00  0.00    +0.000 OA
BRANCH  14  16
ATOM     16  O   UNL     1       6.842   5.137  19.668  0.00  0.00    +0.000 OA
ATOM     17  H   UNL     1       6.816   4.343  20.253  0.00  0.00    +0.000 HD
ENDBRANCH  14  16
ENDBRANCH   9  14
TORSDOF 3
ENDMDL
MODEL 6
REMARK VINA RESULT:      -6.0      2.012      3.952
REMARK  Name = 
REMARK  5 active torsions:
REMARK  status: ('A' for Active; 'I' for Inactive)
REMARK    1  A    between atoms: C_1  and  C_2
REMARK    2  A    between atoms: C_2  and  C_3
REMARK    3  A    between atoms: C_5  and  C_6
REMARK    4  A    between atoms: C_11  and  C_12
REMARK    5  A    between atoms: C_12  and  O_14
REMARK                            x       y       z     vdW  Elec       q    Type
REMARK                         _______ _______ _______ _____ _____    ______ ____
ROOT
ATOM      1  C   UNL     1       3.573   5.453  18.037  0.00  0.00    +0.000 A 
ATOM      2  C   UNL     1       2.501   5.424  18.946  0.00  0.00    +0.000 A 
ATOM      3  C   UNL     1       2.006   4.220  19.455  0.00  0.00    +0.000 A 
ATOM      4  C   UNL     1       0.871   4.167  20.425  0.00  0.00    +0.000 C 
ATOM      5  N   UNL     1       2.568   3.021  19.046  0.00  0.00    +0.000 N 
ATOM      6  O   UNL     1       2.152   1.890  19.490  0.00  0.00    +0.000 OA
ATOM      7  C   UNL     1       3.641   3.021  18.130  0.00  0.00    +0.000 A 
ATOM      8  N   UNL     1       4.134   1.742  17.720  0.00  0.00    +0.000 N 
ATOM      9  C   UNL     1       4.157   4.234  17.631  0.00  0.00    +0.000 A 
ATOM     10  H   UNL     1       3.544   1.076  18.255  0.00  0.00    +0.000 HD
ATOM     11  H   UNL     1       5.105   1.613  18.014  0.00  0.00    +0.000 HD
ENDROOT
BRANCH   1  13
ATOM     12  C   UNL     1       2.925   7.870  17.838  0.00  0.00    +0.000 C 
ATOM     13  C   UNL     1       3.962   6.812  17.489  0.00  0.00    +0.000 C 
ENDBRANCH   1  13
BRANCH   9  14
ATOM     14  C   UNL     1       5.313   4.201  16.684  0.00  0.00    +0.000 C 
ATOM     15  O   UNL     1       5.203   4.341  15.480  0.00  0.00    +0.000 OA
BRANCH  14  16
ATOM     16  O   UNL     1       6.510   3.991  17.275  0.00  0.00    +0.000 OA
ATOM     17  H   UNL     1       7.050   4.810  17.372  0.00  0.00    +0.000 HD
ENDBRANCH  14  16
ENDBRANCH   9  14
TORSDOF 3
ENDMDL
MODEL 7
REMARK VINA RESULT:      -6.0      2.068      3.259
REMARK  Name = 
REMARK  5 active torsions:
REMARK  status: ('A' for Active; 'I' for Inactive)
REMARK    1  A    between atoms: C_1  and  C_2
REMARK    2  A    between atoms: C_2  and  C_3
REMARK    3  A    between atoms: C_5  and  C_6
REMARK    4  A    between atoms: C_11  and  C_12
REMARK    5  A    between atoms: C_12  and  O_14
REMARK                            x       y       z     vdW  Elec       q    Type
REMARK                         _______ _______ _______ _____ _____    ______ ____
ROOT
ATOM      1  C   UNL     1       3.587   6.095  18.068  0.00  0.00    +0.000 A 
ATOM      2  C   UNL     1       4.744   6.772  17.640  0.00  0.00    +0.000 A 
ATOM      3  C   UNL     1       6.010   6.191  17.743  0.00  0.00    +0.000 A 
ATOM      4  C   UNL     1       7.251   6.890  17.290  0.00  0.00    +0.000 C 
ATOM      5  N   UNL     1       6.142   4.926  18.294  0.00  0.00    +0.000 N 
ATOM      6  O   UNL     1       7.284   4.349  18.405  0.00  0.00    +0.000 OA
ATOM      7  C   UNL     1       4.999   4.228  18.738  0.00  0.00    +0.000 A 
ATOM      8  N   UNL     1       5.222   2.949  19.339  0.00  0.00    +0.000 N 
ATOM      9  C   UNL     1       3.716   4.801  18.615  0.00  0.00    +0.000 A 
ATOM     10  H   UNL     1       6.252   2.834  19.280  0.00  0.00    +0.000 HD
ATOM     11  H   UNL     1       4.787   2.205  18.788  0.00  0.00    +0.000 HD
ENDROOT
BRANCH   1  13
ATOM     12  C   UNL     1       2.525   8.356  17.818  0.00  0.00    +0.000 C 
ATOM     13  C   UNL     1       2.283   6.863  17.985  0.00  0.00    +0.000 C 
ENDBRANCH   1  13
BRANCH   9  14
ATOM     14  C   UNL     1       2.523   4.023  19.068  0.00  0.00    +0.000 C 
ATOM     15  O   UNL     1       2.216   3.879  20.236  0.00  0.00    +0.000 OA
BRANCH  14  16
ATOM     16  O   UNL     1       1.803   3.476  18.063  0.00  0.00    +0.000 OA
ATOM     17  H   UNL     1       1.452   4.140  17.424  0.00  0.00    +0.000 HD
ENDBRANCH  14  16
ENDBRANCH   9  14
TORSDOF 3
ENDMDL
MODEL 8
REMARK VINA RESULT:      -6.0      2.798      4.492
REMARK  Name = 
REMARK  5 active torsions:
REMARK  status: ('A' for Active; 'I' for Inactive)
REMARK    1  A    between atoms: C_1  and  C_2
REMARK    2  A    between atoms: C_2  and  C_3
REMARK    3  A    between atoms: C_5  and  C_6
REMARK    4  A    between atoms: C_11  and  C_12
REMARK    5  A    between atoms: C_12  and  O_14
REMARK                            x       y       z     vdW  Elec       q    Type
REMARK                         _______ _______ _______ _____ _____    ______ ____
ROOT
ATOM      1  C   UNL     1       6.209   6.580  17.623  0.00  0.00    +0.000 A 
ATOM      2  C   UNL     1       4.897   7.063  17.472  0.00  0.00    +0.000 A 
ATOM      3  C   UNL     1       3.799   6.367  17.984  0.00  0.00    +0.000 A 
ATOM      4  C   UNL     1       2.398   6.864  17.839  0.00  0.00    +0.000 C 
ATOM      5  N   UNL     1       3.996   5.164  18.643  0.00  0.00    +0.000 N 
ATOM      6  O   UNL     1       3.020   4.492  19.135  0.00  0.00    +0.000 OA
ATOM      7  C   UNL     1       5.302   4.653  18.803  0.00  0.00    +0.000 A 
ATOM      8  N   UNL     1       5.419   3.384  19.450  0.00  0.00    +0.000 N 
ATOM      9  C   UNL     1       6.415   5.363  18.307  0.00  0.00    +0.000 A 
ATOM     10  H   UNL     1       4.435   3.139  19.677  0.00  0.00    +0.000 HD
ATOM     11  H   UNL     1       5.936   3.467  20.329  0.00  0.00    +0.000 HD
ENDROOT
BRANCH   1  13
ATOM     12  C   UNL     1       7.950   8.367  17.911  0.00  0.00    +0.000 C 
ATOM     13  C   UNL     1       7.308   7.378  16.948  0.00  0.00    +0.000 C 
ENDBRANCH   1  13
BRANCH   9  14
ATOM     14  C   UNL     1       7.787   4.809  18.518  0.00  0.00    +0.000 C 
ATOM     15  O   UNL     1       8.354   4.089  17.718  0.00  0.00    +0.000 OA
BRANCH  14  16
ATOM     16  O   UNL     1       8.357   5.169  19.690  0.00  0.00    +0.000 OA
ATOM     17  H   UNL     1       8.449   6.145  19.800  0.00  0.00    +0.000 HD
ENDBRANCH  14  16
ENDBRANCH   9  14
TORSDOF 3
ENDMDL
MODEL 9
REMARK VINA RESULT:      -6.0      1.743      3.731
REMARK  Name = 
REMARK  5 active torsions:
REMARK  status: ('A' for Active; 'I' for Inactive)
REMARK    1  A    between atoms: C_1  and  C_2
REMARK    2  A    between atoms: C_2  and  C_3
REMARK    3  A    between atoms: C_5  and  C_6
REMARK    4  A    between atoms: C_11  and  C_12
REMARK    5  A    between atoms: C_12  and  O_14
REMARK                            x       y       z     vdW  Elec       q    Type
REMARK                         _______ _______ _______ _____ _____    ______ ____
ROOT
ATOM      1  C   UNL     1       3.804   5.656  18.452  0.00  0.00    +0.000 A 
ATOM      2  C   UNL     1       2.529   5.564  19.037  0.00  0.00    +0.000 A 
ATOM      3  C   UNL     1       2.160   4.465  19.818  0.00  0.00    +0.000 A 
ATOM      4  C   UNL     1       0.813   4.350  20.452  0.00  0.00    +0.000 C 
ATOM      5  N   UNL     1       3.060   3.429  20.010  0.00  0.00    +0.000 N 
ATOM      6  O   UNL     1       2.769   2.401  20.724  0.00  0.00    +0.000 OA
ATOM      7  C   UNL     1       4.344   3.492  19.429  0.00  0.00    +0.000 A 
ATOM      8  N   UNL     1       5.197   2.363  19.634  0.00  0.00    +0.000 N 
ATOM      9  C   UNL     1       4.728   4.610  18.659  0.00  0.00    +0.000 A 
ATOM     10  H   UNL     1       4.620   1.730  20.222  0.00  0.00    +0.000 HD
ATOM     11  H   UNL     1       6.028   2.624  20.169  0.00  0.00    +0.000 HD
ENDROOT
BRANCH   1  13
ATOM     12  C   UNL     1       2.983   7.918  17.738  0.00  0.00    +0.000 C 
ATOM     13  C   UNL     1       4.055   6.853  17.556  0.00  0.00    +0.000 C 
ENDBRANCH   1  13
BRANCH   9  14
ATOM     14  C   UNL     1       6.105   4.659  18.081  0.00  0.00    +0.000 C 
ATOM     15  O   UNL     1       7.010   5.323  18.552  0.00  0.00    +0.000 OA
BRANCH  14  16
ATOM     16  O   UNL     1       6.270   3.904  16.973  0.00  0.00    +0.000 OA
ATOM     17  H   UNL     1       7.203   3.873  16.653  0.00  0.00    +0.000 HD
ENDBRANCH  14  16
ENDBRANCH   9  14
TORSDOF 3
ENDMDL
