MODEL 1
REMARK VINA RESULT:      -8.9      0.000      0.000
REMARK  Name = 
REMARK  5 active torsions:
REMARK  status: ('A' for Active; 'I' for Inactive)
REMARK    1  A    between atoms: C_7  and  C_8
REMARK    2  A    between atoms: C_10  and  O_11
REMARK    3  A    between atoms: C_12  and  C_13
REMARK    4  A    between atoms: C_13  and  O_14
REMARK    5  A    between atoms: N_17  and  C_18
REMARK                            x       y       z     vdW  Elec       q    Type
REMARK                         _______ _______ _______ _____ _____    ______ ____
ROOT
ATOM      1  O   UNL     1       7.676   9.316  17.902  0.00  0.00    +0.000 OA
ATOM      2  C   UNL     1       8.564   8.891  18.626  0.00  0.00    +0.000 C 
ATOM      3  N   UNL     1       8.672   7.583  19.056  0.00  0.00    +0.000 N 
ATOM      4  C   UNL     1       7.761   6.594  18.757  0.00  0.00    +0.000 A 
ATOM      5  N   UNL     1       7.665   5.473  19.440  0.00  0.00    +0.000 NA
ATOM      6  N   UNL     1       6.610   4.687  19.005  0.00  0.00    +0.000 NA
ATOM      7  C   UNL     1       5.980   5.231  17.978  0.00  0.00    +0.000 A 
ATOM      8  S   UNL     1       6.683   6.696  17.439  0.00  0.00    +0.000 S 
ATOM      9  N   UNL     1       9.599   9.674  19.120  0.00  0.00    +0.000 N 
ATOM     10  H   UNL     1       9.246   7.381  19.859  0.00  0.00    +0.000 HD
ATOM     11  H   UNL     1      10.420   9.176  19.417  0.00  0.00    +0.000 HD
ENDROOT
BRANCH   9  12
ATOM     12  C   UNL     1       9.726  11.086  18.958  0.00  0.00    +0.000 A 
ATOM     13  C   UNL     1      10.075  11.632  17.712  0.00  0.00    +0.000 A 
ATOM     14  C   UNL     1      10.234  13.003  17.542  0.00  0.00    +0.000 A 
ATOM     15  C   UNL     1      10.034  13.859  18.616  0.00  0.00    +0.000 A 
ATOM     16  C   UNL     1       9.653  13.359  19.867  0.00  0.00    +0.000 A 
ATOM     17  C   UNL     1       9.449  14.258  20.927  0.00  0.00    +0.000 A 
ATOM     18  C   UNL     1       9.064  13.807  22.186  0.00  0.00    +0.000 A 
ATOM     19  C   UNL     1       8.881  12.449  22.402  0.00  0.00    +0.000 A 
ATOM     20  C   UNL     1       9.089  11.541  21.359  0.00  0.00    +0.000 A 
ATOM     21  C   UNL     1       9.480  11.961  20.062  0.00  0.00    +0.000 A 
ENDBRANCH   9  12
BRANCH   7  22
ATOM     22  C   UNL     1       4.730   4.712  17.331  0.00  0.00    +0.000 C 
ATOM     23  C   UNL     1       3.505   5.557  17.656  0.00  0.00    +0.000 C 
ATOM     24  C   UNL     1       2.887   4.844  18.837  0.00  0.00    +0.000 C 
ATOM     25  C   UNL     1       3.260   3.383  18.603  0.00  0.00    +0.000 C 
ATOM     26  O   UNL     1       4.487   3.382  17.831  0.00  0.00    +0.000 OA
BRANCH  24  27
ATOM     27  O   UNL     1       3.437   5.339  20.055  0.00  0.00    +0.000 OA
ATOM     28  H   UNL     1       3.772   4.592  20.593  0.00  0.00    +0.000 HD
ENDBRANCH  24  27
BRANCH  25  29
ATOM     29  C   UNL     1       2.190   2.644  17.790  0.00  0.00    +0.000 C 
BRANCH  29  30
ATOM     30  O   UNL     1       1.638   1.567  18.545  0.00  0.00    +0.000 OA
ATOM     31  H   UNL     1       2.334   1.288  19.172  0.00  0.00    +0.000 HD
ENDBRANCH  29  30
ENDBRANCH  25  29
ENDBRANCH   7  22
TORSDOF 5
ENDMDL
MODEL 2
REMARK VINA RESULT:      -8.4      7.199     10.525
REMARK  Name = 
REMARK  5 active torsions:
REMARK  status: ('A' for Active; 'I' for Inactive)
REMARK    1  A    between atoms: C_7  and  C_8
REMARK    2  A    between atoms: C_10  and  O_11
REMARK    3  A    between atoms: C_12  and  C_13
REMARK    4  A    between atoms: C_13  and  O_14
REMARK    5  A    between atoms: N_17  and  C_18
REMARK                            x       y       z     vdW  Elec       q    Type
REMARK                         _______ _______ _______ _____ _____    ______ ____
ROOT
ATOM      1  O   UNL     1       1.322   8.565  19.388  0.00  0.00    +0.000 OA
ATOM      2  C   UNL     1       1.578   7.920  20.394  0.00  0.00    +0.000 C 
ATOM      3  N   UNL     1       1.168   8.253  21.669  0.00  0.00    +0.000 N 
ATOM      4  C   UNL     1       0.450   9.386  21.979  0.00  0.00    +0.000 A 
ATOM      5  N   UNL     1       0.373   9.881  23.196  0.00  0.00    +0.000 NA
ATOM      6  N   UNL     1      -0.326  11.077  23.229  0.00  0.00    +0.000 NA
ATOM      7  C   UNL     1      -0.787  11.412  22.038  0.00  0.00    +0.000 A 
ATOM      8  S   UNL     1      -0.457  10.253  20.822  0.00  0.00    +0.000 S 
ATOM      9  N   UNL     1       2.325   6.749  20.390  0.00  0.00    +0.000 N 
ATOM     10  H   UNL     1       1.648   7.846  22.456  0.00  0.00    +0.000 HD
ATOM     11  H   UNL     1       2.199   6.149  21.187  0.00  0.00    +0.000 HD
ENDROOT
BRANCH   9  12
ATOM     12  C   UNL     1       2.990   6.187  19.259  0.00  0.00    +0.000 A 
ATOM     13  C   UNL     1       3.958   6.927  18.562  0.00  0.00    +0.000 A 
ATOM     14  C   UNL     1       4.594   6.409  17.439  0.00  0.00    +0.000 A 
ATOM     15  C   UNL     1       4.281   5.132  16.997  0.00  0.00    +0.000 A 
ATOM     16  C   UNL     1       3.345   4.348  17.682  0.00  0.00    +0.000 A 
ATOM     17  C   UNL     1       3.063   3.055  17.211  0.00  0.00    +0.000 A 
ATOM     18  C   UNL     1       2.145   2.238  17.864  0.00  0.00    +0.000 A 
ATOM     19  C   UNL     1       1.494   2.705  18.995  0.00  0.00    +0.000 A 
ATOM     20  C   UNL     1       1.757   3.994  19.472  0.00  0.00    +0.000 A 
ATOM     21  C   UNL     1       2.687   4.856  18.836  0.00  0.00    +0.000 A 
ENDBRANCH   9  12
BRANCH   7  22
ATOM     22  C   UNL     1      -1.486  12.693  21.687  0.00  0.00    +0.000 C 
ATOM     23  C   UNL     1      -1.947  13.467  22.915  0.00  0.00    +0.000 C 
ATOM     24  C   UNL     1      -3.384  13.028  23.090  0.00  0.00    +0.000 C 
ATOM     25  C   UNL     1      -3.839  12.735  21.663  0.00  0.00    +0.000 C 
ATOM     26  O   UNL     1      -2.655  12.367  20.912  0.00  0.00    +0.000 OA
BRANCH  24  27
ATOM     27  O   UNL     1      -3.447  11.866  23.913  0.00  0.00    +0.000 OA
ATOM     28  H   UNL     1      -4.384  11.654  24.111  0.00  0.00    +0.000 HD
ENDBRANCH  24  27
BRANCH  25  29
ATOM     29  C   UNL     1      -4.457  13.970  20.997  0.00  0.00    +0.000 C 
BRANCH  29  30
ATOM     30  O   UNL     1      -4.642  13.749  19.599  0.00  0.00    +0.000 OA
ATOM     31  H   UNL     1      -4.862  14.617  19.212  0.00  0.00    +0.000 HD
ENDBRANCH  29  30
ENDBRANCH  25  29
ENDBRANCH   7  22
TORSDOF 5
ENDMDL
MODEL 3
REMARK VINA RESULT:      -8.3      1.541      1.715
REMARK  Name = 
REMARK  5 active torsions:
REMARK  status: ('A' for Active; 'I' for Inactive)
REMARK    1  A    between atoms: C_7  and  C_8
REMARK    2  A    between atoms: C_10  and  O_11
REMARK    3  A    between atoms: C_12  and  C_13
REMARK    4  A    between atoms: C_13  and  O_14
REMARK    5  A    between atoms: N_17  and  C_18
REMARK                            x       y       z     vdW  Elec       q    Type
REMARK                         _______ _______ _______ _____ _____    ______ ____
ROOT
ATOM      1  O   UNL     1       7.007   9.017  17.555  0.00  0.00    +0.000 OA
ATOM      2  C   UNL     1       8.027   8.682  18.140  0.00  0.00    +0.000 C 
ATOM      3  N   UNL     1       8.303   7.402  18.575  0.00  0.00    +0.000 N 
ATOM      4  C   UNL     1       7.438   6.338  18.443  0.00  0.00    +0.000 A 
ATOM      5  N   UNL     1       7.536   5.236  19.155  0.00  0.00    +0.000 NA
ATOM      6  N   UNL     1       6.492   4.359  18.907  0.00  0.00    +0.000 NA
ATOM      7  C   UNL     1       5.672   4.820  17.979  0.00  0.00    +0.000 A 
ATOM      8  S   UNL     1       6.165   6.316  17.307  0.00  0.00    +0.000 S 
ATOM      9  N   UNL     1       9.061   9.557  18.450  0.00  0.00    +0.000 N 
ATOM     10  H   UNL     1       9.007   7.270  19.282  0.00  0.00    +0.000 HD
ATOM     11  H   UNL     1       9.954   9.132  18.626  0.00  0.00    +0.000 HD
ENDROOT
BRANCH   9  12
ATOM     12  C   UNL     1       9.049  10.969  18.242  0.00  0.00    +0.000 A 
ATOM     13  C   UNL     1       7.958  11.586  17.610  0.00  0.00    +0.000 A 
ATOM     14  C   UNL     1       7.942  12.957  17.370  0.00  0.00    +0.000 A 
ATOM     15  C   UNL     1       9.016  13.739  17.769  0.00  0.00    +0.000 A 
ATOM     16  C   UNL     1      10.109  13.168  18.431  0.00  0.00    +0.000 A 
ATOM     17  C   UNL     1      11.173  13.995  18.829  0.00  0.00    +0.000 A 
ATOM     18  C   UNL     1      12.277  13.472  19.496  0.00  0.00    +0.000 A 
ATOM     19  C   UNL     1      12.333  12.114  19.770  0.00  0.00    +0.000 A 
ATOM     20  C   UNL     1      11.287  11.276  19.371  0.00  0.00    +0.000 A 
ATOM     21  C   UNL     1      10.144  11.770  18.692  0.00  0.00    +0.000 A 
ENDBRANCH   9  12
BRANCH   7  22
ATOM     22  C   UNL     1       4.381   4.188  17.547  0.00  0.00    +0.000 C 
ATOM     23  C   UNL     1       3.185   5.114  17.722  0.00  0.00    +0.000 C 
ATOM     24  C   UNL     1       2.630   4.721  19.073  0.00  0.00    +0.000 C 
ATOM     25  C   UNL     1       2.977   3.239  19.180  0.00  0.00    +0.000 C 
ATOM     26  O   UNL     1       4.157   3.025  18.366  0.00  0.00    +0.000 OA
BRANCH  24  27
ATOM     27  O   UNL     1       3.254   5.484  20.103  0.00  0.00    +0.000 OA
ATOM     28  H   UNL     1       2.688   6.251  20.332  0.00  0.00    +0.000 HD
ENDBRANCH  24  27
BRANCH  25  29
ATOM     29  C   UNL     1       1.855   2.350  18.630  0.00  0.00    +0.000 C 
BRANCH  29  30
ATOM     30  O   UNL     1       0.593   2.741  19.169  0.00  0.00    +0.000 OA
ATOM     31  H   UNL     1       0.089   1.917  19.311  0.00  0.00    +0.000 HD
ENDBRANCH  29  30
ENDBRANCH  25  29
ENDBRANCH   7  22
TORSDOF 5
ENDMDL
MODEL 4
REMARK VINA RESULT:      -8.0      6.456     10.429
REMARK  Name = 
REMARK  5 active torsions:
REMARK  status: ('A' for Active; 'I' for Inactive)
REMARK    1  A    between atoms: C_7  and  C_8
REMARK    2  A    between atoms: C_10  and  O_11
REMARK    3  A    between atoms: C_12  and  C_13
REMARK    4  A    between atoms: C_13  and  O_14
REMARK    5  A    between atoms: N_17  and  C_18
REMARK                            x       y       z     vdW  Elec       q    Type
REMARK                         _______ _______ _______ _____ _____    ______ ____
ROOT
ATOM      1  O   UNL     1       1.568   8.001  18.976  0.00  0.00    +0.000 OA
ATOM      2  C   UNL     1       1.888   7.669  20.107  0.00  0.00    +0.000 C 
ATOM      3  N   UNL     1       1.573   8.371  21.253  0.00  0.00    +0.000 N 
ATOM      4  C   UNL     1       0.889   9.566  21.264  0.00  0.00    +0.000 A 
ATOM      5  N   UNL     1       0.904  10.396  22.285  0.00  0.00    +0.000 NA
ATOM      6  N   UNL     1       0.221  11.571  22.012  0.00  0.00    +0.000 NA
ATOM      7  C   UNL     1      -0.320  11.558  20.807  0.00  0.00    +0.000 A 
ATOM      8  S   UNL     1      -0.088  10.085  19.965  0.00  0.00    +0.000 S 
ATOM      9  N   UNL     1       2.622   6.526  20.398  0.00  0.00    +0.000 N 
ATOM     10  H   UNL     1       2.103   8.196  22.092  0.00  0.00    +0.000 HD
ATOM     11  H   UNL     1       2.546   6.188  21.342  0.00  0.00    +0.000 HD
ENDROOT
BRANCH   9  12
ATOM     12  C   UNL     1       3.199   5.640  19.440  0.00  0.00    +0.000 A 
ATOM     13  C   UNL     1       4.398   5.974  18.792  0.00  0.00    +0.000 A 
ATOM     14  C   UNL     1       4.960   5.138  17.833  0.00  0.00    +0.000 A 
ATOM     15  C   UNL     1       4.337   3.941  17.511  0.00  0.00    +0.000 A 
ATOM     16  C   UNL     1       3.157   3.554  18.158  0.00  0.00    +0.000 A 
ATOM     17  C   UNL     1       2.561   2.329  17.813  0.00  0.00    +0.000 A 
ATOM     18  C   UNL     1       1.391   1.900  18.434  0.00  0.00    +0.000 A 
ATOM     19  C   UNL     1       0.801   2.694  19.406  0.00  0.00    +0.000 A 
ATOM     20  C   UNL     1       1.376   3.920  19.753  0.00  0.00    +0.000 A 
ATOM     21  C   UNL     1       2.568   4.391  19.146  0.00  0.00    +0.000 A 
ENDBRANCH   9  12
BRANCH   7  22
ATOM     22  C   UNL     1      -1.029  12.702  20.143  0.00  0.00    +0.000 C 
ATOM     23  C   UNL     1      -0.620  12.882  18.687  0.00  0.00    +0.000 C 
ATOM     24  C   UNL     1       0.470  13.928  18.754  0.00  0.00    +0.000 C 
ATOM     25  C   UNL     1       0.076  14.772  19.963  0.00  0.00    +0.000 C 
ATOM     26  O   UNL     1      -0.683  13.911  20.847  0.00  0.00    +0.000 OA
BRANCH  24  27
ATOM     27  O   UNL     1       1.740  13.306  18.937  0.00  0.00    +0.000 OA
ATOM     28  H   UNL     1       1.613  12.366  19.184  0.00  0.00    +0.000 HD
ENDBRANCH  24  27
BRANCH  25  29
ATOM     29  C   UNL     1      -0.821  15.951  19.566  0.00  0.00    +0.000 C 
BRANCH  29  30
ATOM     30  O   UNL     1      -0.639  16.282  18.190  0.00  0.00    +0.000 OA
ATOM     31  H   UNL     1      -0.003  17.023  18.169  0.00  0.00    +0.000 HD
ENDBRANCH  29  30
ENDBRANCH  25  29
ENDBRANCH   7  22
TORSDOF 5
ENDMDL
MODEL 5
REMARK VINA RESULT:      -7.9      6.349      9.450
REMARK  Name = 
REMARK  5 active torsions:
REMARK  status: ('A' for Active; 'I' for Inactive)
REMARK    1  A    between atoms: C_7  and  C_8
REMARK    2  A    between atoms: C_10  and  O_11
REMARK    3  A    between atoms: C_12  and  C_13
REMARK    4  A    between atoms: C_13  and  O_14
REMARK    5  A    between atoms: N_17  and  C_18
REMARK                            x       y       z     vdW  Elec       q    Type
REMARK                         _______ _______ _______ _____ _____    ______ ____
ROOT
ATOM      1  O   UNL     1       2.009   7.614  18.806  0.00  0.00    +0.000 OA
ATOM      2  C   UNL     1       2.231   6.980  19.827  0.00  0.00    +0.000 C 
ATOM      3  N   UNL     1       1.894   7.391  21.101  0.00  0.00    +0.000 N 
ATOM      4  C   UNL     1       1.298   8.598  21.390  0.00  0.00    +0.000 A 
ATOM      5  N   UNL     1       1.306   9.137  22.591  0.00  0.00    +0.000 NA
ATOM      6  N   UNL     1       0.729  10.396  22.602  0.00  0.00    +0.000 NA
ATOM      7  C   UNL     1       0.267  10.737  21.412  0.00  0.00    +0.000 A 
ATOM      8  S   UNL     1       0.447   9.513  20.228  0.00  0.00    +0.000 S 
ATOM      9  N   UNL     1       2.861   5.741  19.844  0.00  0.00    +0.000 N 
ATOM     10  H   UNL     1       2.355   6.964  21.888  0.00  0.00    +0.000 HD
ATOM     11  H   UNL     1       2.701   5.182  20.663  0.00  0.00    +0.000 HD
ENDROOT
BRANCH   9  12
ATOM     12  C   UNL     1       3.433   5.082  18.715  0.00  0.00    +0.000 A 
ATOM     13  C   UNL     1       2.614   4.426  17.782  0.00  0.00    +0.000 A 
ATOM     14  C   UNL     1       3.156   3.752  16.692  0.00  0.00    +0.000 A 
ATOM     15  C   UNL     1       4.531   3.731  16.509  0.00  0.00    +0.000 A 
ATOM     16  C   UNL     1       5.382   4.399  17.398  0.00  0.00    +0.000 A 
ATOM     17  C   UNL     1       6.768   4.363  17.173  0.00  0.00    +0.000 A 
ATOM     18  C   UNL     1       7.650   5.019  18.026  0.00  0.00    +0.000 A 
ATOM     19  C   UNL     1       7.157   5.715  19.119  0.00  0.00    +0.000 A 
ATOM     20  C   UNL     1       5.780   5.752  19.363  0.00  0.00    +0.000 A 
ATOM     21  C   UNL     1       4.849   5.099  18.515  0.00  0.00    +0.000 A 
ENDBRANCH   9  12
BRANCH   7  22
ATOM     22  C   UNL     1      -0.314  12.069  21.036  0.00  0.00    +0.000 C 
ATOM     23  C   UNL     1      -0.602  12.947  22.246  0.00  0.00    +0.000 C 
ATOM     24  C   UNL     1      -2.062  12.678  22.537  0.00  0.00    +0.000 C 
ATOM     25  C   UNL     1      -2.645  12.369  21.161  0.00  0.00    +0.000 C 
ATOM     26  O   UNL     1      -1.563  11.836  20.357  0.00  0.00    +0.000 OA
BRANCH  24  27
ATOM     27  O   UNL     1      -2.192  11.572  23.426  0.00  0.00    +0.000 OA
ATOM     28  H   UNL     1      -2.603  10.817  22.954  0.00  0.00    +0.000 HD
ENDBRANCH  24  27
BRANCH  25  29
ATOM     29  C   UNL     1      -3.172  13.631  20.468  0.00  0.00    +0.000 C 
BRANCH  29  30
ATOM     30  O   UNL     1      -4.367  13.346  19.743  0.00  0.00    +0.000 OA
ATOM     31  H   UNL     1      -5.090  13.337  20.400  0.00  0.00    +0.000 HD
ENDBRANCH  29  30
ENDBRANCH  25  29
ENDBRANCH   7  22
TORSDOF 5
ENDMDL
MODEL 6
REMARK VINA RESULT:      -7.8      1.086      2.408
REMARK  Name = 
REMARK  5 active torsions:
REMARK  status: ('A' for Active; 'I' for Inactive)
REMARK    1  A    between atoms: C_7  and  C_8
REMARK    2  A    between atoms: C_10  and  O_11
REMARK    3  A    between atoms: C_12  and  C_13
REMARK    4  A    between atoms: C_13  and  O_14
REMARK    5  A    between atoms: N_17  and  C_18
REMARK                            x       y       z     vdW  Elec       q    Type
REMARK                         _______ _______ _______ _____ _____    ______ ____
ROOT
ATOM      1  O   UNL     1       7.741   9.983  18.267  0.00  0.00    +0.000 OA
ATOM      2  C   UNL     1       8.697   9.521  18.873  0.00  0.00    +0.000 C 
ATOM      3  N   UNL     1       8.939   8.175  19.056  0.00  0.00    +0.000 N 
ATOM      4  C   UNL     1       8.104   7.173  18.614  0.00  0.00    +0.000 A 
ATOM      5  N   UNL     1       8.138   5.945  19.086  0.00  0.00    +0.000 NA
ATOM      6  N   UNL     1       7.135   5.153  18.551  0.00  0.00    +0.000 NA
ATOM      7  C   UNL     1       6.411   5.807  17.660  0.00  0.00    +0.000 A 
ATOM      8  S   UNL     1       6.957   7.405  17.372  0.00  0.00    +0.000 S 
ATOM      9  N   UNL     1       9.684  10.299  19.466  0.00  0.00    +0.000 N 
ATOM     10  H   UNL     1       9.566   7.889  19.790  0.00  0.00    +0.000 HD
ATOM     11  H   UNL     1      10.558   9.836  19.641  0.00  0.00    +0.000 HD
ENDROOT
BRANCH   9  12
ATOM     12  C   UNL     1       9.680  11.723  19.557  0.00  0.00    +0.000 A 
ATOM     13  C   UNL     1       8.978  12.369  20.588  0.00  0.00    +0.000 A 
ATOM     14  C   UNL     1       8.936  13.757  20.675  0.00  0.00    +0.000 A 
ATOM     15  C   UNL     1       9.610  14.527  19.738  0.00  0.00    +0.000 A 
ATOM     16  C   UNL     1      10.349  13.923  18.714  0.00  0.00    +0.000 A 
ATOM     17  C   UNL     1      11.026  14.737  17.791  0.00  0.00    +0.000 A 
ATOM     18  C   UNL     1      11.779  14.180  16.761  0.00  0.00    +0.000 A 
ATOM     19  C   UNL     1      11.861  12.801  16.639  0.00  0.00    +0.000 A 
ATOM     20  C   UNL     1      11.185  11.977  17.545  0.00  0.00    +0.000 A 
ATOM     21  C   UNL     1      10.409  12.506  18.609  0.00  0.00    +0.000 A 
ENDBRANCH   9  12
BRANCH   7  22
ATOM     22  C   UNL     1       5.180   5.296  16.972  0.00  0.00    +0.000 C 
ATOM     23  C   UNL     1       3.935   6.103  17.316  0.00  0.00    +0.000 C 
ATOM     24  C   UNL     1       3.314   5.324  18.454  0.00  0.00    +0.000 C 
ATOM     25  C   UNL     1       3.719   3.882  18.158  0.00  0.00    +0.000 C 
ATOM     26  O   UNL     1       4.956   3.940  17.406  0.00  0.00    +0.000 OA
BRANCH  24  27
ATOM     27  O   UNL     1       3.837   5.773  19.702  0.00  0.00    +0.000 OA
ATOM     28  H   UNL     1       4.597   6.372  19.544  0.00  0.00    +0.000 HD
ENDBRANCH  24  27
BRANCH  25  29
ATOM     29  C   UNL     1       2.674   3.163  17.297  0.00  0.00    +0.000 C 
BRANCH  29  30
ATOM     30  O   UNL     1       1.398   3.787  17.427  0.00  0.00    +0.000 OA
ATOM     31  H   UNL     1       0.796   3.106  17.785  0.00  0.00    +0.000 HD
ENDBRANCH  29  30
ENDBRANCH  25  29
ENDBRANCH   7  22
TORSDOF 5
ENDMDL
MODEL 7
REMARK VINA RESULT:      -7.7      6.901     10.630
REMARK  Name = 
REMARK  5 active torsions:
REMARK  status: ('A' for Active; 'I' for Inactive)
REMARK    1  A    between atoms: C_7  and  C_8
REMARK    2  A    between atoms: C_10  and  O_11
REMARK    3  A    between atoms: C_12  and  C_13
REMARK    4  A    between atoms: C_13  and  O_14
REMARK    5  A    between atoms: N_17  and  C_18
REMARK                            x       y       z     vdW  Elec       q    Type
REMARK                         _______ _______ _______ _____ _____    ______ ____
ROOT
ATOM      1  O   UNL     1       1.344   8.199  19.270  0.00  0.00    +0.000 OA
ATOM      2  C   UNL     1       1.712   7.716  20.331  0.00  0.00    +0.000 C 
ATOM      3  N   UNL     1       1.409   8.225  21.577  0.00  0.00    +0.000 N 
ATOM      4  C   UNL     1       0.684   9.377  21.786  0.00  0.00    +0.000 A 
ATOM      5  N   UNL     1       0.702  10.045  22.920  0.00  0.00    +0.000 NA
ATOM      6  N   UNL     1      -0.031  11.219  22.844  0.00  0.00    +0.000 NA
ATOM      7  C   UNL     1      -0.610  11.365  21.666  0.00  0.00    +0.000 A 
ATOM      8  S   UNL     1      -0.352  10.045  20.606  0.00  0.00    +0.000 S 
ATOM      9  N   UNL     1       2.495   6.572  20.427  0.00  0.00    +0.000 N 
ATOM     10  H   UNL     1       1.972   7.949  22.365  0.00  0.00    +0.000 HD
ATOM     11  H   UNL     1       2.462   6.094  21.310  0.00  0.00    +0.000 HD
ENDROOT
BRANCH   9  12
ATOM     12  C   UNL     1       3.072   5.862  19.331  0.00  0.00    +0.000 A 
ATOM     13  C   UNL     1       4.125   6.426  18.593  0.00  0.00    +0.000 A 
ATOM     14  C   UNL     1       4.679   5.764  17.503  0.00  0.00    +0.000 A 
ATOM     15  C   UNL     1       4.198   4.515  17.137  0.00  0.00    +0.000 A 
ATOM     16  C   UNL     1       3.172   3.903  17.866  0.00  0.00    +0.000 A 
ATOM     17  C   UNL     1       2.719   2.633  17.471  0.00  0.00    +0.000 A 
ATOM     18  C   UNL     1       1.706   1.983  18.171  0.00  0.00    +0.000 A 
ATOM     19  C   UNL     1       1.130   2.598  19.272  0.00  0.00    +0.000 A 
ATOM     20  C   UNL     1       1.563   3.866  19.672  0.00  0.00    +0.000 A 
ATOM     21  C   UNL     1       2.594   4.560  18.988  0.00  0.00    +0.000 A 
ENDBRANCH   9  12
BRANCH   7  22
ATOM     22  C   UNL     1      -1.380  12.566  21.201  0.00  0.00    +0.000 C 
ATOM     23  C   UNL     1      -0.510  13.570  20.457  0.00  0.00    +0.000 C 
ATOM     24  C   UNL     1      -0.113  14.557  21.532  0.00  0.00    +0.000 C 
ATOM     25  C   UNL     1      -1.302  14.534  22.489  0.00  0.00    +0.000 C 
ATOM     26  O   UNL     1      -1.918  13.229  22.361  0.00  0.00    +0.000 OA
BRANCH  24  27
ATOM     27  O   UNL     1       1.087  14.132  22.173  0.00  0.00    +0.000 OA
ATOM     28  H   UNL     1       1.842  14.664  21.843  0.00  0.00    +0.000 HD
ENDBRANCH  24  27
BRANCH  25  29
ATOM     29  C   UNL     1      -2.351  15.590  22.119  0.00  0.00    +0.000 C 
BRANCH  29  30
ATOM     30  O   UNL     1      -3.668  15.093  22.349  0.00  0.00    +0.000 OA
ATOM     31  H   UNL     1      -4.231  15.474  21.648  0.00  0.00    +0.000 HD
ENDBRANCH  29  30
ENDBRANCH  25  29
ENDBRANCH   7  22
TORSDOF 5
ENDMDL
MODEL 8
REMARK VINA RESULT:      -7.7      6.693     10.239
REMARK  Name = 
REMARK  5 active torsions:
REMARK  status: ('A' for Active; 'I' for Inactive)
REMARK    1  A    between atoms: C_7  and  C_8
REMARK    2  A    between atoms: C_10  and  O_11
REMARK    3  A    between atoms: C_12  and  C_13
REMARK    4  A    between atoms: C_13  and  O_14
REMARK    5  A    between atoms: N_17  and  C_18
REMARK                            x       y       z     vdW  Elec       q    Type
REMARK                         _______ _______ _______ _____ _____    ______ ____
ROOT
ATOM      1  O   UNL     1       2.328   7.926  19.663  0.00  0.00    +0.000 OA
ATOM      2  C   UNL     1       2.208   8.138  18.465  0.00  0.00    +0.000 C 
ATOM      3  N   UNL     1       1.384   9.098  17.913  0.00  0.00    +0.000 N 
ATOM      4  C   UNL     1       0.552   9.916  18.644  0.00  0.00    +0.000 A 
ATOM      5  N   UNL     1      -0.470  10.559  18.120  0.00  0.00    +0.000 NA
ATOM      6  N   UNL     1      -1.207  11.236  19.079  0.00  0.00    +0.000 NA
ATOM      7  C   UNL     1      -0.680  11.111  20.284  0.00  0.00    +0.000 A 
ATOM      8  S   UNL     1       0.782  10.221  20.307  0.00  0.00    +0.000 S 
ATOM      9  N   UNL     1       2.894   7.432  17.485  0.00  0.00    +0.000 N 
ATOM     10  H   UNL     1       1.127   9.018  16.942  0.00  0.00    +0.000 HD
ATOM     11  H   UNL     1       2.971   7.889  16.592  0.00  0.00    +0.000 HD
ENDROOT
BRANCH   9  12
ATOM     12  C   UNL     1       3.740   6.305  17.707  0.00  0.00    +0.000 A 
ATOM     13  C   UNL     1       5.133   6.463  17.779  0.00  0.00    +0.000 A 
ATOM     14  C   UNL     1       5.976   5.372  17.964  0.00  0.00    +0.000 A 
ATOM     15  C   UNL     1       5.439   4.099  18.093  0.00  0.00    +0.000 A 
ATOM     16  C   UNL     1       4.053   3.902  18.060  0.00  0.00    +0.000 A 
ATOM     17  C   UNL     1       3.546   2.600  18.206  0.00  0.00    +0.000 A 
ATOM     18  C   UNL     1       2.176   2.357  18.186  0.00  0.00    +0.000 A 
ATOM     19  C   UNL     1       1.294   3.414  18.017  0.00  0.00    +0.000 A 
ATOM     20  C   UNL     1       1.784   4.716  17.861  0.00  0.00    +0.000 A 
ATOM     21  C   UNL     1       3.172   5.004  17.878  0.00  0.00    +0.000 A 
ENDBRANCH   9  12
BRANCH   7  22
ATOM     22  C   UNL     1      -1.276  11.614  21.567  0.00  0.00    +0.000 C 
ATOM     23  C   UNL     1      -2.533  12.445  21.345  0.00  0.00    +0.000 C 
ATOM     24  C   UNL     1      -2.018  13.866  21.322  0.00  0.00    +0.000 C 
ATOM     25  C   UNL     1      -0.806  13.817  22.250  0.00  0.00    +0.000 C 
ATOM     26  O   UNL     1      -0.302  12.459  22.210  0.00  0.00    +0.000 OA
BRANCH  24  27
ATOM     27  O   UNL     1      -1.651  14.237  19.996  0.00  0.00    +0.000 OA
ATOM     28  H   UNL     1      -0.675  14.226  19.909  0.00  0.00    +0.000 HD
ENDBRANCH  24  27
BRANCH  25  29
ATOM     29  C   UNL     1      -1.186  14.139  23.701  0.00  0.00    +0.000 C 
BRANCH  29  30
ATOM     30  O   UNL     1      -0.451  15.265  24.175  0.00  0.00    +0.000 OA
ATOM     31  H   UNL     1      -0.169  15.045  25.084  0.00  0.00    +0.000 HD
ENDBRANCH  29  30
ENDBRANCH  25  29
ENDBRANCH   7  22
TORSDOF 5
ENDMDL
MODEL 9
REMARK VINA RESULT:      -7.7      7.577     11.041
REMARK  Name = 
REMARK  5 active torsions:
REMARK  status: ('A' for Active; 'I' for Inactive)
REMARK    1  A    between atoms: C_7  and  C_8
REMARK    2  A    between atoms: C_10  and  O_11
REMARK    3  A    between atoms: C_12  and  C_13
REMARK    4  A    between atoms: C_13  and  O_14
REMARK    5  A    between atoms: N_17  and  C_18
REMARK                            x       y       z     vdW  Elec       q    Type
REMARK                         _______ _______ _______ _____ _____    ______ ____
ROOT
ATOM      1  O   UNL     1       0.161   7.596  21.303  0.00  0.00    +0.000 OA
ATOM      2  C   UNL     1       1.238   8.055  20.952  0.00  0.00    +0.000 C 
ATOM      3  N   UNL     1       1.617   9.375  21.094  0.00  0.00    +0.000 N 
ATOM      4  C   UNL     1       0.806  10.359  21.613  0.00  0.00    +0.000 A 
ATOM      5  N   UNL     1       1.019  11.644  21.420  0.00  0.00    +0.000 NA
ATOM      6  N   UNL     1       0.011  12.426  21.961  0.00  0.00    +0.000 NA
ATOM      7  C   UNL     1      -0.901  11.697  22.580  0.00  0.00    +0.000 A 
ATOM      8  S   UNL     1      -0.544  10.022  22.600  0.00  0.00    +0.000 S 
ATOM      9  N   UNL     1       2.241   7.300  20.356  0.00  0.00    +0.000 N 
ATOM     10  H   UNL     1       2.378   9.725  20.534  0.00  0.00    +0.000 HD
ATOM     11  H   UNL     1       3.167   7.686  20.410  0.00  0.00    +0.000 HD
ENDROOT
BRANCH   9  12
ATOM     12  C   UNL     1       2.134   5.932  19.966  0.00  0.00    +0.000 A 
ATOM     13  C   UNL     1       1.283   5.058  20.661  0.00  0.00    +0.000 A 
ATOM     14  C   UNL     1       1.189   3.713  20.316  0.00  0.00    +0.000 A 
ATOM     15  C   UNL     1       1.938   3.219  19.258  0.00  0.00    +0.000 A 
ATOM     16  C   UNL     1       2.775   4.063  18.518  0.00  0.00    +0.000 A 
ATOM     17  C   UNL     1       3.509   3.528  17.447  0.00  0.00    +0.000 A 
ATOM     18  C   UNL     1       4.348   4.331  16.680  0.00  0.00    +0.000 A 
ATOM     19  C   UNL     1       4.465   5.680  16.977  0.00  0.00    +0.000 A 
ATOM     20  C   UNL     1       3.748   6.227  18.046  0.00  0.00    +0.000 A 
ATOM     21  C   UNL     1       2.882   5.442  18.850  0.00  0.00    +0.000 A 
ENDBRANCH   9  12
BRANCH   7  22
ATOM     22  C   UNL     1      -2.182  12.202  23.177  0.00  0.00    +0.000 C 
ATOM     23  C   UNL     1      -3.263  12.442  22.132  0.00  0.00    +0.000 C 
ATOM     24  C   UNL     1      -3.127  13.914  21.816  0.00  0.00    +0.000 C 
ATOM     25  C   UNL     1      -2.626  14.513  23.127  0.00  0.00    +0.000 C 
ATOM     26  O   UNL     1      -1.909  13.461  23.821  0.00  0.00    +0.000 OA
BRANCH  24  27
ATOM     27  O   UNL     1      -2.192  14.107  20.757  0.00  0.00    +0.000 OA
ATOM     28  H   UNL     1      -1.806  13.244  20.499  0.00  0.00    +0.000 HD
ENDBRANCH  24  27
BRANCH  25  29
ATOM     29  C   UNL     1      -3.783  14.968  24.025  0.00  0.00    +0.000 C 
BRANCH  29  30
ATOM     30  O   UNL     1      -3.583  14.525  25.366  0.00  0.00    +0.000 OA
ATOM     31  H   UNL     1      -4.357  13.973  25.590  0.00  0.00    +0.000 HD
ENDBRANCH  29  30
ENDBRANCH  25  29
ENDBRANCH   7  22
TORSDOF 5
ENDMDL
