MODEL 1
REMARK VINA RESULT:      -8.4      0.000      0.000
REMARK  Name = 
REMARK  7 active torsions:
REMARK  status: ('A' for Active; 'I' for Inactive)
REMARK    1  A    between atoms: C_1  and  C_2
REMARK    2  A    between atoms: C_2  and  C_3
REMARK    3  A    between atoms: N_12  and  CA_13
REMARK    4  A    between atoms: CA_13  and  CB_14
REMARK    5  A    between atoms: CA_13  and  C_24
REMARK    6  A    between atoms: CB_14  and  CG_15
REMARK    7  A    between atoms: C_24  and  OXT_26
REMARK                            x       y       z     vdW  Elec       q    Type
REMARK                         _______ _______ _______ _____ _____    ______ ____
ROOT
ATOM      1  CA  TRP A   1       3.295   3.498  17.805  0.00  0.00    +0.000 C 
ENDROOT
BRANCH   1  13
ATOM      2  C   UNK A   0       6.674   6.668  18.054  0.00  0.00    +0.000 C 
ATOM      3  C   UNK A   0       7.009   5.359  17.315  0.00  0.00    +0.000 C 
ATOM      4  C   UNK A   0       8.079   4.602  18.119  0.00  0.00    +0.000 C 
ATOM      5  C   UNK A   0       7.522   5.703  15.900  0.00  0.00    +0.000 C 
ATOM      6  C   UNK A   0       6.933   4.905  14.779  0.00  0.00    +0.000 A 
ATOM      7  C   UNK A   0       7.460   5.038  13.484  0.00  0.00    +0.000 A 
ATOM      8  C   UNK A   0       6.901   4.338  12.414  0.00  0.00    +0.000 A 
ATOM      9  C   UNK A   0       5.822   3.477  12.627  0.00  0.00    +0.000 A 
ATOM     10  C   UNK A   0       5.303   3.331  13.909  0.00  0.00    +0.000 A 
ATOM     11  C   UNK A   0       5.835   4.063  14.980  0.00  0.00    +0.000 A 
ATOM     12  C   UNK A   0       5.242   3.994  16.342  0.00  0.00    +0.000 C 
ATOM     13  N   TRP A   1       4.048   3.317  16.533  0.00  0.00    +0.000 N 
ATOM     14  N   UNK A   0       5.784   4.558  17.362  0.00  0.00    +0.000 NA
ATOM     15  H   TRP A   1       3.416   3.292  15.737  0.00  0.00    +0.000 HD
ENDBRANCH   1  13
BRANCH   1  16
ATOM     16  C   TRP A   1       2.859   2.115  18.306  0.00  0.00    +0.000 C 
ATOM     17  O   TRP A   1       1.781   1.807  18.788  0.00  0.00    +0.000 OA
BRANCH  16  18
ATOM     18  OXT TRP A   1       3.901   1.232  18.228  0.00  0.00    +0.000 OA
ATOM     19  HXT TRP A   1       3.608   0.376  18.623  0.00  0.00    +0.000 HD
ENDBRANCH  16  18
ENDBRANCH   1  16
BRANCH   1  20
ATOM     20  CB  TRP A   1       2.225   4.593  17.709  0.00  0.00    +0.000 C 
BRANCH  20  21
ATOM     21  CG  TRP A   1       2.175   5.660  18.760  0.00  0.00    +0.000 A 
ATOM     22  CD1 TRP A   1       2.146   5.353  20.112  0.00  0.00    +0.000 A 
ATOM     23  NE1 TRP A   1       2.172   6.522  20.804  0.00  0.00    +0.000 N 
ATOM     24  CE2 TRP A   1       1.817   7.541  19.960  0.00  0.00    +0.000 A 
ATOM     25  CZ2 TRP A   1       1.313   8.812  20.239  0.00  0.00    +0.000 A 
ATOM     26  CH2 TRP A   1       1.320   9.732  19.195  0.00  0.00    +0.000 A 
ATOM     27  CZ3 TRP A   1       1.894   9.403  17.967  0.00  0.00    +0.000 A 
ATOM     28  CE3 TRP A   1       2.297   8.085  17.683  0.00  0.00    +0.000 A 
ATOM     29  CD2 TRP A   1       2.146   7.097  18.677  0.00  0.00    +0.000 A 
ATOM     30  HE1 TRP A   1       2.412   6.632  21.780  0.00  0.00    +0.000 HD
ENDBRANCH  20  21
ENDBRANCH   1  20
TORSDOF 5
ENDMDL
MODEL 2
REMARK VINA RESULT:      -8.1      3.489      5.749
REMARK  Name = 
REMARK  7 active torsions:
REMARK  status: ('A' for Active; 'I' for Inactive)
REMARK    1  A    between atoms: C_1  and  C_2
REMARK    2  A    between atoms: C_2  and  C_3
REMARK    3  A    between atoms: N_12  and  CA_13
REMARK    4  A    between atoms: CA_13  and  CB_14
REMARK    5  A    between atoms: CA_13  and  C_24
REMARK    6  A    between atoms: CB_14  and  CG_15
REMARK    7  A    between atoms: C_24  and  OXT_26
REMARK                            x       y       z     vdW  Elec       q    Type
REMARK                         _______ _______ _______ _____ _____    ______ ____
ROOT
ATOM      1  CA  TRP A   1       1.829   8.132  20.296  0.00  0.00    +0.000 C 
ENDROOT
BRANCH   1  13
ATOM      2  C   UNK A   0       4.652   6.745  16.885  0.00  0.00    +0.000 C 
ATOM      3  C   UNK A   0       4.472   5.775  18.069  0.00  0.00    +0.000 C 
ATOM      4  C   UNK A   0       5.812   5.655  18.813  0.00  0.00    +0.000 C 
ATOM      5  C   UNK A   0       4.016   4.404  17.526  0.00  0.00    +0.000 C 
ATOM      6  C   UNK A   0       2.869   3.765  18.243  0.00  0.00    +0.000 A 
ATOM      7  C   UNK A   0       2.497   2.450  17.920  0.00  0.00    +0.000 A 
ATOM      8  C   UNK A   0       1.405   1.846  18.544  0.00  0.00    +0.000 A 
ATOM      9  C   UNK A   0       0.681   2.540  19.515  0.00  0.00    +0.000 A 
ATOM     10  C   UNK A   0       1.050   3.839  19.849  0.00  0.00    +0.000 A 
ATOM     11  C   UNK A   0       2.122   4.464  19.196  0.00  0.00    +0.000 A 
ATOM     12  C   UNK A   0       2.481   5.882  19.469  0.00  0.00    +0.000 C 
ATOM     13  N   TRP A   1       1.653   6.654  20.267  0.00  0.00    +0.000 N 
ATOM     14  N   UNK A   0       3.531   6.436  18.976  0.00  0.00    +0.000 NA
ATOM     15  H   TRP A   1       0.667   6.406  20.259  0.00  0.00    +0.000 HD
ENDBRANCH   1  13
BRANCH   1  16
ATOM     16  C   TRP A   1       1.044   8.686  21.492  0.00  0.00    +0.000 C 
ATOM     17  O   TRP A   1      -0.167   8.689  21.648  0.00  0.00    +0.000 OA
BRANCH  16  18
ATOM     18  OXT TRP A   1       1.893   9.288  22.380  0.00  0.00    +0.000 OA
ATOM     19  HXT TRP A   1       1.916  10.254  22.176  0.00  0.00    +0.000 HD
ENDBRANCH  16  18
ENDBRANCH   1  16
BRANCH   1  20
ATOM     20  CB  TRP A   1       1.598   8.784  18.928  0.00  0.00    +0.000 C 
BRANCH  20  21
ATOM     21  CG  TRP A   1       0.822  10.065  18.849  0.00  0.00    +0.000 A 
ATOM     22  CD1 TRP A   1       1.348  11.265  19.301  0.00  0.00    +0.000 A 
ATOM     23  NE1 TRP A   1       0.442  12.243  19.034  0.00  0.00    +0.000 N 
ATOM     24  CE2 TRP A   1      -0.776  11.660  18.803  0.00  0.00    +0.000 A 
ATOM     25  CZ2 TRP A   1      -2.063  12.195  18.884  0.00  0.00    +0.000 A 
ATOM     26  CH2 TRP A   1      -3.089  11.449  18.312  0.00  0.00    +0.000 A 
ATOM     27  CZ3 TRP A   1      -2.805  10.273  17.616  0.00  0.00    +0.000 A 
ATOM     28  CE3 TRP A   1      -1.517   9.707  17.642  0.00  0.00    +0.000 A 
ATOM     29  CD2 TRP A   1      -0.496  10.367  18.357  0.00  0.00    +0.000 A 
ATOM     30  HE1 TRP A   1       0.626  13.236  19.008  0.00  0.00    +0.000 HD
ENDBRANCH  20  21
ENDBRANCH   1  20
TORSDOF 5
ENDMDL
MODEL 3
REMARK VINA RESULT:      -7.7      3.398      5.832
REMARK  Name = 
REMARK  7 active torsions:
REMARK  status: ('A' for Active; 'I' for Inactive)
REMARK    1  A    between atoms: C_1  and  C_2
REMARK    2  A    between atoms: C_2  and  C_3
REMARK    3  A    between atoms: N_12  and  CA_13
REMARK    4  A    between atoms: CA_13  and  CB_14
REMARK    5  A    between atoms: CA_13  and  C_24
REMARK    6  A    between atoms: CB_14  and  CG_15
REMARK    7  A    between atoms: C_24  and  OXT_26
REMARK                            x       y       z     vdW  Elec       q    Type
REMARK                         _______ _______ _______ _____ _____    ______ ____
ROOT
ATOM      1  CA  TRP A   1       1.860   8.253  20.107  0.00  0.00    +0.000 C 
ENDROOT
BRANCH   1  13
ATOM      2  C   UNK A   0       4.629   6.684  16.730  0.00  0.00    +0.000 C 
ATOM      3  C   UNK A   0       4.469   5.780  17.967  0.00  0.00    +0.000 C 
ATOM      4  C   UNK A   0       5.821   5.701  18.694  0.00  0.00    +0.000 C 
ATOM      5  C   UNK A   0       4.006   4.382  17.506  0.00  0.00    +0.000 C 
ATOM      6  C   UNK A   0       2.872   3.782  18.276  0.00  0.00    +0.000 A 
ATOM      7  C   UNK A   0       2.497   2.451  18.031  0.00  0.00    +0.000 A 
ATOM      8  C   UNK A   0       1.416   1.881  18.704  0.00  0.00    +0.000 A 
ATOM      9  C   UNK A   0       0.707   2.626  19.648  0.00  0.00    +0.000 A 
ATOM     10  C   UNK A   0       1.080   3.942  19.905  0.00  0.00    +0.000 A 
ATOM     11  C   UNK A   0       2.140   4.531  19.202  0.00  0.00    +0.000 A 
ATOM     12  C   UNK A   0       2.501   5.961  19.392  0.00  0.00    +0.000 C 
ATOM     13  N   TRP A   1       1.685   6.775  20.161  0.00  0.00    +0.000 N 
ATOM     14  N   UNK A   0       3.543   6.489  18.853  0.00  0.00    +0.000 NA
ATOM     15  H   TRP A   1       0.700   6.527  20.182  0.00  0.00    +0.000 HD
ENDBRANCH   1  13
BRANCH   1  16
ATOM     16  C   TRP A   1       1.166   8.863  21.331  0.00  0.00    +0.000 C 
ATOM     17  O   TRP A   1       1.660   9.589  22.179  0.00  0.00    +0.000 OA
BRANCH  16  18
ATOM     18  OXT TRP A   1      -0.122   8.409  21.423  0.00  0.00    +0.000 OA
ATOM     19  HXT TRP A   1      -0.400   8.461  22.368  0.00  0.00    +0.000 HD
ENDBRANCH  16  18
ENDBRANCH   1  16
BRANCH   1  20
ATOM     20  CB  TRP A   1       1.525   8.840  18.730  0.00  0.00    +0.000 C 
BRANCH  20  21
ATOM     21  CG  TRP A   1       1.252  10.309  18.608  0.00  0.00    +0.000 A 
ATOM     22  CD1 TRP A   1       2.233  11.203  18.209  0.00  0.00    +0.000 A 
ATOM     23  NE1 TRP A   1       1.665  12.436  18.131  0.00  0.00    +0.000 N 
ATOM     24  CE2 TRP A   1       0.492  12.424  18.838  0.00  0.00    +0.000 A 
ATOM     25  CZ2 TRP A   1      -0.238  13.475  19.394  0.00  0.00    +0.000 A 
ATOM     26  CH2 TRP A   1      -1.538  13.189  19.803  0.00  0.00    +0.000 A 
ATOM     27  CZ3 TRP A   1      -2.090  11.929  19.570  0.00  0.00    +0.000 A 
ATOM     28  CE3 TRP A   1      -1.298  10.863  19.105  0.00  0.00    +0.000 A 
ATOM     29  CD2 TRP A   1       0.067  11.093  18.839  0.00  0.00    +0.000 A 
ATOM     30  HE1 TRP A   1       2.038  13.234  17.637  0.00  0.00    +0.000 HD
ENDBRANCH  20  21
ENDBRANCH   1  20
TORSDOF 5
ENDMDL
MODEL 4
REMARK VINA RESULT:      -7.6      3.484      5.877
REMARK  Name = 
REMARK  7 active torsions:
REMARK  status: ('A' for Active; 'I' for Inactive)
REMARK    1  A    between atoms: C_1  and  C_2
REMARK    2  A    between atoms: C_2  and  C_3
REMARK    3  A    between atoms: N_12  and  CA_13
REMARK    4  A    between atoms: CA_13  and  CB_14
REMARK    5  A    between atoms: CA_13  and  C_24
REMARK    6  A    between atoms: CB_14  and  CG_15
REMARK    7  A    between atoms: C_24  and  OXT_26
REMARK                            x       y       z     vdW  Elec       q    Type
REMARK                         _______ _______ _______ _____ _____    ______ ____
ROOT
ATOM      1  CA  TRP A   1       1.847   8.301  20.344  0.00  0.00    +0.000 C 
ENDROOT
BRANCH   1  13
ATOM      2  C   UNK A   0       4.545   6.827  16.868  0.00  0.00    +0.000 C 
ATOM      3  C   UNK A   0       4.400   5.883  18.077  0.00  0.00    +0.000 C 
ATOM      4  C   UNK A   0       5.764   5.770  18.777  0.00  0.00    +0.000 C 
ATOM      5  C   UNK A   0       3.919   4.504  17.578  0.00  0.00    +0.000 C 
ATOM      6  C   UNK A   0       2.794   3.886  18.347  0.00  0.00    +0.000 A 
ATOM      7  C   UNK A   0       2.405   2.567  18.064  0.00  0.00    +0.000 A 
ATOM      8  C   UNK A   0       1.331   1.983  18.737  0.00  0.00    +0.000 A 
ATOM      9  C   UNK A   0       0.644   2.701  19.718  0.00  0.00    +0.000 A 
ATOM     10  C   UNK A   0       1.032   4.004  20.012  0.00  0.00    +0.000 A 
ATOM     11  C   UNK A   0       2.084   4.609  19.310  0.00  0.00    +0.000 A 
ATOM     12  C   UNK A   0       2.459   6.030  19.542  0.00  0.00    +0.000 C 
ATOM     13  N   TRP A   1       1.663   6.823  20.351  0.00  0.00    +0.000 N 
ATOM     14  N   UNK A   0       3.495   6.568  19.002  0.00  0.00    +0.000 NA
ATOM     15  H   TRP A   1       0.676   6.581  20.382  0.00  0.00    +0.000 HD
ENDBRANCH   1  13
BRANCH   1  16
ATOM     16  C   TRP A   1       1.103   8.883  21.552  0.00  0.00    +0.000 C 
ATOM     17  O   TRP A   1       1.538   9.658  22.388  0.00  0.00    +0.000 OA
BRANCH  16  18
ATOM     18  OXT TRP A   1      -0.150   8.341  21.644  0.00  0.00    +0.000 OA
ATOM     19  HXT TRP A   1      -0.285   8.035  22.573  0.00  0.00    +0.000 HD
ENDBRANCH  16  18
ENDBRANCH   1  16
BRANCH   1  20
ATOM     20  CB  TRP A   1       1.577   8.925  18.970  0.00  0.00    +0.000 C 
BRANCH  20  21
ATOM     21  CG  TRP A   1       0.648  10.098  18.869  0.00  0.00    +0.000 A 
ATOM     22  CD1 TRP A   1      -0.630   9.973  18.346  0.00  0.00    +0.000 A 
ATOM     23  NE1 TRP A   1      -1.241  11.183  18.452  0.00  0.00    +0.000 N 
ATOM     24  CE2 TRP A   1      -0.284  12.143  18.647  0.00  0.00    +0.000 A 
ATOM     25  CZ2 TRP A   1      -0.327  13.520  18.421  0.00  0.00    +0.000 A 
ATOM     26  CH2 TRP A   1       0.694  14.279  18.984  0.00  0.00    +0.000 A 
ATOM     27  CZ3 TRP A   1       1.649  13.680  19.807  0.00  0.00    +0.000 A 
ATOM     28  CE3 TRP A   1       1.728  12.281  19.930  0.00  0.00    +0.000 A 
ATOM     29  CD2 TRP A   1       0.798  11.482  19.233  0.00  0.00    +0.000 A 
ATOM     30  HE1 TRP A   1      -2.235  11.355  18.397  0.00  0.00    +0.000 HD
ENDBRANCH  20  21
ENDBRANCH   1  20
TORSDOF 5
ENDMDL
MODEL 5
REMARK VINA RESULT:      -7.5      3.759      6.080
REMARK  Name = 
REMARK  7 active torsions:
REMARK  status: ('A' for Active; 'I' for Inactive)
REMARK    1  A    between atoms: C_1  and  C_2
REMARK    2  A    between atoms: C_2  and  C_3
REMARK    3  A    between atoms: N_12  and  CA_13
REMARK    4  A    between atoms: CA_13  and  CB_14
REMARK    5  A    between atoms: CA_13  and  C_24
REMARK    6  A    between atoms: CB_14  and  CG_15
REMARK    7  A    between atoms: C_24  and  OXT_26
REMARK                            x       y       z     vdW  Elec       q    Type
REMARK                         _______ _______ _______ _____ _____    ______ ____
ROOT
ATOM      1  CA  TRP A   1       1.660   8.406  20.654  0.00  0.00    +0.000 C 
ENDROOT
BRANCH   1  13
ATOM      2  C   UNK A   0       4.030   7.148  16.868  0.00  0.00    +0.000 C 
ATOM      3  C   UNK A   0       4.063   6.172  18.059  0.00  0.00    +0.000 C 
ATOM      4  C   UNK A   0       5.499   6.112  18.604  0.00  0.00    +0.000 C 
ATOM      5  C   UNK A   0       3.596   4.781  17.577  0.00  0.00    +0.000 C 
ATOM      6  C   UNK A   0       2.593   4.091  18.445  0.00  0.00    +0.000 A 
ATOM      7  C   UNK A   0       2.239   2.760  18.170  0.00  0.00    +0.000 A 
ATOM      8  C   UNK A   0       1.274   2.107  18.938  0.00  0.00    +0.000 A 
ATOM      9  C   UNK A   0       0.665   2.768  20.007  0.00  0.00    +0.000 A 
ATOM     10  C   UNK A   0       1.019   4.082  20.294  0.00  0.00    +0.000 A 
ATOM     11  C   UNK A   0       1.959   4.755  19.499  0.00  0.00    +0.000 A 
ATOM     12  C   UNK A   0       2.289   6.187  19.728  0.00  0.00    +0.000 C 
ATOM     13  N   TRP A   1       1.548   6.922  20.641  0.00  0.00    +0.000 N 
ATOM     14  N   UNK A   0       3.232   6.789  19.095  0.00  0.00    +0.000 NA
ATOM     15  H   TRP A   1       0.583   6.629  20.771  0.00  0.00    +0.000 HD
ENDBRANCH   1  13
BRANCH   1  16
ATOM     16  C   TRP A   1       1.250   8.906  22.045  0.00  0.00    +0.000 C 
ATOM     17  O   TRP A   1       0.118   9.070  22.471  0.00  0.00    +0.000 OA
BRANCH  16  18
ATOM     18  OXT TRP A   1       2.358   9.249  22.772  0.00  0.00    +0.000 OA
ATOM     19  HXT TRP A   1       3.155   9.088  22.212  0.00  0.00    +0.000 HD
ENDBRANCH  16  18
ENDBRANCH   1  16
BRANCH   1  20
ATOM     20  CB  TRP A   1       0.997   9.062  19.436  0.00  0.00    +0.000 C 
BRANCH  20  21
ATOM     21  CG  TRP A   1       1.444  10.428  19.008  0.00  0.00    +0.000 A 
ATOM     22  CD1 TRP A   1       2.165  10.627  17.841  0.00  0.00    +0.000 A 
ATOM     23  NE1 TRP A   1       2.359  11.964  17.696  0.00  0.00    +0.000 N 
ATOM     24  CE2 TRP A   1       2.143  12.573  18.904  0.00  0.00    +0.000 A 
ATOM     25  CZ2 TRP A   1       2.581  13.808  19.384  0.00  0.00    +0.000 A 
ATOM     26  CH2 TRP A   1       1.964  14.287  20.537  0.00  0.00    +0.000 A 
ATOM     27  CZ3 TRP A   1       0.900  13.591  21.110  0.00  0.00    +0.000 A 
ATOM     28  CE3 TRP A   1       0.552  12.301  20.667  0.00  0.00    +0.000 A 
ATOM     29  CD2 TRP A   1       1.275  11.728  19.600  0.00  0.00    +0.000 A 
ATOM     30  HE1 TRP A   1       2.619  12.440  16.843  0.00  0.00    +0.000 HD
ENDBRANCH  20  21
ENDBRANCH   1  20
TORSDOF 5
ENDMDL
MODEL 6
REMARK VINA RESULT:      -7.5      3.442      5.512
REMARK  Name = 
REMARK  7 active torsions:
REMARK  status: ('A' for Active; 'I' for Inactive)
REMARK    1  A    between atoms: C_1  and  C_2
REMARK    2  A    between atoms: C_2  and  C_3
REMARK    3  A    between atoms: N_12  and  CA_13
REMARK    4  A    between atoms: CA_13  and  CB_14
REMARK    5  A    between atoms: CA_13  and  C_24
REMARK    6  A    between atoms: CB_14  and  CG_15
REMARK    7  A    between atoms: C_24  and  OXT_26
REMARK                            x       y       z     vdW  Elec       q    Type
REMARK                         _______ _______ _______ _____ _____    ______ ____
ROOT
ATOM      1  CA  TRP A   1       1.459   8.491  19.039  0.00  0.00    +0.000 C 
ENDROOT
BRANCH   1  13
ATOM      2  C   UNK A   0       2.080   4.336  21.010  0.00  0.00    +0.000 C 
ATOM      3  C   UNK A   0       2.399   4.441  19.507  0.00  0.00    +0.000 C 
ATOM      4  C   UNK A   0       1.389   3.582  18.730  0.00  0.00    +0.000 C 
ATOM      5  C   UNK A   0       3.843   3.950  19.268  0.00  0.00    +0.000 C 
ATOM      6  C   UNK A   0       4.694   4.817  18.396  0.00  0.00    +0.000 A 
ATOM      7  C   UNK A   0       5.961   4.365  17.994  0.00  0.00    +0.000 A 
ATOM      8  C   UNK A   0       6.791   5.172  17.216  0.00  0.00    +0.000 A 
ATOM      9  C   UNK A   0       6.358   6.435  16.808  0.00  0.00    +0.000 A 
ATOM     10  C   UNK A   0       5.099   6.886  17.191  0.00  0.00    +0.000 A 
ATOM     11  C   UNK A   0       4.278   6.094  18.007  0.00  0.00    +0.000 A 
ATOM     12  C   UNK A   0       2.966   6.588  18.505  0.00  0.00    +0.000 C 
ATOM     13  N   TRP A   1       2.608   7.910  18.291  0.00  0.00    +0.000 N 
ATOM     14  N   UNK A   0       2.144   5.838  19.149  0.00  0.00    +0.000 NA
ATOM     15  H   TRP A   1       3.374   8.575  18.229  0.00  0.00    +0.000 HD
ENDBRANCH   1  13
BRANCH   1  16
ATOM     16  C   TRP A   1       0.904   9.668  18.227  0.00  0.00    +0.000 C 
ATOM     17  O   TRP A   1      -0.256  10.041  18.160  0.00  0.00    +0.000 OA
BRANCH  16  18
ATOM     18  OXT TRP A   1       1.895  10.234  17.472  0.00  0.00    +0.000 OA
ATOM     19  HXT TRP A   1       2.764   9.947  17.841  0.00  0.00    +0.000 HD
ENDBRANCH  16  18
ENDBRANCH   1  16
BRANCH   1  20
ATOM     20  CB  TRP A   1       1.776   8.732  20.520  0.00  0.00    +0.000 C 
BRANCH  20  21
ATOM     21  CG  TRP A   1       0.764   9.426  21.381  0.00  0.00    +0.000 A 
ATOM     22  CD1 TRP A   1      -0.040   8.728  22.268  0.00  0.00    +0.000 A 
ATOM     23  NE1 TRP A   1      -0.797   9.633  22.944  0.00  0.00    +0.000 N 
ATOM     24  CE2 TRP A   1      -0.791  10.815  22.250  0.00  0.00    +0.000 A 
ATOM     25  CZ2 TRP A   1      -1.687  11.884  22.282  0.00  0.00    +0.000 A 
ATOM     26  CH2 TRP A   1      -1.268  13.070  21.685  0.00  0.00    +0.000 A 
ATOM     27  CZ3 TRP A   1       0.023  13.184  21.170  0.00  0.00    +0.000 A 
ATOM     28  CE3 TRP A   1       0.863  12.061  21.058  0.00  0.00    +0.000 A 
ATOM     29  CD2 TRP A   1       0.394  10.811  21.510  0.00  0.00    +0.000 A 
ATOM     30  HE1 TRP A   1      -1.285   9.472  23.813  0.00  0.00    +0.000 HD
ENDBRANCH  20  21
ENDBRANCH   1  20
TORSDOF 5
ENDMDL
MODEL 7
REMARK VINA RESULT:      -7.4      1.177      1.495
REMARK  Name = 
REMARK  7 active torsions:
REMARK  status: ('A' for Active; 'I' for Inactive)
REMARK    1  A    between atoms: C_1  and  C_2
REMARK    2  A    between atoms: C_2  and  C_3
REMARK    3  A    between atoms: N_12  and  CA_13
REMARK    4  A    between atoms: CA_13  and  CB_14
REMARK    5  A    between atoms: CA_13  and  C_24
REMARK    6  A    between atoms: CB_14  and  CG_15
REMARK    7  A    between atoms: C_24  and  OXT_26
REMARK                            x       y       z     vdW  Elec       q    Type
REMARK                         _______ _______ _______ _____ _____    ______ ____
ROOT
ATOM      1  CA  TRP A   1       3.048   4.996  17.840  0.00  0.00    +0.000 C 
ENDROOT
BRANCH   1  13
ATOM      2  C   UNK A   0       7.232   6.999  17.690  0.00  0.00    +0.000 C 
ATOM      3  C   UNK A   0       7.136   5.560  17.151  0.00  0.00    +0.000 C 
ATOM      4  C   UNK A   0       7.949   4.636  18.072  0.00  0.00    +0.000 C 
ATOM      5  C   UNK A   0       7.689   5.530  15.710  0.00  0.00    +0.000 C 
ATOM      6  C   UNK A   0       6.857   4.798  14.705  0.00  0.00    +0.000 A 
ATOM      7  C   UNK A   0       7.363   4.582  13.413  0.00  0.00    +0.000 A 
ATOM      8  C   UNK A   0       6.590   3.940  12.444  0.00  0.00    +0.000 A 
ATOM      9  C   UNK A   0       5.308   3.485  12.759  0.00  0.00    +0.000 A 
ATOM     10  C   UNK A   0       4.805   3.684  14.041  0.00  0.00    +0.000 A 
ATOM     11  C   UNK A   0       5.562   4.364  15.005  0.00  0.00    +0.000 A 
ATOM     12  C   UNK A   0       5.013   4.670  16.353  0.00  0.00    +0.000 C 
ATOM     13  N   TRP A   1       3.677   4.419  16.620  0.00  0.00    +0.000 N 
ATOM     14  N   UNK A   0       5.729   5.181  17.292  0.00  0.00    +0.000 NA
ATOM     15  H   TRP A   1       3.045   4.475  15.825  0.00  0.00    +0.000 HD
ENDBRANCH   1  13
BRANCH   1  16
ATOM     16  C   TRP A   1       1.800   4.170  18.173  0.00  0.00    +0.000 C 
ATOM     17  O   TRP A   1       1.585   3.528  19.188  0.00  0.00    +0.000 OA
BRANCH  16  18
ATOM     18  OXT TRP A   1       0.938   4.161  17.110  0.00  0.00    +0.000 OA
ATOM     19  HXT TRP A   1       0.277   3.443  17.256  0.00  0.00    +0.000 HD
ENDBRANCH  16  18
ENDBRANCH   1  16
BRANCH   1  20
ATOM     20  CB  TRP A   1       2.897   6.521  17.764  0.00  0.00    +0.000 C 
BRANCH  20  21
ATOM     21  CG  TRP A   1       2.347   7.260  18.946  0.00  0.00    +0.000 A 
ATOM     22  CD1 TRP A   1       2.346   6.707  20.217  0.00  0.00    +0.000 A 
ATOM     23  NE1 TRP A   1       1.850   7.638  21.075  0.00  0.00    +0.000 N 
ATOM     24  CE2 TRP A   1       1.179   8.588  20.352  0.00  0.00    +0.000 A 
ATOM     25  CZ2 TRP A   1       0.188   9.489  20.744  0.00  0.00    +0.000 A 
ATOM     26  CH2 TRP A   1      -0.099  10.528  19.863  0.00  0.00    +0.000 A 
ATOM     27  CZ3 TRP A   1       0.646  10.690  18.695  0.00  0.00    +0.000 A 
ATOM     28  CE3 TRP A   1       1.563   9.708  18.276  0.00  0.00    +0.000 A 
ATOM     29  CD2 TRP A   1       1.750   8.563  19.077  0.00  0.00    +0.000 A 
ATOM     30  HE1 TRP A   1       1.954   7.638  22.080  0.00  0.00    +0.000 HD
ENDBRANCH  20  21
ENDBRANCH   1  20
TORSDOF 5
ENDMDL
MODEL 8
REMARK VINA RESULT:      -7.3      4.861      9.606
REMARK  Name = 
REMARK  7 active torsions:
REMARK  status: ('A' for Active; 'I' for Inactive)
REMARK    1  A    between atoms: C_1  and  C_2
REMARK    2  A    between atoms: C_2  and  C_3
REMARK    3  A    between atoms: N_12  and  CA_13
REMARK    4  A    between atoms: CA_13  and  CB_14
REMARK    5  A    between atoms: CA_13  and  C_24
REMARK    6  A    between atoms: CB_14  and  CG_15
REMARK    7  A    between atoms: C_24  and  OXT_26
REMARK                            x       y       z     vdW  Elec       q    Type
REMARK                         _______ _______ _______ _____ _____    ______ ____
ROOT
ATOM      1  CA  TRP A   1       1.319  10.827  18.613  0.00  0.00    +0.000 C 
ENDROOT
BRANCH   1  13
ATOM      2  C   UNK A   0      -1.457  12.015  22.137  0.00  0.00    +0.000 C 
ATOM      3  C   UNK A   0      -1.745  12.679  20.777  0.00  0.00    +0.000 C 
ATOM      4  C   UNK A   0      -1.459  14.185  20.896  0.00  0.00    +0.000 C 
ATOM      5  C   UNK A   0      -3.221  12.425  20.401  0.00  0.00    +0.000 C 
ATOM      6  C   UNK A   0      -3.469  11.968  18.998  0.00  0.00    +0.000 A 
ATOM      7  C   UNK A   0      -4.787  11.871  18.524  0.00  0.00    +0.000 A 
ATOM      8  C   UNK A   0      -5.047  11.407  17.235  0.00  0.00    +0.000 A 
ATOM      9  C   UNK A   0      -3.992  11.053  16.391  0.00  0.00    +0.000 A 
ATOM     10  C   UNK A   0      -2.683  11.157  16.849  0.00  0.00    +0.000 A 
ATOM     11  C   UNK A   0      -2.419  11.585  18.158  0.00  0.00    +0.000 A 
ATOM     12  C   UNK A   0      -1.035  11.619  18.702  0.00  0.00    +0.000 C 
ATOM     13  N   TRP A   1       0.003  11.076  17.962  0.00  0.00    +0.000 N 
ATOM     14  N   UNK A   0      -0.756  12.122  19.852  0.00  0.00    +0.000 NA
ATOM     15  H   TRP A   1      -0.245  10.310  17.341  0.00  0.00    +0.000 HD
ENDBRANCH   1  13
BRANCH   1  16
ATOM     16  C   TRP A   1       2.158  12.107  18.506  0.00  0.00    +0.000 C 
ATOM     17  O   TRP A   1       2.460  12.873  19.406  0.00  0.00    +0.000 OA
BRANCH  16  18
ATOM     18  OXT TRP A   1       2.476  12.358  17.199  0.00  0.00    +0.000 OA
ATOM     19  HXT TRP A   1       3.203  11.744  16.936  0.00  0.00    +0.000 HD
ENDBRANCH  16  18
ENDBRANCH   1  16
BRANCH   1  20
ATOM     20  CB  TRP A   1       1.964   9.511  18.162  0.00  0.00    +0.000 C 
BRANCH  20  21
ATOM     21  CG  TRP A   1       1.908   8.320  19.072  0.00  0.00    +0.000 A 
ATOM     22  CD1 TRP A   1       1.534   8.434  20.401  0.00  0.00    +0.000 A 
ATOM     23  NE1 TRP A   1       1.515   7.184  20.937  0.00  0.00    +0.000 N 
ATOM     24  CE2 TRP A   1       2.237   6.349  20.125  0.00  0.00    +0.000 A 
ATOM     25  CZ2 TRP A   1       2.847   5.125  20.403  0.00  0.00    +0.000 A 
ATOM     26  CH2 TRP A   1       3.260   4.368  19.311  0.00  0.00    +0.000 A 
ATOM     27  CZ3 TRP A   1       2.982   4.793  18.011  0.00  0.00    +0.000 A 
ATOM     28  CE3 TRP A   1       2.462   6.076  17.762  0.00  0.00    +0.000 A 
ATOM     29  CD2 TRP A   1       2.187   6.925  18.854  0.00  0.00    +0.000 A 
ATOM     30  HE1 TRP A   1       1.050   6.908  21.790  0.00  0.00    +0.000 HD
ENDBRANCH  20  21
ENDBRANCH   1  20
TORSDOF 5
ENDMDL
MODEL 9
REMARK VINA RESULT:      -7.1      9.631     11.844
REMARK  Name = 
REMARK  7 active torsions:
REMARK  status: ('A' for Active; 'I' for Inactive)
REMARK    1  A    between atoms: C_1  and  C_2
REMARK    2  A    between atoms: C_2  and  C_3
REMARK    3  A    between atoms: N_12  and  CA_13
REMARK    4  A    between atoms: CA_13  and  CB_14
REMARK    5  A    between atoms: CA_13  and  C_24
REMARK    6  A    between atoms: CB_14  and  CG_15
REMARK    7  A    between atoms: C_24  and  OXT_26
REMARK                            x       y       z     vdW  Elec       q    Type
REMARK                         _______ _______ _______ _____ _____    ______ ____
ROOT
ATOM      1  CA  TRP A   1      11.116  13.211  18.631  0.00  0.00    +0.000 C 
ENDROOT
BRANCH   1  13
ATOM      2  C   UNK A   0      11.080  17.657  19.962  0.00  0.00    +0.000 C 
ATOM      3  C   UNK A   0      10.189  17.289  18.760  0.00  0.00    +0.000 C 
ATOM      4  C   UNK A   0      10.744  17.986  17.507  0.00  0.00    +0.000 C 
ATOM      5  C   UNK A   0       8.744  17.745  19.052  0.00  0.00    +0.000 C 
ATOM      6  C   UNK A   0       7.671  16.745  18.760  0.00  0.00    +0.000 A 
ATOM      7  C   UNK A   0       6.323  17.131  18.841  0.00  0.00    +0.000 A 
ATOM      8  C   UNK A   0       5.303  16.207  18.615  0.00  0.00    +0.000 A 
ATOM      9  C   UNK A   0       5.614  14.887  18.283  0.00  0.00    +0.000 A 
ATOM     10  C   UNK A   0       6.947  14.499  18.188  0.00  0.00    +0.000 A 
ATOM     11  C   UNK A   0       7.975  15.415  18.454  0.00  0.00    +0.000 A 
ATOM     12  C   UNK A   0       9.404  15.004  18.449  0.00  0.00    +0.000 C 
ATOM     13  N   TRP A   1       9.729  13.662  18.331  0.00  0.00    +0.000 N 
ATOM     14  N   UNK A   0      10.367  15.848  18.567  0.00  0.00    +0.000 NA
ATOM     15  H   TRP A   1       9.046  13.004  18.699  0.00  0.00    +0.000 HD
ENDBRANCH   1  13
BRANCH   1  16
ATOM     16  C   TRP A   1      11.773  12.773  17.317  0.00  0.00    +0.000 C 
ATOM     17  O   TRP A   1      11.793  13.380  16.258  0.00  0.00    +0.000 OA
BRANCH  16  18
ATOM     18  OXT TRP A   1      12.292  11.513  17.442  0.00  0.00    +0.000 OA
ATOM     19  HXT TRP A   1      11.566  10.864  17.279  0.00  0.00    +0.000 HD
ENDBRANCH  16  18
ENDBRANCH   1  16
BRANCH   1  20
ATOM     20  CB  TRP A   1      11.182  12.244  19.820  0.00  0.00    +0.000 C 
BRANCH  20  21
ATOM     21  CG  TRP A   1      10.112  12.301  20.868  0.00  0.00    +0.000 A 
ATOM     22  CD1 TRP A   1       9.382  11.178  21.227  0.00  0.00    +0.000 A 
ATOM     23  NE1 TRP A   1       8.546  11.532  22.239  0.00  0.00    +0.000 N 
ATOM     24  CE2 TRP A   1       8.435  12.897  22.260  0.00  0.00    +0.000 A 
ATOM     25  CZ2 TRP A   1       7.442  13.715  22.800  0.00  0.00    +0.000 A 
ATOM     26  CH2 TRP A   1       7.742  15.069  22.924  0.00  0.00    +0.000 A 
ATOM     27  CZ3 TRP A   1       9.015  15.542  22.603  0.00  0.00    +0.000 A 
ATOM     28  CE3 TRP A   1       9.957  14.716  21.963  0.00  0.00    +0.000 A 
ATOM     29  CD2 TRP A   1       9.611  13.379  21.680  0.00  0.00    +0.000 A 
ATOM     30  HE1 TRP A   1       8.079  10.902  22.876  0.00  0.00    +0.000 HD
ENDBRANCH  20  21
ENDBRANCH   1  20
TORSDOF 5
ENDMDL
