MODEL 1
REMARK VINA RESULT:      -7.2      0.000      0.000
REMARK  Name = 
REMARK  14 active torsions:
REMARK  status: ('A' for Active; 'I' for Inactive)
REMARK    1  A    between atoms: O_1  and  C_2
REMARK    2  A    between atoms: C_2  and  C_3
REMARK    3  A    between atoms: C_3  and  C_4
REMARK    4  A    between atoms: C_4  and  C_5
REMARK    5  A    between atoms: C_5  and  C_6
REMARK    6  A    between atoms: C_6  and  C_7
REMARK    7  A    between atoms: C_7  and  C_8
REMARK    8  A    between atoms: C_8  and  C_9
REMARK    9  A    between atoms: C_9  and  C_10
REMARK   10  A    between atoms: C_10  and  C_11
REMARK   11  A    between atoms: C_11  and  P_12
REMARK   12  A    between atoms: P_12  and  C_13
REMARK   13  A    between atoms: P_12  and  C_19
REMARK   14  A    between atoms: P_12  and  C_25
REMARK                            x       y       z     vdW  Elec       q    Type
REMARK                         _______ _______ _______ _____ _____    ______ ____
ROOT
ATOM      1  P   UNL     1       4.224   5.323  18.231  0.00  0.00    +0.000 P 
ENDROOT
BRANCH   1   2
ATOM      2  C   UNL     1       3.212   6.797  18.380  0.00  0.00    +0.000 A 
ATOM      3  C   UNL     1       3.172   7.792  17.397  0.00  0.00    +0.000 A 
ATOM      4  C   UNL     1       2.444   8.971  17.585  0.00  0.00    +0.000 A 
ATOM      5  C   UNL     1       1.725   9.168  18.759  0.00  0.00    +0.000 A 
ATOM      6  C   UNL     1       1.734   8.184  19.742  0.00  0.00    +0.000 A 
ATOM      7  C   UNL     1       2.475   7.013  19.555  0.00  0.00    +0.000 A 
ENDBRANCH   1   2
BRANCH   1   8
ATOM      8  C   UNL     1       4.950   5.098  16.608  0.00  0.00    +0.000 A 
ATOM      9  C   UNL     1       5.124   6.165  15.718  0.00  0.00    +0.000 A 
ATOM     10  C   UNL     1       5.682   5.972  14.449  0.00  0.00    +0.000 A 
ATOM     11  C   UNL     1       6.067   4.699  14.041  0.00  0.00    +0.000 A 
ATOM     12  C   UNL     1       5.862   3.618  14.889  0.00  0.00    +0.000 A 
ATOM     13  C   UNL     1       5.290   3.815  16.148  0.00  0.00    +0.000 A 
ENDBRANCH   1   8
BRANCH   1  14
ATOM     14  C   UNL     1       3.282   3.892  18.767  0.00  0.00    +0.000 A 
ATOM     15  C   UNL     1       1.973   3.648  18.326  0.00  0.00    +0.000 A 
ATOM     16  C   UNL     1       1.223   2.584  18.831  0.00  0.00    +0.000 A 
ATOM     17  C   UNL     1       1.787   1.715  19.758  0.00  0.00    +0.000 A 
ATOM     18  C   UNL     1       3.109   1.896  20.154  0.00  0.00    +0.000 A 
ATOM     19  C   UNL     1       3.854   2.968  19.652  0.00  0.00    +0.000 A 
ENDBRANCH   1  14
BRANCH   1  20
ATOM     20  C   UNL     1       5.632   5.576  19.374  0.00  0.00    +0.000 C 
BRANCH  20  21
ATOM     21  C   UNL     1       6.996   5.421  18.707  0.00  0.00    +0.000 C 
BRANCH  21  22
ATOM     22  C   UNL     1       7.833   6.682  18.848  0.00  0.00    +0.000 C 
BRANCH  22  23
ATOM     23  C   UNL     1       7.765   7.525  17.569  0.00  0.00    +0.000 C 
BRANCH  23  24
ATOM     24  C   UNL     1       7.969   9.020  17.818  0.00  0.00    +0.000 C 
BRANCH  24  25
ATOM     25  C   UNL     1       9.015   9.292  18.897  0.00  0.00    +0.000 C 
BRANCH  25  26
ATOM     26  C   UNL     1       9.225  10.785  19.136  0.00  0.00    +0.000 C 
BRANCH  26  27
ATOM     27  C   UNL     1       9.715  11.445  17.847  0.00  0.00    +0.000 C 
BRANCH  27  28
ATOM     28  C   UNL     1      11.179  11.859  17.931  0.00  0.00    +0.000 C 
BRANCH  28  29
ATOM     29  C   UNL     1      11.411  13.143  17.141  0.00  0.00    +0.000 C 
BRANCH  29  30
ATOM     30  O   UNL     1      12.281  12.899  16.047  0.00  0.00    +0.000 OA
ATOM     31  H   UNL     1      11.725  12.647  15.289  0.00  0.00    +0.000 HD
ENDBRANCH  29  30
ENDBRANCH  28  29
ENDBRANCH  27  28
ENDBRANCH  26  27
ENDBRANCH  25  26
ENDBRANCH  24  25
ENDBRANCH  23  24
ENDBRANCH  22  23
ENDBRANCH  21  22
ENDBRANCH  20  21
ENDBRANCH   1  20
TORSDOF 14
ENDMDL
MODEL 2
REMARK VINA RESULT:      -7.1      0.944      1.324
REMARK  Name = 
REMARK  14 active torsions:
REMARK  status: ('A' for Active; 'I' for Inactive)
REMARK    1  A    between atoms: O_1  and  C_2
REMARK    2  A    between atoms: C_2  and  C_3
REMARK    3  A    between atoms: C_3  and  C_4
REMARK    4  A    between atoms: C_4  and  C_5
REMARK    5  A    between atoms: C_5  and  C_6
REMARK    6  A    between atoms: C_6  and  C_7
REMARK    7  A    between atoms: C_7  and  C_8
REMARK    8  A    between atoms: C_8  and  C_9
REMARK    9  A    between atoms: C_9  and  C_10
REMARK   10  A    between atoms: C_10  and  C_11
REMARK   11  A    between atoms: C_11  and  P_12
REMARK   12  A    between atoms: P_12  and  C_13
REMARK   13  A    between atoms: P_12  and  C_19
REMARK   14  A    between atoms: P_12  and  C_25
REMARK                            x       y       z     vdW  Elec       q    Type
REMARK                         _______ _______ _______ _____ _____    ______ ____
ROOT
ATOM      1  P   UNL     1       3.649   5.556  18.499  0.00  0.00    +0.000 P 
ENDROOT
BRANCH   1   2
ATOM      2  C   UNL     1       2.708   7.078  18.623  0.00  0.00    +0.000 A 
ATOM      3  C   UNL     1       2.621   8.004  17.577  0.00  0.00    +0.000 A 
ATOM      4  C   UNL     1       1.955   9.223  17.739  0.00  0.00    +0.000 A 
ATOM      5  C   UNL     1       1.347   9.531  18.951  0.00  0.00    +0.000 A 
ATOM      6  C   UNL     1       1.405   8.619  19.999  0.00  0.00    +0.000 A 
ATOM      7  C   UNL     1       2.083   7.407  19.837  0.00  0.00    +0.000 A 
ENDBRANCH   1   2
BRANCH   1   8
ATOM      8  C   UNL     1       4.434   5.312  16.906  0.00  0.00    +0.000 A 
ATOM      9  C   UNL     1       4.694   4.035  16.394  0.00  0.00    +0.000 A 
ATOM     10  C   UNL     1       5.319   3.861  15.154  0.00  0.00    +0.000 A 
ATOM     11  C   UNL     1       5.708   4.966  14.405  0.00  0.00    +0.000 A 
ATOM     12  C   UNL     1       5.501   6.243  14.913  0.00  0.00    +0.000 A 
ATOM     13  C   UNL     1       4.892   6.411  16.159  0.00  0.00    +0.000 A 
ENDBRANCH   1   8
BRANCH   1  14
ATOM     14  C   UNL     1       2.612   4.170  18.973  0.00  0.00    +0.000 A 
ATOM     15  C   UNL     1       1.674   3.601  18.099  0.00  0.00    +0.000 A 
ATOM     16  C   UNL     1       0.809   2.589  18.519  0.00  0.00    +0.000 A 
ATOM     17  C   UNL     1       0.897   2.095  19.816  0.00  0.00    +0.000 A 
ATOM     18  C   UNL     1       1.869   2.595  20.678  0.00  0.00    +0.000 A 
ATOM     19  C   UNL     1       2.727   3.614  20.255  0.00  0.00    +0.000 A 
ENDBRANCH   1  14
BRANCH   1  20
ATOM     20  C   UNL     1       5.016   5.722  19.705  0.00  0.00    +0.000 C 
BRANCH  20  21
ATOM     21  C   UNL     1       6.345   5.162  19.204  0.00  0.00    +0.000 C 
BRANCH  21  22
ATOM     22  C   UNL     1       7.465   6.183  19.334  0.00  0.00    +0.000 C 
BRANCH  22  23
ATOM     23  C   UNL     1       7.977   6.603  17.952  0.00  0.00    +0.000 C 
BRANCH  23  24
ATOM     24  C   UNL     1       7.660   8.059  17.606  0.00  0.00    +0.000 C 
BRANCH  24  25
ATOM     25  C   UNL     1       8.517   9.044  18.397  0.00  0.00    +0.000 C 
BRANCH  25  26
ATOM     26  C   UNL     1       8.182  10.498  18.069  0.00  0.00    +0.000 C 
BRANCH  26  27
ATOM     27  C   UNL     1       9.473  11.311  17.979  0.00  0.00    +0.000 C 
BRANCH  27  28
ATOM     28  C   UNL     1      10.420  11.019  19.135  0.00  0.00    +0.000 C 
BRANCH  28  29
ATOM     29  C   UNL     1      11.643  11.928  19.059  0.00  0.00    +0.000 C 
BRANCH  29  30
ATOM     30  O   UNL     1      12.201  11.897  17.755  0.00  0.00    +0.000 OA
ATOM     31  H   UNL     1      12.270  12.818  17.450  0.00  0.00    +0.000 HD
ENDBRANCH  29  30
ENDBRANCH  28  29
ENDBRANCH  27  28
ENDBRANCH  26  27
ENDBRANCH  25  26
ENDBRANCH  24  25
ENDBRANCH  23  24
ENDBRANCH  22  23
ENDBRANCH  21  22
ENDBRANCH  20  21
ENDBRANCH   1  20
TORSDOF 14
ENDMDL
MODEL 3
REMARK VINA RESULT:      -7.0      3.670      7.113
REMARK  Name = 
REMARK  14 active torsions:
REMARK  status: ('A' for Active; 'I' for Inactive)
REMARK    1  A    between atoms: O_1  and  C_2
REMARK    2  A    between atoms: C_2  and  C_3
REMARK    3  A    between atoms: C_3  and  C_4
REMARK    4  A    between atoms: C_4  and  C_5
REMARK    5  A    between atoms: C_5  and  C_6
REMARK    6  A    between atoms: C_6  and  C_7
REMARK    7  A    between atoms: C_7  and  C_8
REMARK    8  A    between atoms: C_8  and  C_9
REMARK    9  A    between atoms: C_9  and  C_10
REMARK   10  A    between atoms: C_10  and  C_11
REMARK   11  A    between atoms: C_11  and  P_12
REMARK   12  A    between atoms: P_12  and  C_13
REMARK   13  A    between atoms: P_12  and  C_19
REMARK   14  A    between atoms: P_12  and  C_25
REMARK                            x       y       z     vdW  Elec       q    Type
REMARK                         _______ _______ _______ _____ _____    ______ ____
ROOT
ATOM      1  P   UNL     1       3.651   5.529  18.559  0.00  0.00    +0.000 P 
ENDROOT
BRANCH   1   2
ATOM      2  C   UNL     1       2.676   7.024  18.738  0.00  0.00    +0.000 A 
ATOM      3  C   UNL     1       2.447   7.912  17.681  0.00  0.00    +0.000 A 
ATOM      4  C   UNL     1       1.760   9.114  17.877  0.00  0.00    +0.000 A 
ATOM      5  C   UNL     1       1.273   9.442  19.137  0.00  0.00    +0.000 A 
ATOM      6  C   UNL     1       1.473   8.567  20.199  0.00  0.00    +0.000 A 
ATOM      7  C   UNL     1       2.172   7.372  20.001  0.00  0.00    +0.000 A 
ENDBRANCH   1   2
BRANCH   1   8
ATOM      8  C   UNL     1       3.284   4.268  19.779  0.00  0.00    +0.000 A 
ATOM      9  C   UNL     1       2.284   4.438  20.745  0.00  0.00    +0.000 A 
ATOM     10  C   UNL     1       2.018   3.450  21.699  0.00  0.00    +0.000 A 
ATOM     11  C   UNL     1       2.759   2.273  21.713  0.00  0.00    +0.000 A 
ATOM     12  C   UNL     1       3.787   2.101  20.794  0.00  0.00    +0.000 A 
ATOM     13  C   UNL     1       4.059   3.098  19.854  0.00  0.00    +0.000 A 
ENDBRANCH   1   8
BRANCH   1  14
ATOM     14  C   UNL     1       5.394   5.952  18.511  0.00  0.00    +0.000 A 
ATOM     15  C   UNL     1       6.329   5.384  19.389  0.00  0.00    +0.000 A 
ATOM     16  C   UNL     1       7.662   5.799  19.401  0.00  0.00    +0.000 A 
ATOM     17  C   UNL     1       8.095   6.765  18.500  0.00  0.00    +0.000 A 
ATOM     18  C   UNL     1       7.201   7.290  17.571  0.00  0.00    +0.000 A 
ATOM     19  C   UNL     1       5.866   6.877  17.568  0.00  0.00    +0.000 A 
ENDBRANCH   1  14
BRANCH   1  20
ATOM     20  C   UNL     1       3.163   4.814  16.946  0.00  0.00    +0.000 C 
BRANCH  20  21
ATOM     21  C   UNL     1       4.231   3.916  16.327  0.00  0.00    +0.000 C 
BRANCH  21  22
ATOM     22  C   UNL     1       4.950   4.611  15.182  0.00  0.00    +0.000 C 
BRANCH  22  23
ATOM     23  C   UNL     1       6.370   4.057  15.016  0.00  0.00    +0.000 C 
BRANCH  23  24
ATOM     24  C   UNL     1       7.168   4.756  13.914  0.00  0.00    +0.000 C 
BRANCH  24  25
ATOM     25  C   UNL     1       6.755   4.298  12.518  0.00  0.00    +0.000 C 
BRANCH  25  26
ATOM     26  C   UNL     1       5.905   3.029  12.553  0.00  0.00    +0.000 C 
BRANCH  26  27
ATOM     27  C   UNL     1       5.252   2.815  11.187  0.00  0.00    +0.000 C 
BRANCH  27  28
ATOM     28  C   UNL     1       3.756   3.107  11.211  0.00  0.00    +0.000 C 
BRANCH  28  29
ATOM     29  C   UNL     1       3.401   4.131  10.139  0.00  0.00    +0.000 C 
BRANCH  29  30
ATOM     30  O   UNL     1       2.742   3.500   9.052  0.00  0.00    +0.000 OA
ATOM     31  H   UNL     1       2.264   2.733   9.412  0.00  0.00    +0.000 HD
ENDBRANCH  29  30
ENDBRANCH  28  29
ENDBRANCH  27  28
ENDBRANCH  26  27
ENDBRANCH  25  26
ENDBRANCH  24  25
ENDBRANCH  23  24
ENDBRANCH  22  23
ENDBRANCH  21  22
ENDBRANCH  20  21
ENDBRANCH   1  20
TORSDOF 14
ENDMDL
MODEL 4
REMARK VINA RESULT:      -6.9      5.241      9.281
REMARK  Name = 
REMARK  14 active torsions:
REMARK  status: ('A' for Active; 'I' for Inactive)
REMARK    1  A    between atoms: O_1  and  C_2
REMARK    2  A    between atoms: C_2  and  C_3
REMARK    3  A    between atoms: C_3  and  C_4
REMARK    4  A    between atoms: C_4  and  C_5
REMARK    5  A    between atoms: C_5  and  C_6
REMARK    6  A    between atoms: C_6  and  C_7
REMARK    7  A    between atoms: C_7  and  C_8
REMARK    8  A    between atoms: C_8  and  C_9
REMARK    9  A    between atoms: C_9  and  C_10
REMARK   10  A    between atoms: C_10  and  C_11
REMARK   11  A    between atoms: C_11  and  P_12
REMARK   12  A    between atoms: P_12  and  C_13
REMARK   13  A    between atoms: P_12  and  C_19
REMARK   14  A    between atoms: P_12  and  C_25
REMARK                            x       y       z     vdW  Elec       q    Type
REMARK                         _______ _______ _______ _____ _____    ______ ____
ROOT
ATOM      1  P   UNL     1      -0.360  11.009  18.850  0.00  0.00    +0.000 P 
ENDROOT
BRANCH   1   2
ATOM      2  C   UNL     1       0.554  12.551  18.795  0.00  0.00    +0.000 A 
ATOM      3  C   UNL     1      -0.056  13.801  18.953  0.00  0.00    +0.000 A 
ATOM      4  C   UNL     1       0.670  14.987  18.813  0.00  0.00    +0.000 A 
ATOM      5  C   UNL     1       2.030  14.944  18.528  0.00  0.00    +0.000 A 
ATOM      6  C   UNL     1       2.662  13.714  18.385  0.00  0.00    +0.000 A 
ATOM      7  C   UNL     1       1.929  12.530  18.512  0.00  0.00    +0.000 A 
ENDBRANCH   1   2
BRANCH   1   8
ATOM      8  C   UNL     1      -1.964  11.083  18.054  0.00  0.00    +0.000 A 
ATOM      9  C   UNL     1      -3.058  11.728  18.646  0.00  0.00    +0.000 A 
ATOM     10  C   UNL     1      -4.307  11.767  18.018  0.00  0.00    +0.000 A 
ATOM     11  C   UNL     1      -4.491  11.148  16.786  0.00  0.00    +0.000 A 
ATOM     12  C   UNL     1      -3.434  10.462  16.201  0.00  0.00    +0.000 A 
ATOM     13  C   UNL     1      -2.192  10.413  16.840  0.00  0.00    +0.000 A 
ENDBRANCH   1   8
BRANCH   1  14
ATOM     14  C   UNL     1      -0.460  10.431  20.546  0.00  0.00    +0.000 A 
ATOM     15  C   UNL     1      -0.722  11.296  21.619  0.00  0.00    +0.000 A 
ATOM     16  C   UNL     1      -0.698  10.844  22.939  0.00  0.00    +0.000 A 
ATOM     17  C   UNL     1      -0.453   9.503  23.209  0.00  0.00    +0.000 A 
ATOM     18  C   UNL     1      -0.262   8.613  22.156  0.00  0.00    +0.000 A 
ATOM     19  C   UNL     1      -0.279   9.071  20.836  0.00  0.00    +0.000 A 
ENDBRANCH   1  14
BRANCH   1  20
ATOM     20  C   UNL     1       0.626   9.818  17.868  0.00  0.00    +0.000 C 
BRANCH  20  21
ATOM     21  C   UNL     1       1.865   9.302  18.597  0.00  0.00    +0.000 C 
BRANCH  21  22
ATOM     22  C   UNL     1       2.315   7.957  18.049  0.00  0.00    +0.000 C 
BRANCH  22  23
ATOM     23  C   UNL     1       2.676   7.000  19.190  0.00  0.00    +0.000 C 
BRANCH  23  24
ATOM     24  C   UNL     1       2.092   5.598  19.011  0.00  0.00    +0.000 C 
BRANCH  24  25
ATOM     25  C   UNL     1       2.797   4.811  17.910  0.00  0.00    +0.000 C 
BRANCH  25  26
ATOM     26  C   UNL     1       2.184   3.427  17.703  0.00  0.00    +0.000 C 
BRANCH  26  27
ATOM     27  C   UNL     1       1.194   3.135  18.830  0.00  0.00    +0.000 C 
BRANCH  27  28
ATOM     28  C   UNL     1       1.785   2.220  19.895  0.00  0.00    +0.000 C 
BRANCH  28  29
ATOM     29  C   UNL     1       1.378   2.695  21.285  0.00  0.00    +0.000 C 
BRANCH  29  30
ATOM     30  O   UNL     1       2.524   2.860  22.106  0.00  0.00    +0.000 OA
ATOM     31  H   UNL     1       2.489   2.169  22.791  0.00  0.00    +0.000 HD
ENDBRANCH  29  30
ENDBRANCH  28  29
ENDBRANCH  27  28
ENDBRANCH  26  27
ENDBRANCH  25  26
ENDBRANCH  24  25
ENDBRANCH  23  24
ENDBRANCH  22  23
ENDBRANCH  21  22
ENDBRANCH  20  21
ENDBRANCH   1  20
TORSDOF 14
ENDMDL
MODEL 5
REMARK VINA RESULT:      -6.9      1.157      1.492
REMARK  Name = 
REMARK  14 active torsions:
REMARK  status: ('A' for Active; 'I' for Inactive)
REMARK    1  A    between atoms: O_1  and  C_2
REMARK    2  A    between atoms: C_2  and  C_3
REMARK    3  A    between atoms: C_3  and  C_4
REMARK    4  A    between atoms: C_4  and  C_5
REMARK    5  A    between atoms: C_5  and  C_6
REMARK    6  A    between atoms: C_6  and  C_7
REMARK    7  A    between atoms: C_7  and  C_8
REMARK    8  A    between atoms: C_8  and  C_9
REMARK    9  A    between atoms: C_9  and  C_10
REMARK   10  A    between atoms: C_10  and  C_11
REMARK   11  A    between atoms: C_11  and  P_12
REMARK   12  A    between atoms: P_12  and  C_13
REMARK   13  A    between atoms: P_12  and  C_19
REMARK   14  A    between atoms: P_12  and  C_25
REMARK                            x       y       z     vdW  Elec       q    Type
REMARK                         _______ _______ _______ _____ _____    ______ ____
ROOT
ATOM      1  P   UNL     1       4.060   5.436  18.329  0.00  0.00    +0.000 P 
ENDROOT
BRANCH   1   2
ATOM      2  C   UNL     1       3.083   6.936  18.431  0.00  0.00    +0.000 A 
ATOM      3  C   UNL     1       3.093   7.918  17.434  0.00  0.00    +0.000 A 
ATOM      4  C   UNL     1       2.390   9.117  17.587  0.00  0.00    +0.000 A 
ATOM      5  C   UNL     1       1.648   9.349  18.739  0.00  0.00    +0.000 A 
ATOM      6  C   UNL     1       1.608   8.381  19.736  0.00  0.00    +0.000 A 
ATOM      7  C   UNL     1       2.322   7.189  19.584  0.00  0.00    +0.000 A 
ENDBRANCH   1   2
BRANCH   1   8
ATOM      8  C   UNL     1       4.793   5.151  16.718  0.00  0.00    +0.000 A 
ATOM      9  C   UNL     1       5.028   6.195  15.814  0.00  0.00    +0.000 A 
ATOM     10  C   UNL     1       5.590   5.955  14.555  0.00  0.00    +0.000 A 
ATOM     11  C   UNL     1       5.917   4.659  14.170  0.00  0.00    +0.000 A 
ATOM     12  C   UNL     1       5.652   3.602  15.032  0.00  0.00    +0.000 A 
ATOM     13  C   UNL     1       5.076   3.846  16.281  0.00  0.00    +0.000 A 
ENDBRANCH   1   8
BRANCH   1  14
ATOM     14  C   UNL     1       3.081   4.042  18.894  0.00  0.00    +0.000 A 
ATOM     15  C   UNL     1       3.375   3.350  20.078  0.00  0.00    +0.000 A 
ATOM     16  C   UNL     1       2.662   2.208  20.448  0.00  0.00    +0.000 A 
ATOM     17  C   UNL     1       1.608   1.761  19.659  0.00  0.00    +0.000 A 
ATOM     18  C   UNL     1       1.253   2.475  18.518  0.00  0.00    +0.000 A 
ATOM     19  C   UNL     1       1.975   3.613  18.147  0.00  0.00    +0.000 A 
ENDBRANCH   1  14
BRANCH   1  20
ATOM     20  C   UNL     1       5.466   5.685  19.476  0.00  0.00    +0.000 C 
BRANCH  20  21
ATOM     21  C   UNL     1       6.821   5.330  18.869  0.00  0.00    +0.000 C 
BRANCH  21  22
ATOM     22  C   UNL     1       7.774   6.514  18.899  0.00  0.00    +0.000 C 
BRANCH  22  23
ATOM     23  C   UNL     1       7.699   7.303  17.587  0.00  0.00    +0.000 C 
BRANCH  23  24
ATOM     24  C   UNL     1       7.887   8.810  17.775  0.00  0.00    +0.000 C 
BRANCH  24  25
ATOM     25  C   UNL     1       8.836   9.137  18.925  0.00  0.00    +0.000 C 
BRANCH  25  26
ATOM     26  C   UNL     1       9.592  10.445  18.698  0.00  0.00    +0.000 C 
BRANCH  26  27
ATOM     27  C   UNL     1       8.709  11.414  17.912  0.00  0.00    +0.000 C 
BRANCH  27  28
ATOM     28  C   UNL     1       9.367  12.776  17.730  0.00  0.00    +0.000 C 
BRANCH  28  29
ATOM     29  C   UNL     1       8.414  13.886  18.160  0.00  0.00    +0.000 C 
BRANCH  29  30
ATOM     30  O   UNL     1       7.347  14.007  17.232  0.00  0.00    +0.000 OA
ATOM     31  H   UNL     1       7.743  14.075  16.346  0.00  0.00    +0.000 HD
ENDBRANCH  29  30
ENDBRANCH  28  29
ENDBRANCH  27  28
ENDBRANCH  26  27
ENDBRANCH  25  26
ENDBRANCH  24  25
ENDBRANCH  23  24
ENDBRANCH  22  23
ENDBRANCH  21  22
ENDBRANCH  20  21
ENDBRANCH   1  20
TORSDOF 14
ENDMDL
MODEL 6
REMARK VINA RESULT:      -6.9      5.430      9.500
REMARK  Name = 
REMARK  14 active torsions:
REMARK  status: ('A' for Active; 'I' for Inactive)
REMARK    1  A    between atoms: O_1  and  C_2
REMARK    2  A    between atoms: C_2  and  C_3
REMARK    3  A    between atoms: C_3  and  C_4
REMARK    4  A    between atoms: C_4  and  C_5
REMARK    5  A    between atoms: C_5  and  C_6
REMARK    6  A    between atoms: C_6  and  C_7
REMARK    7  A    between atoms: C_7  and  C_8
REMARK    8  A    between atoms: C_8  and  C_9
REMARK    9  A    between atoms: C_9  and  C_10
REMARK   10  A    between atoms: C_10  and  C_11
REMARK   11  A    between atoms: C_11  and  P_12
REMARK   12  A    between atoms: P_12  and  C_13
REMARK   13  A    between atoms: P_12  and  C_19
REMARK   14  A    between atoms: P_12  and  C_25
REMARK                            x       y       z     vdW  Elec       q    Type
REMARK                         _______ _______ _______ _____ _____    ______ ____
ROOT
ATOM      1  P   UNL     1       0.069  11.365  19.120  0.00  0.00    +0.000 P 
ENDROOT
BRANCH   1   2
ATOM      2  C   UNL     1      -0.018  10.634  20.755  0.00  0.00    +0.000 A 
ATOM      3  C   UNL     1      -0.874  11.110  21.755  0.00  0.00    +0.000 A 
ATOM      4  C   UNL     1      -0.852  10.576  23.047  0.00  0.00    +0.000 A 
ATOM      5  C   UNL     1       0.021   9.540  23.359  0.00  0.00    +0.000 A 
ATOM      6  C   UNL     1       0.868   9.038  22.378  0.00  0.00    +0.000 A 
ATOM      7  C   UNL     1       0.852   9.583  21.091  0.00  0.00    +0.000 A 
ENDBRANCH   1   2
BRANCH   1   8
ATOM      8  C   UNL     1       0.533  13.096  19.118  0.00  0.00    +0.000 A 
ATOM      9  C   UNL     1       1.815  13.521  18.747  0.00  0.00    +0.000 A 
ATOM     10  C   UNL     1       2.166  14.875  18.763  0.00  0.00    +0.000 A 
ATOM     11  C   UNL     1       1.241  15.833  19.163  0.00  0.00    +0.000 A 
ATOM     12  C   UNL     1      -0.022  15.432  19.580  0.00  0.00    +0.000 A 
ATOM     13  C   UNL     1      -0.362  14.077  19.578  0.00  0.00    +0.000 A 
ENDBRANCH   1   8
BRANCH   1  14
ATOM     14  C   UNL     1      -1.469  11.065  18.246  0.00  0.00    +0.000 A 
ATOM     15  C   UNL     1      -2.656  11.745  18.561  0.00  0.00    +0.000 A 
ATOM     16  C   UNL     1      -3.863  11.426  17.938  0.00  0.00    +0.000 A 
ATOM     17  C   UNL     1      -3.898  10.448  16.951  0.00  0.00    +0.000 A 
ATOM     18  C   UNL     1      -2.719   9.812  16.571  0.00  0.00    +0.000 A 
ATOM     19  C   UNL     1      -1.514  10.128  17.204  0.00  0.00    +0.000 A 
ENDBRANCH   1  14
BRANCH   1  20
ATOM     20  C   UNL     1       1.427  10.487  18.260  0.00  0.00    +0.000 C 
BRANCH  20  21
ATOM     21  C   UNL     1       1.116   9.022  17.962  0.00  0.00    +0.000 C 
BRANCH  21  22
ATOM     22  C   UNL     1       2.387   8.198  17.830  0.00  0.00    +0.000 C 
BRANCH  22  23
ATOM     23  C   UNL     1       2.522   7.218  19.002  0.00  0.00    +0.000 C 
BRANCH  23  24
ATOM     24  C   UNL     1       2.895   5.801  18.565  0.00  0.00    +0.000 C 
BRANCH  24  25
ATOM     25  C   UNL     1       3.293   4.916  19.744  0.00  0.00    +0.000 C 
BRANCH  25  26
ATOM     26  C   UNL     1       2.247   4.930  20.857  0.00  0.00    +0.000 C 
BRANCH  26  27
ATOM     27  C   UNL     1       0.976   4.232  20.372  0.00  0.00    +0.000 C 
BRANCH  27  28
ATOM     28  C   UNL     1       1.171   2.730  20.206  0.00  0.00    +0.000 C 
BRANCH  28  29
ATOM     29  C   UNL     1       0.923   2.322  18.758  0.00  0.00    +0.000 C 
BRANCH  29  30
ATOM     30  O   UNL     1       2.069   1.677  18.223  0.00  0.00    +0.000 OA
ATOM     31  H   UNL     1       2.017   1.755  17.255  0.00  0.00    +0.000 HD
ENDBRANCH  29  30
ENDBRANCH  28  29
ENDBRANCH  27  28
ENDBRANCH  26  27
ENDBRANCH  25  26
ENDBRANCH  24  25
ENDBRANCH  23  24
ENDBRANCH  22  23
ENDBRANCH  21  22
ENDBRANCH  20  21
ENDBRANCH   1  20
TORSDOF 14
ENDMDL
MODEL 7
REMARK VINA RESULT:      -6.9      3.588      6.917
REMARK  Name = 
REMARK  14 active torsions:
REMARK  status: ('A' for Active; 'I' for Inactive)
REMARK    1  A    between atoms: O_1  and  C_2
REMARK    2  A    between atoms: C_2  and  C_3
REMARK    3  A    between atoms: C_3  and  C_4
REMARK    4  A    between atoms: C_4  and  C_5
REMARK    5  A    between atoms: C_5  and  C_6
REMARK    6  A    between atoms: C_6  and  C_7
REMARK    7  A    between atoms: C_7  and  C_8
REMARK    8  A    between atoms: C_8  and  C_9
REMARK    9  A    between atoms: C_9  and  C_10
REMARK   10  A    between atoms: C_10  and  C_11
REMARK   11  A    between atoms: C_11  and  P_12
REMARK   12  A    between atoms: P_12  and  C_13
REMARK   13  A    between atoms: P_12  and  C_19
REMARK   14  A    between atoms: P_12  and  C_25
REMARK                            x       y       z     vdW  Elec       q    Type
REMARK                         _______ _______ _______ _____ _____    ______ ____
ROOT
ATOM      1  P   UNL     1       3.051   5.789  18.964  0.00  0.00    +0.000 P 
ENDROOT
BRANCH   1   2
ATOM      2  C   UNL     1       2.763   4.433  20.101  0.00  0.00    +0.000 A 
ATOM      3  C   UNL     1       3.741   3.478  20.406  0.00  0.00    +0.000 A 
ATOM      4  C   UNL     1       3.455   2.381  21.225  0.00  0.00    +0.000 A 
ATOM      5  C   UNL     1       2.185   2.229  21.770  0.00  0.00    +0.000 A 
ATOM      6  C   UNL     1       1.203   3.174  21.496  0.00  0.00    +0.000 A 
ATOM      7  C   UNL     1       1.489   4.262  20.665  0.00  0.00    +0.000 A 
ENDBRANCH   1   2
BRANCH   1   8
ATOM      8  C   UNL     1       4.782   6.093  18.614  0.00  0.00    +0.000 A 
ATOM      9  C   UNL     1       5.193   6.938  17.574  0.00  0.00    +0.000 A 
ATOM     10  C   UNL     1       6.548   7.155  17.306  0.00  0.00    +0.000 A 
ATOM     11  C   UNL     1       7.524   6.521  18.067  0.00  0.00    +0.000 A 
ATOM     12  C   UNL     1       7.141   5.643  19.075  0.00  0.00    +0.000 A 
ATOM     13  C   UNL     1       5.786   5.417  19.328  0.00  0.00    +0.000 A 
ENDBRANCH   1   8
BRANCH   1  14
ATOM     14  C   UNL     1       2.202   7.256  19.553  0.00  0.00    +0.000 A 
ATOM     15  C   UNL     1       1.762   7.387  20.879  0.00  0.00    +0.000 A 
ATOM     16  C   UNL     1       1.017   8.493  21.292  0.00  0.00    +0.000 A 
ATOM     17  C   UNL     1       0.733   9.514  20.392  0.00  0.00    +0.000 A 
ATOM     18  C   UNL     1       1.222   9.439  19.091  0.00  0.00    +0.000 A 
ATOM     19  C   UNL     1       1.960   8.326  18.679  0.00  0.00    +0.000 A 
ENDBRANCH   1  14
BRANCH   1  20
ATOM     20  C   UNL     1       2.308   5.265  17.374  0.00  0.00    +0.000 C 
BRANCH  20  21
ATOM     21  C   UNL     1       2.056   3.762  17.284  0.00  0.00    +0.000 C 
BRANCH  21  22
ATOM     22  C   UNL     1       3.280   3.020  16.771  0.00  0.00    +0.000 C 
BRANCH  22  23
ATOM     23  C   UNL     1       4.233   3.980  16.050  0.00  0.00    +0.000 C 
BRANCH  23  24
ATOM     24  C   UNL     1       5.691   3.517  16.073  0.00  0.00    +0.000 C 
BRANCH  24  25
ATOM     25  C   UNL     1       6.462   3.964  14.834  0.00  0.00    +0.000 C 
BRANCH  25  26
ATOM     26  C   UNL     1       5.554   4.140  13.619  0.00  0.00    +0.000 C 
BRANCH  26  27
ATOM     27  C   UNL     1       6.223   3.526  12.389  0.00  0.00    +0.000 C 
BRANCH  27  28
ATOM     28  C   UNL     1       5.297   2.574  11.644  0.00  0.00    +0.000 C 
BRANCH  28  29
ATOM     29  C   UNL     1       6.022   1.270  11.329  0.00  0.00    +0.000 C 
BRANCH  29  30
ATOM     30  O   UNL     1       7.414   1.502  11.182  0.00  0.00    +0.000 OA
ATOM     31  H   UNL     1       7.641   1.311  10.255  0.00  0.00    +0.000 HD
ENDBRANCH  29  30
ENDBRANCH  28  29
ENDBRANCH  27  28
ENDBRANCH  26  27
ENDBRANCH  25  26
ENDBRANCH  24  25
ENDBRANCH  23  24
ENDBRANCH  22  23
ENDBRANCH  21  22
ENDBRANCH  20  21
ENDBRANCH   1  20
TORSDOF 14
ENDMDL
MODEL 8
REMARK VINA RESULT:      -6.9      5.155      9.299
REMARK  Name = 
REMARK  14 active torsions:
REMARK  status: ('A' for Active; 'I' for Inactive)
REMARK    1  A    between atoms: O_1  and  C_2
REMARK    2  A    between atoms: C_2  and  C_3
REMARK    3  A    between atoms: C_3  and  C_4
REMARK    4  A    between atoms: C_4  and  C_5
REMARK    5  A    between atoms: C_5  and  C_6
REMARK    6  A    between atoms: C_6  and  C_7
REMARK    7  A    between atoms: C_7  and  C_8
REMARK    8  A    between atoms: C_8  and  C_9
REMARK    9  A    between atoms: C_9  and  C_10
REMARK   10  A    between atoms: C_10  and  C_11
REMARK   11  A    between atoms: C_11  and  P_12
REMARK   12  A    between atoms: P_12  and  C_13
REMARK   13  A    between atoms: P_12  and  C_19
REMARK   14  A    between atoms: P_12  and  C_25
REMARK                            x       y       z     vdW  Elec       q    Type
REMARK                         _______ _______ _______ _____ _____    ______ ____
ROOT
ATOM      1  P   UNL     1      -0.292  10.867  18.879  0.00  0.00    +0.000 P 
ENDROOT
BRANCH   1   2
ATOM      2  C   UNL     1      -0.456  10.334  20.583  0.00  0.00    +0.000 A 
ATOM      3  C   UNL     1      -0.688  11.224  21.639  0.00  0.00    +0.000 A 
ATOM      4  C   UNL     1      -0.720  10.785  22.966  0.00  0.00    +0.000 A 
ATOM      5  C   UNL     1      -0.536   9.439  23.261  0.00  0.00    +0.000 A 
ATOM      6  C   UNL     1      -0.322   8.533  22.228  0.00  0.00    +0.000 A 
ATOM      7  C   UNL     1      -0.278   8.978  20.904  0.00  0.00    +0.000 A 
ENDBRANCH   1   2
BRANCH   1   8
ATOM      8  C   UNL     1       0.724  12.329  18.667  0.00  0.00    +0.000 A 
ATOM      9  C   UNL     1       2.092  12.247  18.377  0.00  0.00    +0.000 A 
ATOM     10  C   UNL     1       2.874  13.398  18.226  0.00  0.00    +0.000 A 
ATOM     11  C   UNL     1       2.303  14.657  18.376  0.00  0.00    +0.000 A 
ATOM     12  C   UNL     1       0.958  14.763  18.709  0.00  0.00    +0.000 A 
ATOM     13  C   UNL     1       0.185  13.610  18.875  0.00  0.00    +0.000 A 
ENDBRANCH   1   8
BRANCH   1  14
ATOM     14  C   UNL     1      -1.921  11.051  18.148  0.00  0.00    +0.000 A 
ATOM     15  C   UNL     1      -2.982  11.670  18.826  0.00  0.00    +0.000 A 
ATOM     16  C   UNL     1      -4.266  11.714  18.280  0.00  0.00    +0.000 A 
ATOM     17  C   UNL     1      -4.503  11.176  17.020  0.00  0.00    +0.000 A 
ATOM     18  C   UNL     1      -3.449  10.621  16.299  0.00  0.00    +0.000 A 
ATOM     19  C   UNL     1      -2.167  10.572  16.854  0.00  0.00    +0.000 A 
ENDBRANCH   1  14
BRANCH   1  20
ATOM     20  C   UNL     1       0.600   9.516  18.024  0.00  0.00    +0.000 C 
BRANCH  20  21
ATOM     21  C   UNL     1       1.727   8.906  18.854  0.00  0.00    +0.000 C 
BRANCH  21  22
ATOM     22  C   UNL     1       2.556   7.928  18.036  0.00  0.00    +0.000 C 
BRANCH  22  23
ATOM     23  C   UNL     1       2.977   6.728  18.890  0.00  0.00    +0.000 C 
BRANCH  23  24
ATOM     24  C   UNL     1       2.033   6.458  20.063  0.00  0.00    +0.000 C 
BRANCH  24  25
ATOM     25  C   UNL     1       2.166   5.035  20.599  0.00  0.00    +0.000 C 
BRANCH  25  26
ATOM     26  C   UNL     1       1.170   4.076  19.948  0.00  0.00    +0.000 C 
BRANCH  26  27
ATOM     27  C   UNL     1       1.809   2.694  19.811  0.00  0.00    +0.000 C 
BRANCH  27  28
ATOM     28  C   UNL     1       1.999   2.289  18.354  0.00  0.00    +0.000 C 
BRANCH  28  29
ATOM     29  C   UNL     1       3.479   2.080  18.053  0.00  0.00    +0.000 C 
BRANCH  29  30
ATOM     30  O   UNL     1       3.874   0.763  18.403  0.00  0.00    +0.000 OA
ATOM     31  H   UNL     1       4.496   0.458  17.719  0.00  0.00    +0.000 HD
ENDBRANCH  29  30
ENDBRANCH  28  29
ENDBRANCH  27  28
ENDBRANCH  26  27
ENDBRANCH  25  26
ENDBRANCH  24  25
ENDBRANCH  23  24
ENDBRANCH  22  23
ENDBRANCH  21  22
ENDBRANCH  20  21
ENDBRANCH   1  20
TORSDOF 14
ENDMDL
MODEL 9
REMARK VINA RESULT:      -6.8      5.363      9.640
REMARK  Name = 
REMARK  14 active torsions:
REMARK  status: ('A' for Active; 'I' for Inactive)
REMARK    1  A    between atoms: O_1  and  C_2
REMARK    2  A    between atoms: C_2  and  C_3
REMARK    3  A    between atoms: C_3  and  C_4
REMARK    4  A    between atoms: C_4  and  C_5
REMARK    5  A    between atoms: C_5  and  C_6
REMARK    6  A    between atoms: C_6  and  C_7
REMARK    7  A    between atoms: C_7  and  C_8
REMARK    8  A    between atoms: C_8  and  C_9
REMARK    9  A    between atoms: C_9  and  C_10
REMARK   10  A    between atoms: C_10  and  C_11
REMARK   11  A    between atoms: C_11  and  P_12
REMARK   12  A    between atoms: P_12  and  C_13
REMARK   13  A    between atoms: P_12  and  C_19
REMARK   14  A    between atoms: P_12  and  C_25
REMARK                            x       y       z     vdW  Elec       q    Type
REMARK                         _______ _______ _______ _____ _____    ______ ____
ROOT
ATOM      1  P   UNL     1      -0.495  11.251  18.920  0.00  0.00    +0.000 P 
ENDROOT
BRANCH   1   2
ATOM      2  C   UNL     1      -0.575  10.541  20.565  0.00  0.00    +0.000 A 
ATOM      3  C   UNL     1      -0.721  11.318  21.721  0.00  0.00    +0.000 A 
ATOM      4  C   UNL     1      -0.688  10.740  22.994  0.00  0.00    +0.000 A 
ATOM      5  C   UNL     1      -0.524   9.367  23.134  0.00  0.00    +0.000 A 
ATOM      6  C   UNL     1      -0.395   8.573  21.999  0.00  0.00    +0.000 A 
ATOM      7  C   UNL     1      -0.416   9.156  20.729  0.00  0.00    +0.000 A 
ENDBRANCH   1   2
BRANCH   1   8
ATOM      8  C   UNL     1       0.428  12.786  18.832  0.00  0.00    +0.000 A 
ATOM      9  C   UNL     1       1.821  12.824  18.973  0.00  0.00    +0.000 A 
ATOM     10  C   UNL     1       2.526  14.031  18.914  0.00  0.00    +0.000 A 
ATOM     11  C   UNL     1       1.846  15.229  18.724  0.00  0.00    +0.000 A 
ATOM     12  C   UNL     1       0.460  15.222  18.628  0.00  0.00    +0.000 A 
ATOM     13  C   UNL     1      -0.240  14.015  18.704  0.00  0.00    +0.000 A 
ENDBRANCH   1   8
BRANCH   1  14
ATOM     14  C   UNL     1      -2.153  11.408  18.253  0.00  0.00    +0.000 A 
ATOM     15  C   UNL     1      -3.224  11.901  19.013  0.00  0.00    +0.000 A 
ATOM     16  C   UNL     1      -4.526  11.921  18.508  0.00  0.00    +0.000 A 
ATOM     17  C   UNL     1      -4.773  11.488  17.210  0.00  0.00    +0.000 A 
ATOM     18  C   UNL     1      -3.714  11.063  16.413  0.00  0.00    +0.000 A 
ATOM     19  C   UNL     1      -2.414  11.036  16.926  0.00  0.00    +0.000 A 
ENDBRANCH   1  14
BRANCH   1  20
ATOM     20  C   UNL     1       0.446  10.048  17.911  0.00  0.00    +0.000 C 
BRANCH  20  21
ATOM     21  C   UNL     1       1.782   9.643  18.529  0.00  0.00    +0.000 C 
BRANCH  21  22
ATOM     22  C   UNL     1       2.150   8.211  18.175  0.00  0.00    +0.000 C 
BRANCH  22  23
ATOM     23  C   UNL     1       2.369   7.379  19.443  0.00  0.00    +0.000 C 
BRANCH  23  24
ATOM     24  C   UNL     1       2.892   5.969  19.159  0.00  0.00    +0.000 C 
BRANCH  24  25
ATOM     25  C   UNL     1       2.368   5.411  17.838  0.00  0.00    +0.000 C 
BRANCH  25  26
ATOM     26  C   UNL     1       1.608   4.099  18.024  0.00  0.00    +0.000 C 
BRANCH  26  27
ATOM     27  C   UNL     1       1.126   3.990  19.471  0.00  0.00    +0.000 C 
BRANCH  27  28
ATOM     28  C   UNL     1       1.397   2.615  20.067  0.00  0.00    +0.000 C 
BRANCH  28  29
ATOM     29  C   UNL     1       1.447   2.699  21.589  0.00  0.00    +0.000 C 
BRANCH  29  30
ATOM     30  O   UNL     1       2.786   2.584  22.046  0.00  0.00    +0.000 OA
ATOM     31  H   UNL     1       2.855   3.105  22.865  0.00  0.00    +0.000 HD
ENDBRANCH  29  30
ENDBRANCH  28  29
ENDBRANCH  27  28
ENDBRANCH  26  27
ENDBRANCH  25  26
ENDBRANCH  24  25
ENDBRANCH  23  24
ENDBRANCH  22  23
ENDBRANCH  21  22
ENDBRANCH  20  21
ENDBRANCH   1  20
TORSDOF 14
ENDMDL
