MODEL 1
REMARK VINA RESULT:      -8.6      0.000      0.000
REMARK  Name = 
REMARK  8 active torsions:
REMARK  status: ('A' for Active; 'I' for Inactive)
REMARK    1  A    between atoms: C_1  and  C_2
REMARK    2  A    between atoms: C_3  and  C_4
REMARK    3  A    between atoms: N_6  and  C_7
REMARK    4  A    between atoms: C_10  and  C_11
REMARK    5  A    between atoms: C_13  and  C_14
REMARK    6  A    between atoms: C_15  and  C_16
REMARK    7  A    between atoms: C_25  and  C_26
REMARK    8  A    between atoms: N_28  and  C_29
REMARK                            x       y       z     vdW  Elec       q    Type
REMARK                         _______ _______ _______ _____ _____    ______ ____
ROOT
ATOM      1  C   UNL     1      -0.224   9.322  23.300  0.00  0.00    +0.000 C 
ATOM      2  C   UNL     1       0.085   9.879  21.928  0.00  0.00    +0.000 C 
ATOM      3  C   UNL     1      -0.237  11.109  21.441  0.00  0.00    +0.000 C 
ATOM      4  C   UNL     1       0.206  11.514  20.024  0.00  0.00    +0.000 C 
ATOM      5  N   UNL     1       0.940  10.449  19.322  0.00  0.00    +0.000 N 
ATOM      6  N   UNL     1       1.309  10.534  18.020  0.00  0.00    +0.000 NA
ATOM      7  C   UNL     1       1.899   9.353  17.799  0.00  0.00    +0.000 A 
ATOM      8  C   UNL     1       1.833   8.478  18.910  0.00  0.00    +0.000 A 
ATOM      9  C   UNL     1       1.179   9.226  19.866  0.00  0.00    +0.000 A 
ATOM     10  N   UNL     1       0.776   8.974  21.125  0.00  0.00    +0.000 N 
ATOM     11  H   UNL     1       0.959   8.047  21.525  0.00  0.00    +0.000 HD
ENDROOT
BRANCH   4  12
ATOM     12  C   UNL     1       1.012  12.808  19.964  0.00  0.00    +0.000 A 
ATOM     13  C   UNL     1       2.226  12.964  20.653  0.00  0.00    +0.000 A 
ATOM     14  C   UNL     1       2.927  14.167  20.585  0.00  0.00    +0.000 A 
ATOM     15  C   UNL     1       2.443  15.220  19.812  0.00  0.00    +0.000 A 
ATOM     16  C   UNL     1       1.250  15.073  19.106  0.00  0.00    +0.000 A 
ATOM     17  C   UNL     1       0.540  13.876  19.181  0.00  0.00    +0.000 A 
ENDBRANCH   4  12
BRANCH   3  18
ATOM     18  C   UNL     1      -0.970  12.150  22.258  0.00  0.00    +0.000 C 
ATOM     19  O   UNL     1      -0.380  12.794  23.117  0.00  0.00    +0.000 OA
ATOM     20  N   UNL     1      -2.296  12.324  21.905  0.00  0.00    +0.000 N 
ATOM     21  H   UNL     1      -2.655  11.786  21.138  0.00  0.00    +0.000 HD
BRANCH  20  22
ATOM     22  C   UNL     1      -3.257  13.193  22.470  0.00  0.00    +0.000 A 
ATOM     23  C   UNL     1      -4.114  12.799  23.501  0.00  0.00    +0.000 A 
ATOM     24  C   UNL     1      -5.114  13.656  23.967  0.00  0.00    +0.000 A 
ATOM     25  C   UNL     1      -5.274  14.927  23.414  0.00  0.00    +0.000 A 
ATOM     26  C   UNL     1      -6.388  15.827  23.855  0.00  0.00    +0.000 C 
ATOM     27  C   UNL     1      -4.388  15.348  22.420  0.00  0.00    +0.000 A 
ATOM     28  C   UNL     1      -3.375  14.500  21.940  0.00  0.00    +0.000 A 
ATOM     29  C   UNL     1      -2.436  15.049  20.898  0.00  0.00    +0.000 C 
ENDBRANCH  20  22
ENDBRANCH   3  18
BRANCH   8  30
ATOM     30  C   UNL     1       2.260   7.108  19.120  0.00  0.00    +0.000 C 
ATOM     31  O   UNL     1       2.605   6.748  20.241  0.00  0.00    +0.000 OA
ATOM     32  N   UNL     1       2.264   6.306  17.994  0.00  0.00    +0.000 N 
ATOM     33  H   UNL     1       2.153   6.750  17.093  0.00  0.00    +0.000 HD
BRANCH  32  34
ATOM     34  C   UNL     1       2.573   4.928  17.986  0.00  0.00    +0.000 A 
ATOM     35  C   UNL     1       3.863   4.438  17.757  0.00  0.00    +0.000 A 
ATOM     36  C   UNL     1       4.113   3.067  17.723  0.00  0.00    +0.000 A 
ATOM     37  C   UNL     1       3.074   2.167  17.928  0.00  0.00    +0.000 A 
ATOM     38  C   UNL     1       1.790   2.642  18.187  0.00  0.00    +0.000 A 
ATOM     39  C   UNL     1       1.541   4.018  18.229  0.00  0.00    +0.000 A 
ENDBRANCH  32  34
ENDBRANCH   8  30
TORSDOF 5
ENDMDL
MODEL 2
REMARK VINA RESULT:      -8.5      0.095      1.139
REMARK  Name = 
REMARK  8 active torsions:
REMARK  status: ('A' for Active; 'I' for Inactive)
REMARK    1  A    between atoms: C_1  and  C_2
REMARK    2  A    between atoms: C_3  and  C_4
REMARK    3  A    between atoms: N_6  and  C_7
REMARK    4  A    between atoms: C_10  and  C_11
REMARK    5  A    between atoms: C_13  and  C_14
REMARK    6  A    between atoms: C_15  and  C_16
REMARK    7  A    between atoms: C_25  and  C_26
REMARK    8  A    between atoms: N_28  and  C_29
REMARK                            x       y       z     vdW  Elec       q    Type
REMARK                         _______ _______ _______ _____ _____    ______ ____
ROOT
ATOM      1  C   UNL     1      -0.218   9.274  23.244  0.00  0.00    +0.000 C 
ATOM      2  C   UNL     1       0.085   9.842  21.876  0.00  0.00    +0.000 C 
ATOM      3  C   UNL     1      -0.240  11.077  21.401  0.00  0.00    +0.000 C 
ATOM      4  C   UNL     1       0.196  11.494  19.986  0.00  0.00    +0.000 C 
ATOM      5  N   UNL     1       0.928  10.436  19.271  0.00  0.00    +0.000 N 
ATOM      6  N   UNL     1       1.290  10.533  17.968  0.00  0.00    +0.000 NA
ATOM      7  C   UNL     1       1.881   9.354  17.734  0.00  0.00    +0.000 A 
ATOM      8  C   UNL     1       1.820   8.470  18.838  0.00  0.00    +0.000 A 
ATOM      9  C   UNL     1       1.170   9.208  19.802  0.00  0.00    +0.000 A 
ATOM     10  N   UNL     1       0.773   8.945  21.062  0.00  0.00    +0.000 N 
ATOM     11  H   UNL     1       0.958   8.014  21.452  0.00  0.00    +0.000 HD
ENDROOT
BRANCH   4  12
ATOM     12  C   UNL     1       1.002  12.789  19.933  0.00  0.00    +0.000 A 
ATOM     13  C   UNL     1       0.577  13.902  19.187  0.00  0.00    +0.000 A 
ATOM     14  C   UNL     1       1.347  15.063  19.151  0.00  0.00    +0.000 A 
ATOM     15  C   UNL     1       2.535  15.141  19.875  0.00  0.00    +0.000 A 
ATOM     16  C   UNL     1       2.959  14.053  20.636  0.00  0.00    +0.000 A 
ATOM     17  C   UNL     1       2.198  12.886  20.664  0.00  0.00    +0.000 A 
ENDBRANCH   4  12
BRANCH   3  18
ATOM     18  C   UNL     1      -0.970  12.110  22.231  0.00  0.00    +0.000 C 
ATOM     19  O   UNL     1      -0.380  12.731  23.107  0.00  0.00    +0.000 OA
ATOM     20  N   UNL     1      -2.290  12.304  21.869  0.00  0.00    +0.000 N 
ATOM     21  H   UNL     1      -2.648  11.784  21.089  0.00  0.00    +0.000 HD
BRANCH  20  22
ATOM     22  C   UNL     1      -3.248  13.173  22.442  0.00  0.00    +0.000 A 
ATOM     23  C   UNL     1      -4.099  12.777  23.476  0.00  0.00    +0.000 A 
ATOM     24  C   UNL     1      -5.096  13.633  23.950  0.00  0.00    +0.000 A 
ATOM     25  C   UNL     1      -5.258  14.905  23.401  0.00  0.00    +0.000 A 
ATOM     26  C   UNL     1      -6.369  15.805  23.850  0.00  0.00    +0.000 C 
ATOM     27  C   UNL     1      -4.377  15.328  22.403  0.00  0.00    +0.000 A 
ATOM     28  C   UNL     1      -3.368  14.480  21.915  0.00  0.00    +0.000 A 
ATOM     29  C   UNL     1      -2.435  15.031  20.868  0.00  0.00    +0.000 C 
ENDBRANCH  20  22
ENDBRANCH   3  18
BRANCH   8  30
ATOM     30  C   UNL     1       2.248   7.097  19.033  0.00  0.00    +0.000 C 
ATOM     31  O   UNL     1       2.616   6.733  20.145  0.00  0.00    +0.000 OA
ATOM     32  N   UNL     1       2.228   6.300  17.904  0.00  0.00    +0.000 N 
ATOM     33  H   UNL     1       2.098   6.747  17.007  0.00  0.00    +0.000 HD
BRANCH  32  34
ATOM     34  C   UNL     1       2.534   4.922  17.884  0.00  0.00    +0.000 A 
ATOM     35  C   UNL     1       1.589   3.928  18.160  0.00  0.00    +0.000 A 
ATOM     36  C   UNL     1       1.946   2.580  18.164  0.00  0.00    +0.000 A 
ATOM     37  C   UNL     1       3.255   2.209  17.882  0.00  0.00    +0.000 A 
ATOM     38  C   UNL     1       4.200   3.187  17.575  0.00  0.00    +0.000 A 
ATOM     39  C   UNL     1       3.839   4.539  17.564  0.00  0.00    +0.000 A 
ENDBRANCH  32  34
ENDBRANCH   8  30
TORSDOF 5
ENDMDL
MODEL 3
REMARK VINA RESULT:      -8.3      0.562      1.215
REMARK  Name = 
REMARK  8 active torsions:
REMARK  status: ('A' for Active; 'I' for Inactive)
REMARK    1  A    between atoms: C_1  and  C_2
REMARK    2  A    between atoms: C_3  and  C_4
REMARK    3  A    between atoms: N_6  and  C_7
REMARK    4  A    between atoms: C_10  and  C_11
REMARK    5  A    between atoms: C_13  and  C_14
REMARK    6  A    between atoms: C_15  and  C_16
REMARK    7  A    between atoms: C_25  and  C_26
REMARK    8  A    between atoms: N_28  and  C_29
REMARK                            x       y       z     vdW  Elec       q    Type
REMARK                         _______ _______ _______ _____ _____    ______ ____
ROOT
ATOM      1  C   UNL     1      -0.360   9.673  23.296  0.00  0.00    +0.000 C 
ATOM      2  C   UNL     1       0.020  10.179  21.922  0.00  0.00    +0.000 C 
ATOM      3  C   UNL     1      -0.225  11.412  21.397  0.00  0.00    +0.000 C 
ATOM      4  C   UNL     1       0.282  11.758  19.986  0.00  0.00    +0.000 C 
ATOM      5  N   UNL     1       0.983  10.642  19.332  0.00  0.00    +0.000 N 
ATOM      6  N   UNL     1       1.395  10.676  18.041  0.00  0.00    +0.000 NA
ATOM      7  C   UNL     1       1.932   9.461  17.867  0.00  0.00    +0.000 A 
ATOM      8  C   UNL     1       1.787   8.619  18.995  0.00  0.00    +0.000 A 
ATOM      9  C   UNL     1       1.142   9.421  19.911  0.00  0.00    +0.000 A 
ATOM     10  N   UNL     1       0.688   9.221  21.163  0.00  0.00    +0.000 N 
ATOM     11  H   UNL     1       0.811   8.296  21.589  0.00  0.00    +0.000 HD
ENDROOT
BRANCH   4  12
ATOM     12  C   UNL     1       1.155  13.009  19.921  0.00  0.00    +0.000 A 
ATOM     13  C   UNL     1       2.386  13.096  20.591  0.00  0.00    +0.000 A 
ATOM     14  C   UNL     1       3.148  14.260  20.520  0.00  0.00    +0.000 A 
ATOM     15  C   UNL     1       2.708  15.343  19.762  0.00  0.00    +0.000 A 
ATOM     16  C   UNL     1       1.497  15.265  19.075  0.00  0.00    +0.000 A 
ATOM     17  C   UNL     1       0.727  14.106  19.154  0.00  0.00    +0.000 A 
ENDBRANCH   4  12
BRANCH   3  18
ATOM     18  C   UNL     1      -0.929  12.508  22.165  0.00  0.00    +0.000 C 
ATOM     19  O   UNL     1      -0.372  13.063  23.104  0.00  0.00    +0.000 OA
ATOM     20  N   UNL     1      -2.181  12.834  21.677  0.00  0.00    +0.000 N 
ATOM     21  H   UNL     1      -2.508  12.357  20.858  0.00  0.00    +0.000 HD
BRANCH  20  22
ATOM     22  C   UNL     1      -3.101  13.791  22.165  0.00  0.00    +0.000 A 
ATOM     23  C   UNL     1      -3.304  15.024  21.542  0.00  0.00    +0.000 A 
ATOM     24  C   UNL     1      -4.151  15.981  22.107  0.00  0.00    +0.000 A 
ATOM     25  C   UNL     1      -4.816  15.720  23.305  0.00  0.00    +0.000 A 
ATOM     26  C   UNL     1      -5.670  16.764  23.959  0.00  0.00    +0.000 C 
ATOM     27  C   UNL     1      -4.660  14.469  23.907  0.00  0.00    +0.000 A 
ATOM     28  C   UNL     1      -3.812  13.494  23.351  0.00  0.00    +0.000 A 
ATOM     29  C   UNL     1      -3.734  12.158  24.041  0.00  0.00    +0.000 C 
ENDBRANCH  20  22
ENDBRANCH   3  18
BRANCH   8  30
ATOM     30  C   UNL     1       2.137   7.234  19.250  0.00  0.00    +0.000 C 
ATOM     31  O   UNL     1       2.065   6.795  20.393  0.00  0.00    +0.000 OA
ATOM     32  N   UNL     1       2.559   6.513  18.149  0.00  0.00    +0.000 N 
ATOM     33  H   UNL     1       2.768   7.020  17.300  0.00  0.00    +0.000 HD
BRANCH  32  34
ATOM     34  C   UNL     1       2.877   5.138  18.158  0.00  0.00    +0.000 A 
ATOM     35  C   UNL     1       4.110   4.644  18.595  0.00  0.00    +0.000 A 
ATOM     36  C   UNL     1       4.392   3.279  18.553  0.00  0.00    +0.000 A 
ATOM     37  C   UNL     1       3.436   2.388  18.080  0.00  0.00    +0.000 A 
ATOM     38  C   UNL     1       2.191   2.863  17.671  0.00  0.00    +0.000 A 
ATOM     39  C   UNL     1       1.906   4.232  17.721  0.00  0.00    +0.000 A 
ENDBRANCH  32  34
ENDBRANCH   8  30
TORSDOF 5
ENDMDL
MODEL 4
REMARK VINA RESULT:      -8.3      0.532      1.649
REMARK  Name = 
REMARK  8 active torsions:
REMARK  status: ('A' for Active; 'I' for Inactive)
REMARK    1  A    between atoms: C_1  and  C_2
REMARK    2  A    between atoms: C_3  and  C_4
REMARK    3  A    between atoms: N_6  and  C_7
REMARK    4  A    between atoms: C_10  and  C_11
REMARK    5  A    between atoms: C_13  and  C_14
REMARK    6  A    between atoms: C_15  and  C_16
REMARK    7  A    between atoms: C_25  and  C_26
REMARK    8  A    between atoms: N_28  and  C_29
REMARK                            x       y       z     vdW  Elec       q    Type
REMARK                         _______ _______ _______ _____ _____    ______ ____
ROOT
ATOM      1  C   UNL     1      -0.359   9.673  23.234  0.00  0.00    +0.000 C 
ATOM      2  C   UNL     1       0.024  10.200  21.868  0.00  0.00    +0.000 C 
ATOM      3  C   UNL     1      -0.208  11.444  21.365  0.00  0.00    +0.000 C 
ATOM      4  C   UNL     1       0.301  11.810  19.960  0.00  0.00    +0.000 C 
ATOM      5  N   UNL     1       0.988  10.697  19.285  0.00  0.00    +0.000 N 
ATOM      6  N   UNL     1       1.398  10.750  17.994  0.00  0.00    +0.000 NA
ATOM      7  C   UNL     1       1.921   9.533  17.797  0.00  0.00    +0.000 A 
ATOM      8  C   UNL     1       1.769   8.672  18.911  0.00  0.00    +0.000 A 
ATOM      9  C   UNL     1       1.134   9.465  19.842  0.00  0.00    +0.000 A 
ATOM     10  N   UNL     1       0.681   9.248  21.091  0.00  0.00    +0.000 N 
ATOM     11  H   UNL     1       0.794   8.314  21.501  0.00  0.00    +0.000 HD
ENDROOT
BRANCH   4  12
ATOM     12  C   UNL     1       1.187  13.052  19.915  0.00  0.00    +0.000 A 
ATOM     13  C   UNL     1       0.843  14.188  19.164  0.00  0.00    +0.000 A 
ATOM     14  C   UNL     1       1.685  15.298  19.136  0.00  0.00    +0.000 A 
ATOM     15  C   UNL     1       2.866  15.302  19.874  0.00  0.00    +0.000 A 
ATOM     16  C   UNL     1       3.212  14.190  20.641  0.00  0.00    +0.000 A 
ATOM     17  C   UNL     1       2.378  13.074  20.661  0.00  0.00    +0.000 A 
ENDBRANCH   4  12
BRANCH   3  18
ATOM     18  C   UNL     1      -0.898  12.534  22.154  0.00  0.00    +0.000 C 
ATOM     19  O   UNL     1      -0.339  13.057  23.111  0.00  0.00    +0.000 OA
ATOM     20  N   UNL     1      -2.141  12.893  21.666  0.00  0.00    +0.000 N 
ATOM     21  H   UNL     1      -2.470  12.441  20.834  0.00  0.00    +0.000 HD
BRANCH  20  22
ATOM     22  C   UNL     1      -3.048  13.854  22.170  0.00  0.00    +0.000 A 
ATOM     23  C   UNL     1      -3.227  15.104  21.573  0.00  0.00    +0.000 A 
ATOM     24  C   UNL     1      -4.061  16.062  22.155  0.00  0.00    +0.000 A 
ATOM     25  C   UNL     1      -4.737  15.786  23.344  0.00  0.00    +0.000 A 
ATOM     26  C   UNL     1      -5.577  16.830  24.016  0.00  0.00    +0.000 C 
ATOM     27  C   UNL     1      -4.604  14.520  23.919  0.00  0.00    +0.000 A 
ATOM     28  C   UNL     1      -3.770  13.544  23.346  0.00  0.00    +0.000 A 
ATOM     29  C   UNL     1      -3.718  12.191  24.007  0.00  0.00    +0.000 C 
ENDBRANCH  20  22
ENDBRANCH   3  18
BRANCH   8  30
ATOM     30  C   UNL     1       2.103   7.279  19.140  0.00  0.00    +0.000 C 
ATOM     31  O   UNL     1       2.203   6.865  20.291  0.00  0.00    +0.000 OA
ATOM     32  N   UNL     1       2.313   6.521  18.003  0.00  0.00    +0.000 N 
ATOM     33  H   UNL     1       2.400   7.003  17.119  0.00  0.00    +0.000 HD
BRANCH  32  34
ATOM     34  C   UNL     1       2.577   5.134  17.996  0.00  0.00    +0.000 A 
ATOM     35  C   UNL     1       1.568   4.167  18.049  0.00  0.00    +0.000 A 
ATOM     36  C   UNL     1       1.878   2.808  18.076  0.00  0.00    +0.000 A 
ATOM     37  C   UNL     1       3.206   2.399  18.040  0.00  0.00    +0.000 A 
ATOM     38  C   UNL     1       4.220   3.351  17.956  0.00  0.00    +0.000 A 
ATOM     39  C   UNL     1       3.908   4.715  17.922  0.00  0.00    +0.000 A 
ENDBRANCH  32  34
ENDBRANCH   8  30
TORSDOF 5
ENDMDL
MODEL 5
REMARK VINA RESULT:      -8.2      0.693      1.069
REMARK  Name = 
REMARK  8 active torsions:
REMARK  status: ('A' for Active; 'I' for Inactive)
REMARK    1  A    between atoms: C_1  and  C_2
REMARK    2  A    between atoms: C_3  and  C_4
REMARK    3  A    between atoms: N_6  and  C_7
REMARK    4  A    between atoms: C_10  and  C_11
REMARK    5  A    between atoms: C_13  and  C_14
REMARK    6  A    between atoms: C_15  and  C_16
REMARK    7  A    between atoms: C_25  and  C_26
REMARK    8  A    between atoms: N_28  and  C_29
REMARK                            x       y       z     vdW  Elec       q    Type
REMARK                         _______ _______ _______ _____ _____    ______ ____
ROOT
ATOM      1  C   UNL     1      -0.207   9.481  23.309  0.00  0.00    +0.000 C 
ATOM      2  C   UNL     1       0.115   9.983  21.919  0.00  0.00    +0.000 C 
ATOM      3  C   UNL     1      -0.183  11.202  21.389  0.00  0.00    +0.000 C 
ATOM      4  C   UNL     1       0.270  11.548  19.959  0.00  0.00    +0.000 C 
ATOM      5  N   UNL     1       0.984  10.446  19.296  0.00  0.00    +0.000 N 
ATOM      6  N   UNL     1       1.355  10.478  17.992  0.00  0.00    +0.000 NA
ATOM      7  C   UNL     1       1.923   9.279  17.814  0.00  0.00    +0.000 A 
ATOM      8  C   UNL     1       1.838   8.445  18.955  0.00  0.00    +0.000 A 
ATOM      9  C   UNL     1       1.198   9.238  19.882  0.00  0.00    +0.000 A 
ATOM     10  N   UNL     1       0.789   9.038  21.149  0.00  0.00    +0.000 N 
ATOM     11  H   UNL     1       0.953   8.122  21.581  0.00  0.00    +0.000 HD
ENDROOT
BRANCH   4  12
ATOM     12  C   UNL     1       1.101  12.824  19.855  0.00  0.00    +0.000 A 
ATOM     13  C   UNL     1       2.320  12.978  20.536  0.00  0.00    +0.000 A 
ATOM     14  C   UNL     1       3.045  14.164  20.429  0.00  0.00    +0.000 A 
ATOM     15  C   UNL     1       2.579  15.201  19.622  0.00  0.00    +0.000 A 
ATOM     16  C   UNL     1       1.381  15.055  18.924  0.00  0.00    +0.000 A 
ATOM     17  C   UNL     1       0.648  13.875  19.039  0.00  0.00    +0.000 A 
ENDBRANCH   4  12
BRANCH   3  18
ATOM     18  C   UNL     1      -0.896  12.285  22.167  0.00  0.00    +0.000 C 
ATOM     19  O   UNL     1      -0.289  12.960  22.990  0.00  0.00    +0.000 OA
ATOM     20  N   UNL     1      -2.224  12.456  21.823  0.00  0.00    +0.000 N 
ATOM     21  H   UNL     1      -2.598  11.888  21.085  0.00  0.00    +0.000 HD
BRANCH  20  22
ATOM     22  C   UNL     1      -3.171  13.358  22.361  0.00  0.00    +0.000 A 
ATOM     23  C   UNL     1      -3.002  13.973  23.604  0.00  0.00    +0.000 A 
ATOM     24  C   UNL     1      -4.004  14.784  24.143  0.00  0.00    +0.000 A 
ATOM     25  C   UNL     1      -5.193  15.001  23.446  0.00  0.00    +0.000 A 
ATOM     26  C   UNL     1      -6.304  15.809  24.045  0.00  0.00    +0.000 C 
ATOM     27  C   UNL     1      -5.348  14.432  22.180  0.00  0.00    +0.000 A 
ATOM     28  C   UNL     1      -4.350  13.615  21.621  0.00  0.00    +0.000 A 
ATOM     29  C   UNL     1      -4.579  13.077  20.233  0.00  0.00    +0.000 C 
ENDBRANCH  20  22
ENDBRANCH   3  18
BRANCH   8  30
ATOM     30  C   UNL     1       2.238   7.074  19.212  0.00  0.00    +0.000 C 
ATOM     31  O   UNL     1       2.364   6.691  20.371  0.00  0.00    +0.000 OA
ATOM     32  N   UNL     1       2.474   6.301  18.091  0.00  0.00    +0.000 N 
ATOM     33  H   UNL     1       2.534   6.766  17.196  0.00  0.00    +0.000 HD
BRANCH  32  34
ATOM     34  C   UNL     1       2.801   4.928  18.113  0.00  0.00    +0.000 A 
ATOM     35  C   UNL     1       1.891   3.923  17.768  0.00  0.00    +0.000 A 
ATOM     36  C   UNL     1       2.248   2.577  17.840  0.00  0.00    +0.000 A 
ATOM     37  C   UNL     1       3.527   2.219  18.248  0.00  0.00    +0.000 A 
ATOM     38  C   UNL     1       4.454   3.211  18.564  0.00  0.00    +0.000 A 
ATOM     39  C   UNL     1       4.097   4.562  18.485  0.00  0.00    +0.000 A 
ENDBRANCH  32  34
ENDBRANCH   8  30
TORSDOF 5
ENDMDL
MODEL 6
REMARK VINA RESULT:      -8.1      1.702      1.966
REMARK  Name = 
REMARK  8 active torsions:
REMARK  status: ('A' for Active; 'I' for Inactive)
REMARK    1  A    between atoms: C_1  and  C_2
REMARK    2  A    between atoms: C_3  and  C_4
REMARK    3  A    between atoms: N_6  and  C_7
REMARK    4  A    between atoms: C_10  and  C_11
REMARK    5  A    between atoms: C_13  and  C_14
REMARK    6  A    between atoms: C_15  and  C_16
REMARK    7  A    between atoms: C_25  and  C_26
REMARK    8  A    between atoms: N_28  and  C_29
REMARK                            x       y       z     vdW  Elec       q    Type
REMARK                         _______ _______ _______ _____ _____    ______ ____
ROOT
ATOM      1  C   UNL     1      -0.788   9.770  22.915  0.00  0.00    +0.000 C 
ATOM      2  C   UNL     1      -0.262  10.192  21.560  0.00  0.00    +0.000 C 
ATOM      3  C   UNL     1      -0.459  11.383  20.930  0.00  0.00    +0.000 C 
ATOM      4  C   UNL     1       0.199  11.646  19.564  0.00  0.00    +0.000 C 
ATOM      5  N   UNL     1       0.980  10.502  19.069  0.00  0.00    +0.000 N 
ATOM      6  N   UNL     1       1.534  10.459  17.832  0.00  0.00    +0.000 NA
ATOM      7  C   UNL     1       2.100   9.246  17.800  0.00  0.00    +0.000 A 
ATOM      8  C   UNL     1       1.838   8.476  18.959  0.00  0.00    +0.000 A 
ATOM      9  C   UNL     1       1.087   9.325  19.742  0.00  0.00    +0.000 A 
ATOM     10  N   UNL     1       0.497   9.199  20.946  0.00  0.00    +0.000 N 
ATOM     11  H   UNL     1       0.582   8.306  21.444  0.00  0.00    +0.000 HD
ENDROOT
BRANCH   4  12
ATOM     12  C   UNL     1       1.060  12.905  19.513  0.00  0.00    +0.000 A 
ATOM     13  C   UNL     1       0.684  14.037  18.771  0.00  0.00    +0.000 A 
ATOM     14  C   UNL     1       1.504  15.164  18.736  0.00  0.00    +0.000 A 
ATOM     15  C   UNL     1       2.694  15.188  19.460  0.00  0.00    +0.000 A 
ATOM     16  C   UNL     1       3.071  14.081  20.217  0.00  0.00    +0.000 A 
ATOM     17  C   UNL     1       2.260  12.948  20.244  0.00  0.00    +0.000 A 
ENDBRANCH   4  12
BRANCH   3  18
ATOM     18  C   UNL     1      -1.256  12.514  21.541  0.00  0.00    +0.000 C 
ATOM     19  O   UNL     1      -2.361  12.804  21.098  0.00  0.00    +0.000 OA
ATOM     20  N   UNL     1      -0.655  13.113  22.633  0.00  0.00    +0.000 N 
ATOM     21  H   UNL     1       0.223  12.746  22.949  0.00  0.00    +0.000 HD
BRANCH  20  22
ATOM     22  C   UNL     1      -1.117  14.195  23.417  0.00  0.00    +0.000 A 
ATOM     23  C   UNL     1      -2.172  14.070  24.324  0.00  0.00    +0.000 A 
ATOM     24  C   UNL     1      -2.662  15.183  25.010  0.00  0.00    +0.000 A 
ATOM     25  C   UNL     1      -2.102  16.445  24.806  0.00  0.00    +0.000 A 
ATOM     26  C   UNL     1      -2.665  17.659  25.480  0.00  0.00    +0.000 C 
ATOM     27  C   UNL     1      -1.013  16.570  23.940  0.00  0.00    +0.000 A 
ATOM     28  C   UNL     1      -0.507  15.459  23.242  0.00  0.00    +0.000 A 
ATOM     29  C   UNL     1       0.696  15.674  22.362  0.00  0.00    +0.000 C 
ENDBRANCH  20  22
ENDBRANCH   3  18
BRANCH   8  30
ATOM     30  C   UNL     1       2.172   7.118  19.343  0.00  0.00    +0.000 C 
ATOM     31  O   UNL     1       2.107   6.792  20.524  0.00  0.00    +0.000 OA
ATOM     32  N   UNL     1       2.571   6.288  18.312  0.00  0.00    +0.000 N 
ATOM     33  H   UNL     1       2.778   6.707  17.416  0.00  0.00    +0.000 HD
BRANCH  32  34
ATOM     34  C   UNL     1       2.870   4.915  18.451  0.00  0.00    +0.000 A 
ATOM     35  C   UNL     1       4.042   4.448  19.055  0.00  0.00    +0.000 A 
ATOM     36  C   UNL     1       4.311   3.082  19.138  0.00  0.00    +0.000 A 
ATOM     37  C   UNL     1       3.403   2.164  18.624  0.00  0.00    +0.000 A 
ATOM     38  C   UNL     1       2.216   2.614  18.048  0.00  0.00    +0.000 A 
ATOM     39  C   UNL     1       1.944   3.985  17.972  0.00  0.00    +0.000 A 
ENDBRANCH  32  34
ENDBRANCH   8  30
TORSDOF 5
ENDMDL
MODEL 7
REMARK VINA RESULT:      -8.0      1.729      1.956
REMARK  Name = 
REMARK  8 active torsions:
REMARK  status: ('A' for Active; 'I' for Inactive)
REMARK    1  A    between atoms: C_1  and  C_2
REMARK    2  A    between atoms: C_3  and  C_4
REMARK    3  A    between atoms: N_6  and  C_7
REMARK    4  A    between atoms: C_10  and  C_11
REMARK    5  A    between atoms: C_13  and  C_14
REMARK    6  A    between atoms: C_15  and  C_16
REMARK    7  A    between atoms: C_25  and  C_26
REMARK    8  A    between atoms: N_28  and  C_29
REMARK                            x       y       z     vdW  Elec       q    Type
REMARK                         _______ _______ _______ _____ _____    ______ ____
ROOT
ATOM      1  C   UNL     1      -0.800   9.808  22.940  0.00  0.00    +0.000 C 
ATOM      2  C   UNL     1      -0.265  10.221  21.586  0.00  0.00    +0.000 C 
ATOM      3  C   UNL     1      -0.454  11.409  20.948  0.00  0.00    +0.000 C 
ATOM      4  C   UNL     1       0.212  11.661  19.584  0.00  0.00    +0.000 C 
ATOM      5  N   UNL     1       0.991  10.511  19.099  0.00  0.00    +0.000 N 
ATOM      6  N   UNL     1       1.551  10.458  17.865  0.00  0.00    +0.000 NA
ATOM      7  C   UNL     1       2.112   9.243  17.843  0.00  0.00    +0.000 A 
ATOM      8  C   UNL     1       1.841   8.481  19.005  0.00  0.00    +0.000 A 
ATOM      9  C   UNL     1       1.089   9.337  19.779  0.00  0.00    +0.000 A 
ATOM     10  N   UNL     1       0.493   9.220  20.981  0.00  0.00    +0.000 N 
ATOM     11  H   UNL     1       0.571   8.330  21.485  0.00  0.00    +0.000 HD
ENDROOT
BRANCH   4  12
ATOM     12  C   UNL     1       1.079  12.916  19.530  0.00  0.00    +0.000 A 
ATOM     13  C   UNL     1       2.302  13.009  20.215  0.00  0.00    +0.000 A 
ATOM     14  C   UNL     1       3.059  14.177  20.155  0.00  0.00    +0.000 A 
ATOM     15  C   UNL     1       2.622  15.258  19.392  0.00  0.00    +0.000 A 
ATOM     16  C   UNL     1       1.421  15.174  18.690  0.00  0.00    +0.000 A 
ATOM     17  C   UNL     1       0.656  14.012  18.758  0.00  0.00    +0.000 A 
ENDBRANCH   4  12
BRANCH   3  18
ATOM     18  C   UNL     1      -1.249  12.547  21.547  0.00  0.00    +0.000 C 
ATOM     19  O   UNL     1      -2.341  12.852  21.085  0.00  0.00    +0.000 OA
ATOM     20  N   UNL     1      -0.663  13.133  22.654  0.00  0.00    +0.000 N 
ATOM     21  H   UNL     1       0.205  12.754  22.985  0.00  0.00    +0.000 HD
BRANCH  20  22
ATOM     22  C   UNL     1      -1.127  14.218  23.433  0.00  0.00    +0.000 A 
ATOM     23  C   UNL     1      -2.193  14.099  24.328  0.00  0.00    +0.000 A 
ATOM     24  C   UNL     1      -2.683  15.215  25.010  0.00  0.00    +0.000 A 
ATOM     25  C   UNL     1      -2.114  16.473  24.813  0.00  0.00    +0.000 A 
ATOM     26  C   UNL     1      -2.677  17.690  25.482  0.00  0.00    +0.000 C 
ATOM     27  C   UNL     1      -1.013  16.592  23.960  0.00  0.00    +0.000 A 
ATOM     28  C   UNL     1      -0.506  15.478  23.268  0.00  0.00    +0.000 A 
ATOM     29  C   UNL     1       0.709  15.686  22.401  0.00  0.00    +0.000 C 
ENDBRANCH  20  22
ENDBRANCH   3  18
BRANCH   8  30
ATOM     30  C   UNL     1       2.166   7.123  19.398  0.00  0.00    +0.000 C 
ATOM     31  O   UNL     1       2.024   6.784  20.569  0.00  0.00    +0.000 OA
ATOM     32  N   UNL     1       2.650   6.310  18.390  0.00  0.00    +0.000 N 
ATOM     33  H   UNL     1       2.913   6.741  17.515  0.00  0.00    +0.000 HD
BRANCH  32  34
ATOM     34  C   UNL     1       2.958   4.940  18.537  0.00  0.00    +0.000 A 
ATOM     35  C   UNL     1       2.097   3.917  18.127  0.00  0.00    +0.000 A 
ATOM     36  C   UNL     1       2.429   2.577  18.325  0.00  0.00    +0.000 A 
ATOM     37  C   UNL     1       3.634   2.244  18.931  0.00  0.00    +0.000 A 
ATOM     38  C   UNL     1       4.516   3.252  19.317  0.00  0.00    +0.000 A 
ATOM     39  C   UNL     1       4.186   4.596  19.110  0.00  0.00    +0.000 A 
ENDBRANCH  32  34
ENDBRANCH   8  30
TORSDOF 5
ENDMDL
MODEL 8
REMARK VINA RESULT:      -7.8      1.687      2.141
REMARK  Name = 
REMARK  8 active torsions:
REMARK  status: ('A' for Active; 'I' for Inactive)
REMARK    1  A    between atoms: C_1  and  C_2
REMARK    2  A    between atoms: C_3  and  C_4
REMARK    3  A    between atoms: N_6  and  C_7
REMARK    4  A    between atoms: C_10  and  C_11
REMARK    5  A    between atoms: C_13  and  C_14
REMARK    6  A    between atoms: C_15  and  C_16
REMARK    7  A    between atoms: C_25  and  C_26
REMARK    8  A    between atoms: N_28  and  C_29
REMARK                            x       y       z     vdW  Elec       q    Type
REMARK                         _______ _______ _______ _____ _____    ______ ____
ROOT
ATOM      1  C   UNL     1      -0.808   9.512  22.456  0.00  0.00    +0.000 C 
ATOM      2  C   UNL     1      -0.122   9.903  21.165  0.00  0.00    +0.000 C 
ATOM      3  C   UNL     1      -0.189  11.102  20.522  0.00  0.00    +0.000 C 
ATOM      4  C   UNL     1       0.621  11.326  19.233  0.00  0.00    +0.000 C 
ATOM      5  N   UNL     1       1.388  10.141  18.818  0.00  0.00    +0.000 N 
ATOM      6  N   UNL     1       2.065  10.067  17.645  0.00  0.00    +0.000 NA
ATOM      7  C   UNL     1       2.566   8.825  17.668  0.00  0.00    +0.000 A 
ATOM      8  C   UNL     1       2.145   8.073  18.791  0.00  0.00    +0.000 A 
ATOM      9  C   UNL     1       1.362   8.962  19.495  0.00  0.00    +0.000 A 
ATOM     10  N   UNL     1       0.644   8.870  20.630  0.00  0.00    +0.000 N 
ATOM     11  H   UNL     1       0.629   7.975  21.131  0.00  0.00    +0.000 HD
ENDROOT
BRANCH   4  12
ATOM     12  C   UNL     1       1.547  12.538  19.276  0.00  0.00    +0.000 A 
ATOM     13  C   UNL     1       2.345  12.828  20.396  0.00  0.00    +0.000 A 
ATOM     14  C   UNL     1       3.168  13.953  20.404  0.00  0.00    +0.000 A 
ATOM     15  C   UNL     1       3.227  14.789  19.291  0.00  0.00    +0.000 A 
ATOM     16  C   UNL     1       2.457  14.503  18.165  0.00  0.00    +0.000 A 
ATOM     17  C   UNL     1       1.624  13.386  18.158  0.00  0.00    +0.000 A 
ENDBRANCH   4  12
BRANCH   3  18
ATOM     18  C   UNL     1      -0.985  12.274  21.049  0.00  0.00    +0.000 C 
ATOM     19  O   UNL     1      -1.974  12.675  20.447  0.00  0.00    +0.000 OA
ATOM     20  N   UNL     1      -0.530  12.778  22.254  0.00  0.00    +0.000 N 
ATOM     21  H   UNL     1       0.252  12.326  22.690  0.00  0.00    +0.000 HD
BRANCH  20  22
ATOM     22  C   UNL     1      -1.029  13.867  23.005  0.00  0.00    +0.000 A 
ATOM     23  C   UNL     1      -0.383  15.105  23.056  0.00  0.00    +0.000 A 
ATOM     24  C   UNL     1      -0.856  16.125  23.885  0.00  0.00    +0.000 A 
ATOM     25  C   UNL     1      -1.988  15.929  24.676  0.00  0.00    +0.000 A 
ATOM     26  C   UNL     1      -2.462  16.990  25.623  0.00  0.00    +0.000 C 
ATOM     27  C   UNL     1      -2.670  14.713  24.591  0.00  0.00    +0.000 A 
ATOM     28  C   UNL     1      -2.209  13.676  23.761  0.00  0.00    +0.000 A 
ATOM     29  C   UNL     1      -3.028  12.413  23.698  0.00  0.00    +0.000 C 
ENDBRANCH  20  22
ENDBRANCH   3  18
BRANCH   8  30
ATOM     30  C   UNL     1       2.365   6.700  19.203  0.00  0.00    +0.000 C 
ATOM     31  O   UNL     1       2.115   6.369  20.358  0.00  0.00    +0.000 OA
ATOM     32  N   UNL     1       2.879   5.861  18.232  0.00  0.00    +0.000 N 
ATOM     33  H   UNL     1       3.232   6.277  17.381  0.00  0.00    +0.000 HD
BRANCH  32  34
ATOM     34  C   UNL     1       3.100   4.476  18.397  0.00  0.00    +0.000 A 
ATOM     35  C   UNL     1       2.352   3.500  17.730  0.00  0.00    +0.000 A 
ATOM     36  C   UNL     1       2.582   2.143  17.952  0.00  0.00    +0.000 A 
ATOM     37  C   UNL     1       3.574   1.745  18.841  0.00  0.00    +0.000 A 
ATOM     38  C   UNL     1       4.347   2.706  19.490  0.00  0.00    +0.000 A 
ATOM     39  C   UNL     1       4.120   4.067  19.260  0.00  0.00    +0.000 A 
ENDBRANCH  32  34
ENDBRANCH   8  30
TORSDOF 5
ENDMDL
MODEL 9
REMARK VINA RESULT:      -7.8      1.072      1.482
REMARK  Name = 
REMARK  8 active torsions:
REMARK  status: ('A' for Active; 'I' for Inactive)
REMARK    1  A    between atoms: C_1  and  C_2
REMARK    2  A    between atoms: C_3  and  C_4
REMARK    3  A    between atoms: N_6  and  C_7
REMARK    4  A    between atoms: C_10  and  C_11
REMARK    5  A    between atoms: C_13  and  C_14
REMARK    6  A    between atoms: C_15  and  C_16
REMARK    7  A    between atoms: C_25  and  C_26
REMARK    8  A    between atoms: N_28  and  C_29
REMARK                            x       y       z     vdW  Elec       q    Type
REMARK                         _______ _______ _______ _____ _____    ______ ____
ROOT
ATOM      1  C   UNL     1      -0.011   9.376  23.384  0.00  0.00    +0.000 C 
ATOM      2  C   UNL     1       0.238   9.862  21.974  0.00  0.00    +0.000 C 
ATOM      3  C   UNL     1      -0.129  11.057  21.432  0.00  0.00    +0.000 C 
ATOM      4  C   UNL     1       0.255  11.391  19.980  0.00  0.00    +0.000 C 
ATOM      5  N   UNL     1       0.989  10.305  19.311  0.00  0.00    +0.000 N 
ATOM      6  N   UNL     1       1.309  10.325  17.994  0.00  0.00    +0.000 NA
ATOM      7  C   UNL     1       1.919   9.146  17.817  0.00  0.00    +0.000 A 
ATOM      8  C   UNL     1       1.911   8.333  18.976  0.00  0.00    +0.000 A 
ATOM      9  C   UNL     1       1.274   9.118  19.912  0.00  0.00    +0.000 A 
ATOM     10  N   UNL     1       0.921   8.929  21.197  0.00  0.00    +0.000 N 
ATOM     11  H   UNL     1       1.139   8.029  21.640  0.00  0.00    +0.000 HD
ENDROOT
BRANCH   4  12
ATOM     12  C   UNL     1       1.029  12.696  19.819  0.00  0.00    +0.000 A 
ATOM     13  C   UNL     1       0.567  13.742  19.003  0.00  0.00    +0.000 A 
ATOM     14  C   UNL     1       1.309  14.915  18.869  0.00  0.00    +0.000 A 
ATOM     15  C   UNL     1       2.506  15.071  19.564  0.00  0.00    +0.000 A 
ATOM     16  C   UNL     1       2.968  14.051  20.394  0.00  0.00    +0.000 A 
ATOM     17  C   UNL     1       2.234  12.872  20.520  0.00  0.00    +0.000 A 
ENDBRANCH   4  12
BRANCH   3  18
ATOM     18  C   UNL     1      -0.857  12.125  22.216  0.00  0.00    +0.000 C 
ATOM     19  O   UNL     1      -0.252  12.827  23.018  0.00  0.00    +0.000 OA
ATOM     20  N   UNL     1      -2.197  12.253  21.902  0.00  0.00    +0.000 N 
ATOM     21  H   UNL     1      -2.570  11.667  21.178  0.00  0.00    +0.000 HD
BRANCH  20  22
ATOM     22  C   UNL     1      -3.158  13.132  22.452  0.00  0.00    +0.000 A 
ATOM     23  C   UNL     1      -3.987  12.770  23.516  0.00  0.00    +0.000 A 
ATOM     24  C   UNL     1      -4.988  13.632  23.970  0.00  0.00    +0.000 A 
ATOM     25  C   UNL     1      -5.177  14.877  23.369  0.00  0.00    +0.000 A 
ATOM     26  C   UNL     1      -6.294  15.780  23.798  0.00  0.00    +0.000 C 
ATOM     27  C   UNL     1      -4.319  15.269  22.339  0.00  0.00    +0.000 A 
ATOM     28  C   UNL     1      -3.305  14.414  21.872  0.00  0.00    +0.000 A 
ATOM     29  C   UNL     1      -2.397  14.932  20.787  0.00  0.00    +0.000 C 
ENDBRANCH  20  22
ENDBRANCH   3  18
BRANCH   8  30
ATOM     30  C   UNL     1       2.376   6.985  19.245  0.00  0.00    +0.000 C 
ATOM     31  O   UNL     1       3.563   6.715  19.091  0.00  0.00    +0.000 OA
ATOM     32  N   UNL     1       1.402   6.087  19.640  0.00  0.00    +0.000 N 
ATOM     33  H   UNL     1       0.434   6.361  19.543  0.00  0.00    +0.000 HD
BRANCH  32  34
ATOM     34  C   UNL     1       1.646   4.749  20.019  0.00  0.00    +0.000 A 
ATOM     35  C   UNL     1       2.131   4.391  21.281  0.00  0.00    +0.000 A 
ATOM     36  C   UNL     1       2.391   3.059  21.599  0.00  0.00    +0.000 A 
ATOM     37  C   UNL     1       2.158   2.063  20.658  0.00  0.00    +0.000 A 
ATOM     38  C   UNL     1       1.645   2.402  19.406  0.00  0.00    +0.000 A 
ATOM     39  C   UNL     1       1.378   3.739  19.091  0.00  0.00    +0.000 A 
ENDBRANCH  32  34
ENDBRANCH   8  30
TORSDOF 5
ENDMDL
