MODEL 1
REMARK VINA RESULT:      -8.4      0.000      0.000
REMARK  Name = 
REMARK  11 active torsions:
REMARK  status: ('A' for Active; 'I' for Inactive)
REMARK    1  A    between atoms: C_1  and  C_2
REMARK    2  A    between atoms: C_2  and  C_3
REMARK    3  A    between atoms: C_2  and  C_4
REMARK    4  A    between atoms: C_4  and  C_5
REMARK    5  A    between atoms: C_5  and  C_6
REMARK    6  A    between atoms: C_5  and  C_12
REMARK    7  A    between atoms: N_8  and  C_9
REMARK    8  A    between atoms: C_9  and  C_10
REMARK    9  A    between atoms: C_16  and  C_17
REMARK   10  A    between atoms: C_20  and  S_21
REMARK   11  A    between atoms: S_21  and  C_22
REMARK                            x       y       z     vdW  Elec       q    Type
REMARK                         _______ _______ _______ _____ _____    ______ ____
ROOT
ATOM      1  C   UNL     1       4.475   4.517  17.113  0.00  0.00    +0.000 A 
ATOM      2  C   UNL     1       3.603   3.426  17.067  0.00  0.00    +0.000 A 
ATOM      3  C   UNL     1       2.316   3.537  17.584  0.00  0.00    +0.000 A 
ATOM      4  C   UNL     1       1.882   4.744  18.140  0.00  0.00    +0.000 A 
ATOM      5  C   UNL     1       2.710   5.880  18.181  0.00  0.00    +0.000 A 
ATOM      6  C   UNL     1       4.019   5.728  17.682  0.00  0.00    +0.000 A 
ENDROOT
BRANCH   5   7
ATOM      7  C   UNL     1       2.207   7.186  18.680  0.00  0.00    +0.000 A 
ATOM      8  C   UNL     1       2.007   8.289  17.827  0.00  0.00    +0.000 A 
ATOM      9  C   UNL     1       1.494   9.503  18.302  0.00  0.00    +0.000 A 
ATOM     10  C   UNL     1       1.169   9.634  19.651  0.00  0.00    +0.000 A 
ATOM     11  C   UNL     1       1.387   8.574  20.533  0.00  0.00    +0.000 A 
ATOM     12  C   UNL     1       1.886   7.364  20.043  0.00  0.00    +0.000 A 
BRANCH  10  13
ATOM     13  S   UNL     1       0.501  11.154  20.270  0.00  0.00    +0.000 S 
ATOM     14  C   UNL     1       0.872  12.311  18.975  0.00  0.00    +0.000 C 
ATOM     15  O   UNL     1      -0.938  11.004  20.345  0.00  0.00    +0.000 OA
ATOM     16  O   UNL     1       1.272  11.528  21.442  0.00  0.00    +0.000 OA
ENDBRANCH  10  13
ENDBRANCH   5   7
BRANCH   1  17
ATOM     17  C   UNL     1       5.875   4.404  16.506  0.00  0.00    +0.000 C 
BRANCH  17  18
ATOM     18  C   UNL     1       6.925   5.046  17.435  0.00  0.00    +0.000 C 
ATOM     19  O   UNL     1       7.609   4.399  18.224  0.00  0.00    +0.000 OA
ATOM     20  N   UNL     1       7.047   6.425  17.340  0.00  0.00    +0.000 N 
ATOM     21  H   UNL     1       6.525   6.938  16.639  0.00  0.00    +0.000 HD
BRANCH  20  22
ATOM     22  C   UNL     1       8.003   7.112  18.193  0.00  0.00    +0.000 C 
BRANCH  22  23
ATOM     23  C   UNL     1       8.132   8.612  17.984  0.00  0.00    +0.000 C 
ATOM     24  N   UNL     1       8.241   9.856  17.809  0.00  0.00    +0.000 NA
ENDBRANCH  22  23
ENDBRANCH  20  22
ENDBRANCH  17  18
BRANCH  17  25
ATOM     25  C   UNL     1       5.846   5.005  15.072  0.00  0.00    +0.000 C 
BRANCH  25  27
ATOM     26  C   UNL     1       5.680   3.698  12.871  0.00  0.00    +0.000 C 
ATOM     27  C   UNL     1       6.600   4.241  13.963  0.00  0.00    +0.000 C 
ATOM     28  C   UNL     1       7.659   5.156  13.324  0.00  0.00    +0.000 C 
ENDBRANCH  25  27
ENDBRANCH  17  25
ENDBRANCH   1  17
TORSDOF 8
ENDMDL
MODEL 2
REMARK VINA RESULT:      -8.2      0.750      1.288
REMARK  Name = 
REMARK  11 active torsions:
REMARK  status: ('A' for Active; 'I' for Inactive)
REMARK    1  A    between atoms: C_1  and  C_2
REMARK    2  A    between atoms: C_2  and  C_3
REMARK    3  A    between atoms: C_2  and  C_4
REMARK    4  A    between atoms: C_4  and  C_5
REMARK    5  A    between atoms: C_5  and  C_6
REMARK    6  A    between atoms: C_5  and  C_12
REMARK    7  A    between atoms: N_8  and  C_9
REMARK    8  A    between atoms: C_9  and  C_10
REMARK    9  A    between atoms: C_16  and  C_17
REMARK   10  A    between atoms: C_20  and  S_21
REMARK   11  A    between atoms: S_21  and  C_22
REMARK                            x       y       z     vdW  Elec       q    Type
REMARK                         _______ _______ _______ _____ _____    ______ ____
ROOT
ATOM      1  C   UNL     1       4.223   4.569  17.189  0.00  0.00    +0.000 A 
ATOM      2  C   UNL     1       3.310   3.512  17.156  0.00  0.00    +0.000 A 
ATOM      3  C   UNL     1       2.018   3.689  17.642  0.00  0.00    +0.000 A 
ATOM      4  C   UNL     1       1.621   4.928  18.152  0.00  0.00    +0.000 A 
ATOM      5  C   UNL     1       2.493   6.032  18.178  0.00  0.00    +0.000 A 
ATOM      6  C   UNL     1       3.804   5.814  17.711  0.00  0.00    +0.000 A 
ENDROOT
BRANCH   5   7
ATOM      7  C   UNL     1       2.032   7.371  18.627  0.00  0.00    +0.000 A 
ATOM      8  C   UNL     1       1.663   7.629  19.962  0.00  0.00    +0.000 A 
ATOM      9  C   UNL     1       1.269   8.906  20.382  0.00  0.00    +0.000 A 
ATOM     10  C   UNL     1       1.238   9.955  19.466  0.00  0.00    +0.000 A 
ATOM     11  C   UNL     1       1.563   9.730  18.127  0.00  0.00    +0.000 A 
ATOM     12  C   UNL     1       1.969   8.454  17.724  0.00  0.00    +0.000 A 
BRANCH  10  13
ATOM     13  S   UNL     1       0.760  11.582  19.980  0.00  0.00    +0.000 S 
ATOM     14  C   UNL     1      -1.007  11.465  20.091  0.00  0.00    +0.000 C 
ATOM     15  O   UNL     1       1.285  11.794  21.314  0.00  0.00    +0.000 OA
ATOM     16  O   UNL     1       1.084  12.497  18.899  0.00  0.00    +0.000 OA
ENDBRANCH  10  13
ENDBRANCH   5   7
BRANCH   1  17
ATOM     17  C   UNL     1       5.630   4.383  16.615  0.00  0.00    +0.000 C 
BRANCH  17  18
ATOM     18  C   UNL     1       6.686   5.011  17.547  0.00  0.00    +0.000 C 
ATOM     19  O   UNL     1       7.164   4.423  18.513  0.00  0.00    +0.000 OA
ATOM     20  N   UNL     1       7.063   6.309  17.236  0.00  0.00    +0.000 N 
ATOM     21  H   UNL     1       6.711   6.759  16.399  0.00  0.00    +0.000 HD
BRANCH  20  22
ATOM     22  C   UNL     1       8.042   6.983  18.075  0.00  0.00    +0.000 C 
BRANCH  22  23
ATOM     23  C   UNL     1       8.084   8.499  17.972  0.00  0.00    +0.000 C 
ATOM     24  N   UNL     1       8.118   9.757  17.886  0.00  0.00    +0.000 NA
ENDBRANCH  22  23
ENDBRANCH  20  22
ENDBRANCH  17  18
BRANCH  17  25
ATOM     25  C   UNL     1       5.653   4.941  15.163  0.00  0.00    +0.000 C 
BRANCH  25  27
ATOM     26  C   UNL     1       5.720   3.630  12.959  0.00  0.00    +0.000 C 
ATOM     27  C   UNL     1       6.524   4.197  14.128  0.00  0.00    +0.000 C 
ATOM     28  C   UNL     1       7.611   5.141  13.584  0.00  0.00    +0.000 C 
ENDBRANCH  25  27
ENDBRANCH  17  25
ENDBRANCH   1  17
TORSDOF 8
ENDMDL
MODEL 3
REMARK VINA RESULT:      -8.1      1.291      1.585
REMARK  Name = 
REMARK  11 active torsions:
REMARK  status: ('A' for Active; 'I' for Inactive)
REMARK    1  A    between atoms: C_1  and  C_2
REMARK    2  A    between atoms: C_2  and  C_3
REMARK    3  A    between atoms: C_2  and  C_4
REMARK    4  A    between atoms: C_4  and  C_5
REMARK    5  A    between atoms: C_5  and  C_6
REMARK    6  A    between atoms: C_5  and  C_12
REMARK    7  A    between atoms: N_8  and  C_9
REMARK    8  A    between atoms: C_9  and  C_10
REMARK    9  A    between atoms: C_16  and  C_17
REMARK   10  A    between atoms: C_20  and  S_21
REMARK   11  A    between atoms: S_21  and  C_22
REMARK                            x       y       z     vdW  Elec       q    Type
REMARK                         _______ _______ _______ _____ _____    ______ ____
ROOT
ATOM      1  C   UNL     1       4.345   4.182  16.889  0.00  0.00    +0.000 A 
ATOM      2  C   UNL     1       3.487   3.099  17.099  0.00  0.00    +0.000 A 
ATOM      3  C   UNL     1       2.296   3.275  17.797  0.00  0.00    +0.000 A 
ATOM      4  C   UNL     1       1.943   4.539  18.280  0.00  0.00    +0.000 A 
ATOM      5  C   UNL     1       2.757   5.666  18.066  0.00  0.00    +0.000 A 
ATOM      6  C   UNL     1       3.972   5.451  17.388  0.00  0.00    +0.000 A 
ENDROOT
BRANCH   5   7
ATOM      7  C   UNL     1       2.326   7.022  18.493  0.00  0.00    +0.000 A 
ATOM      8  C   UNL     1       2.237   8.101  17.591  0.00  0.00    +0.000 A 
ATOM      9  C   UNL     1       1.791   9.365  17.997  0.00  0.00    +0.000 A 
ATOM     10  C   UNL     1       1.422   9.572  19.324  0.00  0.00    +0.000 A 
ATOM     11  C   UNL     1       1.531   8.538  20.255  0.00  0.00    +0.000 A 
ATOM     12  C   UNL     1       1.964   7.277  19.834  0.00  0.00    +0.000 A 
BRANCH  10  13
ATOM     13  S   UNL     1       0.837  11.159  19.856  0.00  0.00    +0.000 S 
ATOM     14  C   UNL     1      -0.928  10.969  19.815  0.00  0.00    +0.000 C 
ATOM     15  O   UNL     1       1.241  11.337  21.236  0.00  0.00    +0.000 OA
ATOM     16  O   UNL     1       1.209  12.128  18.840  0.00  0.00    +0.000 OA
ENDBRANCH  10  13
ENDBRANCH   5   7
BRANCH   1  17
ATOM     17  C   UNL     1       5.633   3.993  16.085  0.00  0.00    +0.000 C 
BRANCH  17  18
ATOM     18  C   UNL     1       6.831   4.633  16.816  0.00  0.00    +0.000 C 
ATOM     19  O   UNL     1       7.977   4.199  16.737  0.00  0.00    +0.000 OA
ATOM     20  N   UNL     1       6.533   5.740  17.597  0.00  0.00    +0.000 N 
ATOM     21  H   UNL     1       5.597   6.128  17.601  0.00  0.00    +0.000 HD
BRANCH  20  22
ATOM     22  C   UNL     1       7.601   6.395  18.335  0.00  0.00    +0.000 C 
BRANCH  22  23
ATOM     23  C   UNL     1       7.983   5.766  19.665  0.00  0.00    +0.000 C 
ATOM     24  N   UNL     1       8.299   5.242  20.768  0.00  0.00    +0.000 NA
ENDBRANCH  22  23
ENDBRANCH  20  22
ENDBRANCH  17  18
BRANCH  17  25
ATOM     25  C   UNL     1       5.406   4.534  14.645  0.00  0.00    +0.000 C 
BRANCH  25  27
ATOM     26  C   UNL     1       5.411   3.485  12.305  0.00  0.00    +0.000 C 
ATOM     27  C   UNL     1       6.247   3.915  13.509  0.00  0.00    +0.000 C 
ATOM     28  C   UNL     1       7.322   4.915  13.048  0.00  0.00    +0.000 C 
ENDBRANCH  25  27
ENDBRANCH  17  25
ENDBRANCH   1  17
TORSDOF 8
ENDMDL
MODEL 4
REMARK VINA RESULT:      -8.0      0.819      1.245
REMARK  Name = 
REMARK  11 active torsions:
REMARK  status: ('A' for Active; 'I' for Inactive)
REMARK    1  A    between atoms: C_1  and  C_2
REMARK    2  A    between atoms: C_2  and  C_3
REMARK    3  A    between atoms: C_2  and  C_4
REMARK    4  A    between atoms: C_4  and  C_5
REMARK    5  A    between atoms: C_5  and  C_6
REMARK    6  A    between atoms: C_5  and  C_12
REMARK    7  A    between atoms: N_8  and  C_9
REMARK    8  A    between atoms: C_9  and  C_10
REMARK    9  A    between atoms: C_16  and  C_17
REMARK   10  A    between atoms: C_20  and  S_21
REMARK   11  A    between atoms: S_21  and  C_22
REMARK                            x       y       z     vdW  Elec       q    Type
REMARK                         _______ _______ _______ _____ _____    ______ ____
ROOT
ATOM      1  C   UNL     1       4.466   4.606  16.817  0.00  0.00    +0.000 A 
ATOM      2  C   UNL     1       3.655   3.473  16.936  0.00  0.00    +0.000 A 
ATOM      3  C   UNL     1       2.433   3.555  17.595  0.00  0.00    +0.000 A 
ATOM      4  C   UNL     1       2.001   4.773  18.131  0.00  0.00    +0.000 A 
ATOM      5  C   UNL     1       2.766   5.947  18.010  0.00  0.00    +0.000 A 
ATOM      6  C   UNL     1       4.014   5.827  17.368  0.00  0.00    +0.000 A 
ENDROOT
BRANCH   5   7
ATOM      7  C   UNL     1       2.254   7.255  18.491  0.00  0.00    +0.000 A 
ATOM      8  C   UNL     1       1.910   7.477  19.840  0.00  0.00    +0.000 A 
ATOM      9  C   UNL     1       1.467   8.728  20.290  0.00  0.00    +0.000 A 
ATOM     10  C   UNL     1       1.360   9.786  19.391  0.00  0.00    +0.000 A 
ATOM     11  C   UNL     1       1.658   9.595  18.040  0.00  0.00    +0.000 A 
ATOM     12  C   UNL     1       2.113   8.347  17.607  0.00  0.00    +0.000 A 
BRANCH  10  13
ATOM     13  S   UNL     1       0.819  11.381  19.942  0.00  0.00    +0.000 S 
ATOM     14  C   UNL     1       1.855  12.494  19.025  0.00  0.00    +0.000 C 
ATOM     15  O   UNL     1      -0.547  11.562  19.495  0.00  0.00    +0.000 OA
ATOM     16  O   UNL     1       1.165  11.501  21.348  0.00  0.00    +0.000 OA
ENDBRANCH  10  13
ENDBRANCH   5   7
BRANCH   1  17
ATOM     17  C   UNL     1       5.790   4.522  16.054  0.00  0.00    +0.000 C 
BRANCH  17  18
ATOM     18  C   UNL     1       6.827   5.493  16.655  0.00  0.00    +0.000 C 
ATOM     19  O   UNL     1       7.483   6.279  15.978  0.00  0.00    +0.000 OA
ATOM     20  N   UNL     1       6.992   5.417  18.031  0.00  0.00    +0.000 N 
ATOM     21  H   UNL     1       6.397   4.811  18.586  0.00  0.00    +0.000 HD
BRANCH  20  22
ATOM     22  C   UNL     1       7.962   6.285  18.678  0.00  0.00    +0.000 C 
BRANCH  22  23
ATOM     23  C   UNL     1       7.942   7.746  18.257  0.00  0.00    +0.000 C 
ATOM     24  N   UNL     1       7.926   8.957  17.908  0.00  0.00    +0.000 NA
ENDBRANCH  22  23
ENDBRANCH  20  22
ENDBRANCH  17  18
BRANCH  17  25
ATOM     25  C   UNL     1       5.509   4.750  14.542  0.00  0.00    +0.000 C 
BRANCH  25  27
ATOM     26  C   UNL     1       5.539   3.276  12.443  0.00  0.00    +0.000 C 
ATOM     27  C   UNL     1       6.366   3.960  13.530  0.00  0.00    +0.000 C 
ATOM     28  C   UNL     1       7.394   4.896  12.871  0.00  0.00    +0.000 C 
ENDBRANCH  25  27
ENDBRANCH  17  25
ENDBRANCH   1  17
TORSDOF 8
ENDMDL
MODEL 5
REMARK VINA RESULT:      -8.0      0.837      1.168
REMARK  Name = 
REMARK  11 active torsions:
REMARK  status: ('A' for Active; 'I' for Inactive)
REMARK    1  A    between atoms: C_1  and  C_2
REMARK    2  A    between atoms: C_2  and  C_3
REMARK    3  A    between atoms: C_2  and  C_4
REMARK    4  A    between atoms: C_4  and  C_5
REMARK    5  A    between atoms: C_5  and  C_6
REMARK    6  A    between atoms: C_5  and  C_12
REMARK    7  A    between atoms: N_8  and  C_9
REMARK    8  A    between atoms: C_9  and  C_10
REMARK    9  A    between atoms: C_16  and  C_17
REMARK   10  A    between atoms: C_20  and  S_21
REMARK   11  A    between atoms: S_21  and  C_22
REMARK                            x       y       z     vdW  Elec       q    Type
REMARK                         _______ _______ _______ _____ _____    ______ ____
ROOT
ATOM      1  C   UNL     1       4.902   4.571  18.049  0.00  0.00    +0.000 A 
ATOM      2  C   UNL     1       4.065   3.498  17.727  0.00  0.00    +0.000 A 
ATOM      3  C   UNL     1       2.685   3.628  17.846  0.00  0.00    +0.000 A 
ATOM      4  C   UNL     1       2.126   4.836  18.273  0.00  0.00    +0.000 A 
ATOM      5  C   UNL     1       2.923   5.954  18.578  0.00  0.00    +0.000 A 
ATOM      6  C   UNL     1       4.317   5.783  18.483  0.00  0.00    +0.000 A 
ENDROOT
BRANCH   5   7
ATOM      7  C   UNL     1       2.315   7.262  18.933  0.00  0.00    +0.000 A 
ATOM      8  C   UNL     1       2.146   8.293  17.987  0.00  0.00    +0.000 A 
ATOM      9  C   UNL     1       1.535   9.508  18.324  0.00  0.00    +0.000 A 
ATOM     10  C   UNL     1       1.078   9.713  19.624  0.00  0.00    +0.000 A 
ATOM     11  C   UNL     1       1.260   8.729  20.597  0.00  0.00    +0.000 A 
ATOM     12  C   UNL     1       1.858   7.516  20.245  0.00  0.00    +0.000 A 
BRANCH  10  13
ATOM     13  S   UNL     1       0.285  11.235  20.068  0.00  0.00    +0.000 S 
ATOM     14  C   UNL     1       0.880  12.369  18.839  0.00  0.00    +0.000 C 
ATOM     15  O   UNL     1      -1.140  11.061  19.872  0.00  0.00    +0.000 OA
ATOM     16  O   UNL     1       0.815  11.647  21.355  0.00  0.00    +0.000 OA
ENDBRANCH  10  13
ENDBRANCH   5   7
BRANCH   1  17
ATOM     17  C   UNL     1       6.417   4.438  17.878  0.00  0.00    +0.000 C 
BRANCH  17  18
ATOM     18  C   UNL     1       7.156   5.493  18.726  0.00  0.00    +0.000 C 
ATOM     19  O   UNL     1       7.275   5.411  19.945  0.00  0.00    +0.000 OA
ATOM     20  N   UNL     1       7.676   6.570  18.023  0.00  0.00    +0.000 N 
ATOM     21  H   UNL     1       7.628   6.593  17.011  0.00  0.00    +0.000 HD
BRANCH  20  22
ATOM     22  C   UNL     1       8.373   7.620  18.748  0.00  0.00    +0.000 C 
BRANCH  22  23
ATOM     23  C   UNL     1       8.276   9.020  18.163  0.00  0.00    +0.000 C 
ATOM     24  N   UNL     1       8.194  10.181  17.678  0.00  0.00    +0.000 NA
ENDBRANCH  22  23
ENDBRANCH  20  22
ENDBRANCH  17  18
BRANCH  17  25
ATOM     25  C   UNL     1       6.753   4.495  16.361  0.00  0.00    +0.000 C 
BRANCH  25  27
ATOM     26  C   UNL     1       5.392   6.277  15.114  0.00  0.00    +0.000 C 
ATOM     27  C   UNL     1       5.594   4.787  15.384  0.00  0.00    +0.000 C 
ATOM     28  C   UNL     1       5.838   4.059  14.050  0.00  0.00    +0.000 C 
ENDBRANCH  25  27
ENDBRANCH  17  25
ENDBRANCH   1  17
TORSDOF 8
ENDMDL
MODEL 6
REMARK VINA RESULT:      -7.9      2.052      3.832
REMARK  Name = 
REMARK  11 active torsions:
REMARK  status: ('A' for Active; 'I' for Inactive)
REMARK    1  A    between atoms: C_1  and  C_2
REMARK    2  A    between atoms: C_2  and  C_3
REMARK    3  A    between atoms: C_2  and  C_4
REMARK    4  A    between atoms: C_4  and  C_5
REMARK    5  A    between atoms: C_5  and  C_6
REMARK    6  A    between atoms: C_5  and  C_12
REMARK    7  A    between atoms: N_8  and  C_9
REMARK    8  A    between atoms: C_9  and  C_10
REMARK    9  A    between atoms: C_16  and  C_17
REMARK   10  A    between atoms: C_20  and  S_21
REMARK   11  A    between atoms: S_21  and  C_22
REMARK                            x       y       z     vdW  Elec       q    Type
REMARK                         _______ _______ _______ _____ _____    ______ ____
ROOT
ATOM      1  C   UNL     1       4.749   5.415  16.700  0.00  0.00    +0.000 A 
ATOM      2  C   UNL     1       4.213   4.161  17.006  0.00  0.00    +0.000 A 
ATOM      3  C   UNL     1       3.125   4.057  17.867  0.00  0.00    +0.000 A 
ATOM      4  C   UNL     1       2.553   5.206  18.421  0.00  0.00    +0.000 A 
ATOM      5  C   UNL     1       3.036   6.492  18.119  0.00  0.00    +0.000 A 
ATOM      6  C   UNL     1       4.159   6.565  17.273  0.00  0.00    +0.000 A 
ENDROOT
BRANCH   5   7
ATOM      7  C   UNL     1       2.358   7.711  18.631  0.00  0.00    +0.000 A 
ATOM      8  C   UNL     1       2.078   8.817  17.804  0.00  0.00    +0.000 A 
ATOM      9  C   UNL     1       1.402   9.945  18.289  0.00  0.00    +0.000 A 
ATOM     10  C   UNL     1       0.992   9.984  19.620  0.00  0.00    +0.000 A 
ATOM     11  C   UNL     1       1.283   8.923  20.478  0.00  0.00    +0.000 A 
ATOM     12  C   UNL     1       1.945   7.797  19.978  0.00  0.00    +0.000 A 
BRANCH  10  13
ATOM     13  S   UNL     1       0.119  11.393  20.249  0.00  0.00    +0.000 S 
ATOM     14  C   UNL     1       0.878  12.750  19.392  0.00  0.00    +0.000 C 
ATOM     15  O   UNL     1      -1.257  11.291  19.807  0.00  0.00    +0.000 OA
ATOM     16  O   UNL     1       0.441  11.515  21.660  0.00  0.00    +0.000 OA
ENDBRANCH  10  13
ENDBRANCH   5   7
BRANCH   1  17
ATOM     17  C   UNL     1       5.919   5.529  15.720  0.00  0.00    +0.000 C 
BRANCH  17  18
ATOM     18  C   UNL     1       5.986   4.289  14.805  0.00  0.00    +0.000 C 
ATOM     19  O   UNL     1       6.136   3.148  15.230  0.00  0.00    +0.000 OA
ATOM     20  N   UNL     1       5.879   4.542  13.445  0.00  0.00    +0.000 N 
ATOM     21  H   UNL     1       5.689   5.480  13.111  0.00  0.00    +0.000 HD
BRANCH  20  22
ATOM     22  C   UNL     1       5.949   3.431  12.509  0.00  0.00    +0.000 C 
BRANCH  22  23
ATOM     23  C   UNL     1       4.709   3.184  11.666  0.00  0.00    +0.000 C 
ATOM     24  N   UNL     1       3.680   2.981  10.966  0.00  0.00    +0.000 NA
ENDBRANCH  22  23
ENDBRANCH  20  22
ENDBRANCH  17  18
BRANCH  17  25
ATOM     25  C   UNL     1       7.222   5.793  16.527  0.00  0.00    +0.000 C 
BRANCH  25  27
ATOM     26  C   UNL     1       7.687   5.905  19.047  0.00  0.00    +0.000 C 
ATOM     27  C   UNL     1       7.100   6.614  17.828  0.00  0.00    +0.000 C 
ATOM     28  C   UNL     1       7.792   7.977  17.654  0.00  0.00    +0.000 C 
ENDBRANCH  25  27
ENDBRANCH  17  25
ENDBRANCH   1  17
TORSDOF 8
ENDMDL
MODEL 7
REMARK VINA RESULT:      -7.8      2.419      4.373
REMARK  Name = 
REMARK  11 active torsions:
REMARK  status: ('A' for Active; 'I' for Inactive)
REMARK    1  A    between atoms: C_1  and  C_2
REMARK    2  A    between atoms: C_2  and  C_3
REMARK    3  A    between atoms: C_2  and  C_4
REMARK    4  A    between atoms: C_4  and  C_5
REMARK    5  A    between atoms: C_5  and  C_6
REMARK    6  A    between atoms: C_5  and  C_12
REMARK    7  A    between atoms: N_8  and  C_9
REMARK    8  A    between atoms: C_9  and  C_10
REMARK    9  A    between atoms: C_16  and  C_17
REMARK   10  A    between atoms: C_20  and  S_21
REMARK   11  A    between atoms: S_21  and  C_22
REMARK                            x       y       z     vdW  Elec       q    Type
REMARK                         _______ _______ _______ _____ _____    ______ ____
ROOT
ATOM      1  C   UNL     1       3.176   6.309  18.927  0.00  0.00    +0.000 A 
ATOM      2  C   UNL     1       3.496   6.711  17.627  0.00  0.00    +0.000 A 
ATOM      3  C   UNL     1       2.995   7.907  17.122  0.00  0.00    +0.000 A 
ATOM      4  C   UNL     1       2.180   8.720  17.915  0.00  0.00    +0.000 A 
ATOM      5  C   UNL     1       1.855   8.375  19.239  0.00  0.00    +0.000 A 
ATOM      6  C   UNL     1       2.348   7.143  19.712  0.00  0.00    +0.000 A 
ENDROOT
BRANCH   5   7
ATOM      7  C   UNL     1       1.074   9.293  20.107  0.00  0.00    +0.000 A 
ATOM      8  C   UNL     1       0.878  10.650  19.781  0.00  0.00    +0.000 A 
ATOM      9  C   UNL     1       0.105  11.496  20.587  0.00  0.00    +0.000 A 
ATOM     10  C   UNL     1      -0.490  10.993  21.742  0.00  0.00    +0.000 A 
ATOM     11  C   UNL     1      -0.290   9.664  22.116  0.00  0.00    +0.000 A 
ATOM     12  C   UNL     1       0.471   8.826  21.296  0.00  0.00    +0.000 A 
BRANCH  10  13
ATOM     13  S   UNL     1      -1.487  12.041  22.767  0.00  0.00    +0.000 S 
ATOM     14  C   UNL     1      -2.509  12.894  21.592  0.00  0.00    +0.000 C 
ATOM     15  O   UNL     1      -2.338  11.188  23.572  0.00  0.00    +0.000 OA
ATOM     16  O   UNL     1      -0.607  13.015  23.388  0.00  0.00    +0.000 OA
ENDBRANCH  10  13
ENDBRANCH   5   7
BRANCH   1  17
ATOM     17  C   UNL     1       3.764   5.014  19.494  0.00  0.00    +0.000 C 
BRANCH  17  18
ATOM     18  C   UNL     1       5.252   4.880  19.114  0.00  0.00    +0.000 C 
ATOM     19  O   UNL     1       6.168   5.054  19.914  0.00  0.00    +0.000 OA
ATOM     20  N   UNL     1       5.506   4.559  17.788  0.00  0.00    +0.000 N 
ATOM     21  H   UNL     1       4.741   4.353  17.156  0.00  0.00    +0.000 HD
BRANCH  20  22
ATOM     22  C   UNL     1       6.883   4.429  17.342  0.00  0.00    +0.000 C 
BRANCH  22  23
ATOM     23  C   UNL     1       7.165   4.839  15.905  0.00  0.00    +0.000 C 
ATOM     24  N   UNL     1       7.397   5.177  14.713  0.00  0.00    +0.000 NA
ENDBRANCH  22  23
ENDBRANCH  20  22
ENDBRANCH  17  18
BRANCH  17  25
ATOM     25  C   UNL     1       2.880   3.822  19.030  0.00  0.00    +0.000 C 
BRANCH  25  27
ATOM     26  C   UNL     1       0.613   2.622  18.983  0.00  0.00    +0.000 C 
ATOM     27  C   UNL     1       1.475   3.689  19.655  0.00  0.00    +0.000 C 
ATOM     28  C   UNL     1       1.597   3.371  21.156  0.00  0.00    +0.000 C 
ENDBRANCH  25  27
ENDBRANCH  17  25
ENDBRANCH   1  17
TORSDOF 8
ENDMDL
MODEL 8
REMARK VINA RESULT:      -7.7      2.793      5.139
REMARK  Name = 
REMARK  11 active torsions:
REMARK  status: ('A' for Active; 'I' for Inactive)
REMARK    1  A    between atoms: C_1  and  C_2
REMARK    2  A    between atoms: C_2  and  C_3
REMARK    3  A    between atoms: C_2  and  C_4
REMARK    4  A    between atoms: C_4  and  C_5
REMARK    5  A    between atoms: C_5  and  C_6
REMARK    6  A    between atoms: C_5  and  C_12
REMARK    7  A    between atoms: N_8  and  C_9
REMARK    8  A    between atoms: C_9  and  C_10
REMARK    9  A    between atoms: C_16  and  C_17
REMARK   10  A    between atoms: C_20  and  S_21
REMARK   11  A    between atoms: S_21  and  C_22
REMARK                            x       y       z     vdW  Elec       q    Type
REMARK                         _______ _______ _______ _____ _____    ______ ____
ROOT
ATOM      1  C   UNL     1       2.361   7.209  19.378  0.00  0.00    +0.000 A 
ATOM      2  C   UNL     1       2.825   7.653  18.136  0.00  0.00    +0.000 A 
ATOM      3  C   UNL     1       2.377   8.863  17.615  0.00  0.00    +0.000 A 
ATOM      4  C   UNL     1       1.472   9.648  18.334  0.00  0.00    +0.000 A 
ATOM      5  C   UNL     1       1.000   9.261  19.601  0.00  0.00    +0.000 A 
ATOM      6  C   UNL     1       1.443   8.016  20.089  0.00  0.00    +0.000 A 
ENDROOT
BRANCH   5   7
ATOM      7  C   UNL     1       0.119  10.149  20.402  0.00  0.00    +0.000 A 
ATOM      8  C   UNL     1      -0.648  11.175  19.814  0.00  0.00    +0.000 A 
ATOM      9  C   UNL     1      -1.506  11.980  20.575  0.00  0.00    +0.000 A 
ATOM     10  C   UNL     1      -1.613  11.769  21.948  0.00  0.00    +0.000 A 
ATOM     11  C   UNL     1      -0.843  10.785  22.571  0.00  0.00    +0.000 A 
ATOM     12  C   UNL     1      -0.001   9.979  21.799  0.00  0.00    +0.000 A 
BRANCH  10  13
ATOM     13  S   UNL     1      -2.706  12.763  22.926  0.00  0.00    +0.000 S 
ATOM     14  C   UNL     1      -1.595  13.823  23.817  0.00  0.00    +0.000 C 
ATOM     15  O   UNL     1      -3.485  13.582  22.020  0.00  0.00    +0.000 OA
ATOM     16  O   UNL     1      -3.358  11.887  23.884  0.00  0.00    +0.000 OA
ENDBRANCH  10  13
ENDBRANCH   5   7
BRANCH   1  17
ATOM     17  C   UNL     1       2.887   5.899  19.968  0.00  0.00    +0.000 C 
BRANCH  17  18
ATOM     18  C   UNL     1       3.830   5.193  18.972  0.00  0.00    +0.000 C 
ATOM     19  O   UNL     1       3.428   4.556  18.002  0.00  0.00    +0.000 OA
ATOM     20  N   UNL     1       5.185   5.307  19.246  0.00  0.00    +0.000 N 
ATOM     21  H   UNL     1       5.506   5.890  20.011  0.00  0.00    +0.000 HD
BRANCH  20  22
ATOM     22  C   UNL     1       6.143   4.657  18.367  0.00  0.00    +0.000 C 
BRANCH  22  23
ATOM     23  C   UNL     1       6.838   5.551  17.353  0.00  0.00    +0.000 C 
ATOM     24  N   UNL     1       7.415   6.292  16.511  0.00  0.00    +0.000 NA
ENDBRANCH  22  23
ENDBRANCH  20  22
ENDBRANCH  17  18
BRANCH  17  25
ATOM     25  C   UNL     1       1.676   5.033  20.418  0.00  0.00    +0.000 C 
BRANCH  25  27
ATOM     26  C   UNL     1       1.764   2.877  21.805  0.00  0.00    +0.000 C 
ATOM     27  C   UNL     1       1.854   3.500  20.412  0.00  0.00    +0.000 C 
ATOM     28  C   UNL     1       0.798   2.853  19.499  0.00  0.00    +0.000 C 
ENDBRANCH  25  27
ENDBRANCH  17  25
ENDBRANCH   1  17
TORSDOF 8
ENDMDL
MODEL 9
REMARK VINA RESULT:      -7.7      2.945      5.424
REMARK  Name = 
REMARK  11 active torsions:
REMARK  status: ('A' for Active; 'I' for Inactive)
REMARK    1  A    between atoms: C_1  and  C_2
REMARK    2  A    between atoms: C_2  and  C_3
REMARK    3  A    between atoms: C_2  and  C_4
REMARK    4  A    between atoms: C_4  and  C_5
REMARK    5  A    between atoms: C_5  and  C_6
REMARK    6  A    between atoms: C_5  and  C_12
REMARK    7  A    between atoms: N_8  and  C_9
REMARK    8  A    between atoms: C_9  and  C_10
REMARK    9  A    between atoms: C_16  and  C_17
REMARK   10  A    between atoms: C_20  and  S_21
REMARK   11  A    between atoms: S_21  and  C_22
REMARK                            x       y       z     vdW  Elec       q    Type
REMARK                         _______ _______ _______ _____ _____    ______ ____
ROOT
ATOM      1  C   UNL     1       2.310   7.570  19.202  0.00  0.00    +0.000 A 
ATOM      2  C   UNL     1       2.734   8.161  18.008  0.00  0.00    +0.000 A 
ATOM      3  C   UNL     1       2.224   9.396  17.620  0.00  0.00    +0.000 A 
ATOM      4  C   UNL     1       1.297  10.061  18.428  0.00  0.00    +0.000 A 
ATOM      5  C   UNL     1       0.864   9.523  19.653  0.00  0.00    +0.000 A 
ATOM      6  C   UNL     1       1.369   8.256  20.004  0.00  0.00    +0.000 A 
ENDROOT
BRANCH   5   7
ATOM      7  C   UNL     1      -0.043  10.282  20.553  0.00  0.00    +0.000 A 
ATOM      8  C   UNL     1      -0.133  10.009  21.933  0.00  0.00    +0.000 A 
ATOM      9  C   UNL     1      -0.961  10.759  22.778  0.00  0.00    +0.000 A 
ATOM     10  C   UNL     1      -1.719  11.803  22.253  0.00  0.00    +0.000 A 
ATOM     11  C   UNL     1      -1.683  12.080  20.885  0.00  0.00    +0.000 A 
ATOM     12  C   UNL     1      -0.841  11.334  20.055  0.00  0.00    +0.000 A 
BRANCH  10  13
ATOM     13  S   UNL     1      -2.759  12.776  23.307  0.00  0.00    +0.000 S 
ATOM     14  C   UNL     1      -3.771  13.672  22.156  0.00  0.00    +0.000 C 
ATOM     15  O   UNL     1      -3.611  11.866  24.046  0.00  0.00    +0.000 OA
ATOM     16  O   UNL     1      -1.912  13.731  24.000  0.00  0.00    +0.000 OA
ENDBRANCH  10  13
ENDBRANCH   5   7
BRANCH   1  17
ATOM     17  C   UNL     1       2.904   6.231  19.646  0.00  0.00    +0.000 C 
BRANCH  17  18
ATOM     18  C   UNL     1       3.563   5.506  18.455  0.00  0.00    +0.000 C 
ATOM     19  O   UNL     1       2.931   4.835  17.643  0.00  0.00    +0.000 OA
ATOM     20  N   UNL     1       4.940   5.643  18.358  0.00  0.00    +0.000 N 
ATOM     21  H   UNL     1       5.441   6.253  18.995  0.00  0.00    +0.000 HD
BRANCH  20  22
ATOM     22  C   UNL     1       5.645   4.978  17.274  0.00  0.00    +0.000 C 
BRANCH  22  23
ATOM     23  C   UNL     1       7.074   4.549  17.565  0.00  0.00    +0.000 C 
ATOM     24  N   UNL     1       8.259   4.193  17.805  0.00  0.00    +0.000 NA
ENDBRANCH  22  23
ENDBRANCH  20  22
ENDBRANCH  17  18
BRANCH  17  25
ATOM     25  C   UNL     1       1.793   5.405  20.356  0.00  0.00    +0.000 C 
BRANCH  25  27
ATOM     26  C   UNL     1       2.136   3.327  21.820  0.00  0.00    +0.000 C 
ATOM     27  C   UNL     1       1.965   3.872  20.403  0.00  0.00    +0.000 C 
ATOM     28  C   UNL     1       0.756   3.189  19.740  0.00  0.00    +0.000 C 
ENDBRANCH  25  27
ENDBRANCH  17  25
ENDBRANCH   1  17
TORSDOF 8
ENDMDL
