MODEL 1
REMARK VINA RESULT:      -8.7      0.000      0.000
REMARK  Name = 
REMARK  3 active torsions:
REMARK  status: ('A' for Active; 'I' for Inactive)
REMARK    1  A    between atoms: C_1  and  C_2
REMARK    2  A    between atoms: C_2  and  C_3
REMARK    3  A    between atoms: N_6  and  C_7
REMARK                            x       y       z     vdW  Elec       q    Type
REMARK                         _______ _______ _______ _____ _____    ______ ____
ROOT
ATOM      1  C   UNL     1       6.833   6.160  17.435  0.00  0.00    +0.000 A 
ATOM      2  N   UNL     1       5.617   5.780  17.867  0.00  0.00    +0.000 NA
ATOM      3  C   UNL     1       4.794   5.040  17.068  0.00  0.00    +0.000 A 
ATOM      4  N   UNL     1       3.536   4.645  17.527  0.00  0.00    +0.000 N 
ATOM      5  C   UNL     1       5.298   4.740  15.811  0.00  0.00    +0.000 A 
ATOM      6  O   UNL     1       4.703   4.028  14.810  0.00  0.00    +0.000 OA
ATOM      7  C   UNL     1       5.582   4.035  13.765  0.00  0.00    +0.000 A 
ATOM      8  C   UNL     1       5.363   3.451  12.518  0.00  0.00    +0.000 A 
ATOM      9  C   UNL     1       6.387   3.587  11.572  0.00  0.00    +0.000 A 
ATOM     10  C   UNL     1       7.568   4.272  11.874  0.00  0.00    +0.000 A 
ATOM     11  C   UNL     1       7.764   4.843  13.138  0.00  0.00    +0.000 A 
ATOM     12  C   UNL     1       6.745   4.723  14.100  0.00  0.00    +0.000 A 
ATOM     13  C   UNL     1       6.557   5.163  15.433  0.00  0.00    +0.000 A 
ATOM     14  N   UNL     1       7.376   5.874  16.241  0.00  0.00    +0.000 NA
ATOM     15  H   UNL     1       3.054   4.029  16.871  0.00  0.00    +0.000 HD
ENDROOT
BRANCH   4  16
ATOM     16  C   UNL     1       3.225   4.342  18.872  0.00  0.00    +0.000 A 
ATOM     17  C   UNL     1       3.559   3.098  19.429  0.00  0.00    +0.000 A 
ATOM     18  C   UNL     1       3.151   2.750  20.718  0.00  0.00    +0.000 A 
ATOM     19  C   UNL     1       2.412   3.650  21.480  0.00  0.00    +0.000 A 
ATOM     20  C   UNL     1       2.100   4.907  20.961  0.00  0.00    +0.000 A 
ATOM     21  C   UNL     1       2.508   5.242  19.668  0.00  0.00    +0.000 A 
ATOM     22  F   UNL     1       2.171   6.449  19.180  0.00  0.00    +0.000 F 
ENDBRANCH   4  16
BRANCH   1  24
ATOM     23  C   UNL     1       7.994   8.338  17.820  0.00  0.00    +0.000 C 
ATOM     24  C   UNL     1       7.663   6.970  18.393  0.00  0.00    +0.000 C 
ENDBRANCH   1  24
TORSDOF 2
ENDMDL
MODEL 2
REMARK VINA RESULT:      -8.4      2.205      6.562
REMARK  Name = 
REMARK  3 active torsions:
REMARK  status: ('A' for Active; 'I' for Inactive)
REMARK    1  A    between atoms: C_1  and  C_2
REMARK    2  A    between atoms: C_2  and  C_3
REMARK    3  A    between atoms: N_6  and  C_7
REMARK                            x       y       z     vdW  Elec       q    Type
REMARK                         _______ _______ _______ _____ _____    ______ ____
ROOT
ATOM      1  C   UNL     1       6.564   5.552  18.156  0.00  0.00    +0.000 A 
ATOM      2  N   UNL     1       6.663   4.921  16.971  0.00  0.00    +0.000 NA
ATOM      3  C   UNL     1       5.636   4.152  16.505  0.00  0.00    +0.000 A 
ATOM      4  N   UNL     1       5.744   3.505  15.271  0.00  0.00    +0.000 N 
ATOM      5  C   UNL     1       4.530   4.068  17.338  0.00  0.00    +0.000 A 
ATOM      6  O   UNL     1       3.371   3.374  17.136  0.00  0.00    +0.000 OA
ATOM      7  C   UNL     1       2.608   3.579  18.250  0.00  0.00    +0.000 A 
ATOM      8  C   UNL     1       1.351   3.024  18.483  0.00  0.00    +0.000 A 
ATOM      9  C   UNL     1       0.740   3.345  19.702  0.00  0.00    +0.000 A 
ATOM     10  C   UNL     1       1.364   4.185  20.629  0.00  0.00    +0.000 A 
ATOM     11  C   UNL     1       2.625   4.735  20.365  0.00  0.00    +0.000 A 
ATOM     12  C   UNL     1       3.259   4.420  19.149  0.00  0.00    +0.000 A 
ATOM     13  C   UNL     1       4.497   4.741  18.542  0.00  0.00    +0.000 A 
ATOM     14  N   UNL     1       5.509   5.523  18.985  0.00  0.00    +0.000 NA
ATOM     15  H   UNL     1       4.882   3.032  14.999  0.00  0.00    +0.000 HD
ENDROOT
BRANCH   4  16
ATOM     16  C   UNL     1       6.456   4.006  14.157  0.00  0.00    +0.000 A 
ATOM     17  C   UNL     1       7.385   5.048  14.300  0.00  0.00    +0.000 A 
ATOM     18  C   UNL     1       8.002   5.625  13.190  0.00  0.00    +0.000 A 
ATOM     19  C   UNL     1       7.710   5.158  11.911  0.00  0.00    +0.000 A 
ATOM     20  C   UNL     1       6.817   4.098  11.748  0.00  0.00    +0.000 A 
ATOM     21  C   UNL     1       6.201   3.532  12.866  0.00  0.00    +0.000 A 
ATOM     22  F   UNL     1       5.324   2.531  12.679  0.00  0.00    +0.000 F 
ENDBRANCH   4  16
BRANCH   1  24
ATOM     23  C   UNL     1       7.802   7.696  17.826  0.00  0.00    +0.000 C 
ATOM     24  C   UNL     1       7.749   6.376  18.577  0.00  0.00    +0.000 C 
ENDBRANCH   1  24
TORSDOF 2
ENDMDL
MODEL 3
REMARK VINA RESULT:      -8.4      1.005      1.420
REMARK  Name = 
REMARK  3 active torsions:
REMARK  status: ('A' for Active; 'I' for Inactive)
REMARK    1  A    between atoms: C_1  and  C_2
REMARK    2  A    between atoms: C_2  and  C_3
REMARK    3  A    between atoms: N_6  and  C_7
REMARK                            x       y       z     vdW  Elec       q    Type
REMARK                         _______ _______ _______ _____ _____    ______ ____
ROOT
ATOM      1  C   UNL     1       6.680   6.091  17.429  0.00  0.00    +0.000 A 
ATOM      2  N   UNL     1       5.451   5.704  17.817  0.00  0.00    +0.000 NA
ATOM      3  C   UNL     1       4.658   4.969  16.985  0.00  0.00    +0.000 A 
ATOM      4  N   UNL     1       3.386   4.565  17.398  0.00  0.00    +0.000 N 
ATOM      5  C   UNL     1       5.204   4.681  15.742  0.00  0.00    +0.000 A 
ATOM      6  O   UNL     1       4.644   3.976  14.716  0.00  0.00    +0.000 OA
ATOM      7  C   UNL     1       5.557   3.996  13.700  0.00  0.00    +0.000 A 
ATOM      8  C   UNL     1       5.380   3.422  12.442  0.00  0.00    +0.000 A 
ATOM      9  C   UNL     1       6.434   3.570  11.531  0.00  0.00    +0.000 A 
ATOM     10  C   UNL     1       7.602   4.256  11.878  0.00  0.00    +0.000 A 
ATOM     11  C   UNL     1       7.755   4.817  13.153  0.00  0.00    +0.000 A 
ATOM     12  C   UNL     1       6.706   4.684  14.080  0.00  0.00    +0.000 A 
ATOM     13  C   UNL     1       6.472   5.112  15.409  0.00  0.00    +0.000 A 
ATOM     14  N   UNL     1       7.262   5.818  16.250  0.00  0.00    +0.000 NA
ATOM     15  H   UNL     1       2.928   3.954  16.722  0.00  0.00    +0.000 HD
ENDROOT
BRANCH   4  16
ATOM     16  C   UNL     1       3.032   4.249  18.730  0.00  0.00    +0.000 A 
ATOM     17  C   UNL     1       2.382   5.186  19.548  0.00  0.00    +0.000 A 
ATOM     18  C   UNL     1       2.137   4.923  20.896  0.00  0.00    +0.000 A 
ATOM     19  C   UNL     1       2.526   3.706  21.449  0.00  0.00    +0.000 A 
ATOM     20  C   UNL     1       3.140   2.745  20.646  0.00  0.00    +0.000 A 
ATOM     21  C   UNL     1       3.386   3.022  19.300  0.00  0.00    +0.000 A 
ATOM     22  F   UNL     1       4.005   2.090  18.554  0.00  0.00    +0.000 F 
ENDBRANCH   4  16
BRANCH   1  24
ATOM     23  C   UNL     1       7.973   8.194  17.809  0.00  0.00    +0.000 C 
ATOM     24  C   UNL     1       7.475   6.895  18.420  0.00  0.00    +0.000 C 
ENDBRANCH   1  24
TORSDOF 2
ENDMDL
MODEL 4
REMARK VINA RESULT:      -8.0      3.478      7.839
REMARK  Name = 
REMARK  3 active torsions:
REMARK  status: ('A' for Active; 'I' for Inactive)
REMARK    1  A    between atoms: C_1  and  C_2
REMARK    2  A    between atoms: C_2  and  C_3
REMARK    3  A    between atoms: N_6  and  C_7
REMARK                            x       y       z     vdW  Elec       q    Type
REMARK                         _______ _______ _______ _____ _____    ______ ____
ROOT
ATOM      1  C   UNL     1       2.254   5.159  20.551  0.00  0.00    +0.000 A 
ATOM      2  N   UNL     1       2.906   5.308  19.384  0.00  0.00    +0.000 NA
ATOM      3  C   UNL     1       2.896   6.506  18.729  0.00  0.00    +0.000 A 
ATOM      4  N   UNL     1       3.582   6.654  17.521  0.00  0.00    +0.000 N 
ATOM      5  C   UNL     1       2.168   7.514  19.344  0.00  0.00    +0.000 A 
ATOM      6  O   UNL     1       1.980   8.798  18.921  0.00  0.00    +0.000 OA
ATOM      7  C   UNL     1       1.166   9.387  19.847  0.00  0.00    +0.000 A 
ATOM      8  C   UNL     1       0.688  10.695  19.790  0.00  0.00    +0.000 A 
ATOM      9  C   UNL     1      -0.152  11.102  20.834  0.00  0.00    +0.000 A 
ATOM     10  C   UNL     1      -0.486  10.234  21.878  0.00  0.00    +0.000 A 
ATOM     11  C   UNL     1       0.015   8.926  21.914  0.00  0.00    +0.000 A 
ATOM     12  C   UNL     1       0.856   8.496  20.871  0.00  0.00    +0.000 A 
ATOM     13  C   UNL     1       1.522   7.290  20.543  0.00  0.00    +0.000 A 
ATOM     14  N   UNL     1       1.558   6.107  21.198  0.00  0.00    +0.000 NA
ATOM     15  H   UNL     1       3.567   7.614  17.176  0.00  0.00    +0.000 HD
ENDROOT
BRANCH   4  16
ATOM     16  C   UNL     1       4.779   5.982  17.184  0.00  0.00    +0.000 A 
ATOM     17  C   UNL     1       6.024   6.616  17.308  0.00  0.00    +0.000 A 
ATOM     18  C   UNL     1       7.197   6.001  16.866  0.00  0.00    +0.000 A 
ATOM     19  C   UNL     1       7.145   4.729  16.304  0.00  0.00    +0.000 A 
ATOM     20  C   UNL     1       5.922   4.064  16.205  0.00  0.00    +0.000 A 
ATOM     21  C   UNL     1       4.755   4.691  16.644  0.00  0.00    +0.000 A 
ATOM     22  F   UNL     1       3.586   4.041  16.513  0.00  0.00    +0.000 F 
ENDBRANCH   4  16
BRANCH   1  24
ATOM     23  C   UNL     1       1.156   2.927  20.779  0.00  0.00    +0.000 C 
ATOM     24  C   UNL     1       2.328   3.801  21.192  0.00  0.00    +0.000 C 
ENDBRANCH   1  24
TORSDOF 2
ENDMDL
MODEL 5
REMARK VINA RESULT:      -7.9      3.403      5.391
REMARK  Name = 
REMARK  3 active torsions:
REMARK  status: ('A' for Active; 'I' for Inactive)
REMARK    1  A    between atoms: C_1  and  C_2
REMARK    2  A    between atoms: C_2  and  C_3
REMARK    3  A    between atoms: N_6  and  C_7
REMARK                            x       y       z     vdW  Elec       q    Type
REMARK                         _______ _______ _______ _____ _____    ______ ____
ROOT
ATOM      1  C   UNL     1       2.122   5.135  19.660  0.00  0.00    +0.000 A 
ATOM      2  N   UNL     1       1.937   6.467  19.642  0.00  0.00    +0.000 NA
ATOM      3  C   UNL     1       2.589   7.248  18.731  0.00  0.00    +0.000 A 
ATOM      4  N   UNL     1       2.386   8.630  18.715  0.00  0.00    +0.000 N 
ATOM      5  C   UNL     1       3.439   6.572  17.867  0.00  0.00    +0.000 A 
ATOM      6  O   UNL     1       4.214   7.087  16.870  0.00  0.00    +0.000 OA
ATOM      7  C   UNL     1       4.891   6.030  16.331  0.00  0.00    +0.000 A 
ATOM      8  C   UNL     1       5.826   6.108  15.300  0.00  0.00    +0.000 A 
ATOM      9  C   UNL     1       6.423   4.905  14.902  0.00  0.00    +0.000 A 
ATOM     10  C   UNL     1       6.088   3.692  15.511  0.00  0.00    +0.000 A 
ATOM     11  C   UNL     1       5.139   3.642  16.541  0.00  0.00    +0.000 A 
ATOM     12  C   UNL     1       4.532   4.840  16.959  0.00  0.00    +0.000 A 
ATOM     13  C   UNL     1       3.581   5.201  17.944  0.00  0.00    +0.000 A 
ATOM     14  N   UNL     1       2.912   4.432  18.833  0.00  0.00    +0.000 NA
ATOM     15  H   UNL     1       2.863   9.088  17.937  0.00  0.00    +0.000 HD
ENDROOT
BRANCH   4  16
ATOM     16  C   UNL     1       1.173   9.273  19.052  0.00  0.00    +0.000 A 
ATOM     17  C   UNL     1       0.304   9.745  18.057  0.00  0.00    +0.000 A 
ATOM     18  C   UNL     1      -0.835  10.483  18.382  0.00  0.00    +0.000 A 
ATOM     19  C   UNL     1      -1.133  10.750  19.715  0.00  0.00    +0.000 A 
ATOM     20  C   UNL     1      -0.303  10.258  20.723  0.00  0.00    +0.000 A 
ATOM     21  C   UNL     1       0.837   9.527  20.386  0.00  0.00    +0.000 A 
ATOM     22  F   UNL     1       1.636   9.088  21.374  0.00  0.00    +0.000 F 
ENDBRANCH   4  16
BRANCH   1  24
ATOM     23  C   UNL     1       1.054   2.951  20.235  0.00  0.00    +0.000 C 
ATOM     24  C   UNL     1       1.356   4.366  20.701  0.00  0.00    +0.000 C 
ENDBRANCH   1  24
TORSDOF 2
ENDMDL
MODEL 6
REMARK VINA RESULT:      -7.8      3.248      7.704
REMARK  Name = 
REMARK  3 active torsions:
REMARK  status: ('A' for Active; 'I' for Inactive)
REMARK    1  A    between atoms: C_1  and  C_2
REMARK    2  A    between atoms: C_2  and  C_3
REMARK    3  A    between atoms: N_6  and  C_7
REMARK                            x       y       z     vdW  Elec       q    Type
REMARK                         _______ _______ _______ _____ _____    ______ ____
ROOT
ATOM      1  C   UNL     1       2.499   4.762  20.225  0.00  0.00    +0.000 A 
ATOM      2  N   UNL     1       3.097   5.020  19.047  0.00  0.00    +0.000 NA
ATOM      3  C   UNL     1       3.032   6.266  18.492  0.00  0.00    +0.000 A 
ATOM      4  N   UNL     1       3.661   6.526  17.272  0.00  0.00    +0.000 N 
ATOM      5  C   UNL     1       2.309   7.203  19.216  0.00  0.00    +0.000 A 
ATOM      6  O   UNL     1       2.075   8.511  18.906  0.00  0.00    +0.000 OA
ATOM      7  C   UNL     1       1.289   9.003  19.909  0.00  0.00    +0.000 A 
ATOM      8  C   UNL     1       0.781  10.300  19.978  0.00  0.00    +0.000 A 
ATOM      9  C   UNL     1      -0.022  10.601  21.085  0.00  0.00    +0.000 A 
ATOM     10  C   UNL     1      -0.291   9.645  22.069  0.00  0.00    +0.000 A 
ATOM     11  C   UNL     1       0.240   8.351  21.979  0.00  0.00    +0.000 A 
ATOM     12  C   UNL     1       1.044   8.027  20.871  0.00  0.00    +0.000 A 
ATOM     13  C   UNL     1       1.721   6.868  20.419  0.00  0.00    +0.000 A 
ATOM     14  N   UNL     1       1.811   5.638  20.974  0.00  0.00    +0.000 NA
ATOM     15  H   UNL     1       3.610   7.511  17.007  0.00  0.00    +0.000 HD
ENDROOT
BRANCH   4  16
ATOM     16  C   UNL     1       4.856   5.914  16.832  0.00  0.00    +0.000 A 
ATOM     17  C   UNL     1       4.842   4.641  16.241  0.00  0.00    +0.000 A 
ATOM     18  C   UNL     1       6.028   3.982  15.912  0.00  0.00    +0.000 A 
ATOM     19  C   UNL     1       7.254   4.594  16.158  0.00  0.00    +0.000 A 
ATOM     20  C   UNL     1       7.291   5.875  16.711  0.00  0.00    +0.000 A 
ATOM     21  C   UNL     1       6.099   6.521  17.041  0.00  0.00    +0.000 A 
ATOM     22  F   UNL     1       6.162   7.743  17.599  0.00  0.00    +0.000 F 
ENDBRANCH   4  16
BRANCH   1  24
ATOM     23  C   UNL     1       1.373   2.920  21.481  0.00  0.00    +0.000 C 
ATOM     24  C   UNL     1       2.632   3.360  20.751  0.00  0.00    +0.000 C 
ENDBRANCH   1  24
TORSDOF 2
ENDMDL
MODEL 7
REMARK VINA RESULT:      -7.7      3.049      5.274
REMARK  Name = 
REMARK  3 active torsions:
REMARK  status: ('A' for Active; 'I' for Inactive)
REMARK    1  A    between atoms: C_1  and  C_2
REMARK    2  A    between atoms: C_2  and  C_3
REMARK    3  A    between atoms: N_6  and  C_7
REMARK                            x       y       z     vdW  Elec       q    Type
REMARK                         _______ _______ _______ _____ _____    ______ ____
ROOT
ATOM      1  C   UNL     1       1.802   4.416  19.661  0.00  0.00    +0.000 A 
ATOM      2  N   UNL     1       1.811   5.699  20.068  0.00  0.00    +0.000 NA
ATOM      3  C   UNL     1       2.628   6.613  19.468  0.00  0.00    +0.000 A 
ATOM      4  N   UNL     1       2.625   7.945  19.891  0.00  0.00    +0.000 N 
ATOM      5  C   UNL     1       3.431   6.118  18.451  0.00  0.00    +0.000 A 
ATOM      6  O   UNL     1       4.339   6.792  17.686  0.00  0.00    +0.000 OA
ATOM      7  C   UNL     1       4.893   5.865  16.851  0.00  0.00    +0.000 A 
ATOM      8  C   UNL     1       5.899   6.115  15.918  0.00  0.00    +0.000 A 
ATOM      9  C   UNL     1       6.346   5.019  15.169  0.00  0.00    +0.000 A 
ATOM     10  C   UNL     1       5.800   3.744  15.350  0.00  0.00    +0.000 A 
ATOM     11  C   UNL     1       4.785   3.524  16.290  0.00  0.00    +0.000 A 
ATOM     12  C   UNL     1       4.327   4.610  17.057  0.00  0.00    +0.000 A 
ATOM     13  C   UNL     1       3.371   4.788  18.086  0.00  0.00    +0.000 A 
ATOM     14  N   UNL     1       2.539   3.894  18.669  0.00  0.00    +0.000 NA
ATOM     15  H   UNL     1       3.215   8.542  19.311  0.00  0.00    +0.000 HD
ENDROOT
BRANCH   4  16
ATOM     16  C   UNL     1       1.496   8.631  20.392  0.00  0.00    +0.000 A 
ATOM     17  C   UNL     1       1.089   8.477  21.727  0.00  0.00    +0.000 A 
ATOM     18  C   UNL     1      -0.091   9.057  22.195  0.00  0.00    +0.000 A 
ATOM     19  C   UNL     1      -0.880   9.818  21.336  0.00  0.00    +0.000 A 
ATOM     20  C   UNL     1      -0.475  10.016  20.015  0.00  0.00    +0.000 A 
ATOM     21  C   UNL     1       0.703   9.425  19.556  0.00  0.00    +0.000 A 
ATOM     22  F   UNL     1       1.057   9.607  18.272  0.00  0.00    +0.000 F 
ENDBRANCH   4  16
BRANCH   1  24
ATOM     23  C   UNL     1       1.559   2.792  21.544  0.00  0.00    +0.000 C 
ATOM     24  C   UNL     1       0.865   3.490  20.385  0.00  0.00    +0.000 C 
ENDBRANCH   1  24
TORSDOF 2
ENDMDL
MODEL 8
REMARK VINA RESULT:      -7.6      3.658      7.560
REMARK  Name = 
REMARK  3 active torsions:
REMARK  status: ('A' for Active; 'I' for Inactive)
REMARK    1  A    between atoms: C_1  and  C_2
REMARK    2  A    between atoms: C_2  and  C_3
REMARK    3  A    between atoms: N_6  and  C_7
REMARK                            x       y       z     vdW  Elec       q    Type
REMARK                         _______ _______ _______ _____ _____    ______ ____
ROOT
ATOM      1  C   UNL     1       2.236   5.521  20.380  0.00  0.00    +0.000 A 
ATOM      2  N   UNL     1       3.039   5.495  19.302  0.00  0.00    +0.000 NA
ATOM      3  C   UNL     1       3.163   6.593  18.500  0.00  0.00    +0.000 A 
ATOM      4  N   UNL     1       4.005   6.560  17.386  0.00  0.00    +0.000 N 
ATOM      5  C   UNL     1       2.403   7.692  18.874  0.00  0.00    +0.000 A 
ATOM      6  O   UNL     1       2.324   8.911  18.265  0.00  0.00    +0.000 OA
ATOM      7  C   UNL     1       1.421   9.638  18.988  0.00  0.00    +0.000 A 
ATOM      8  C   UNL     1       1.009  10.937  18.697  0.00  0.00    +0.000 A 
ATOM      9  C   UNL     1       0.057  11.501  19.556  0.00  0.00    +0.000 A 
ATOM     10  C   UNL     1      -0.444  10.791  20.651  0.00  0.00    +0.000 A 
ATOM     11  C   UNL     1      -0.006   9.488  20.925  0.00  0.00    +0.000 A 
ATOM     12  C   UNL     1       0.945   8.902  20.070  0.00  0.00    +0.000 A 
ATOM     13  C   UNL     1       1.598   7.647  19.995  0.00  0.00    +0.000 A 
ATOM     14  N   UNL     1       1.501   6.564  20.798  0.00  0.00    +0.000 NA
ATOM     15  H   UNL     1       4.075   7.465  16.919  0.00  0.00    +0.000 HD
ENDROOT
BRANCH   4  16
ATOM     16  C   UNL     1       5.207   5.821  17.303  0.00  0.00    +0.000 A 
ATOM     17  C   UNL     1       6.014   5.623  18.434  0.00  0.00    +0.000 A 
ATOM     18  C   UNL     1       7.257   4.997  18.335  0.00  0.00    +0.000 A 
ATOM     19  C   UNL     1       7.711   4.543  17.100  0.00  0.00    +0.000 A 
ATOM     20  C   UNL     1       6.909   4.696  15.968  0.00  0.00    +0.000 A 
ATOM     21  C   UNL     1       5.670   5.329  16.078  0.00  0.00    +0.000 A 
ATOM     22  F   UNL     1       4.928   5.489  14.968  0.00  0.00    +0.000 F 
ENDBRANCH   4  16
BRANCH   1  24
ATOM     23  C   UNL     1       1.150   3.285  20.636  0.00  0.00    +0.000 C 
ATOM     24  C   UNL     1       2.171   4.261  21.198  0.00  0.00    +0.000 C 
ENDBRANCH   1  24
TORSDOF 2
ENDMDL
MODEL 9
REMARK VINA RESULT:      -7.5      2.075      6.551
REMARK  Name = 
REMARK  3 active torsions:
REMARK  status: ('A' for Active; 'I' for Inactive)
REMARK    1  A    between atoms: C_1  and  C_2
REMARK    2  A    between atoms: C_2  and  C_3
REMARK    3  A    between atoms: N_6  and  C_7
REMARK                            x       y       z     vdW  Elec       q    Type
REMARK                         _______ _______ _______ _____ _____    ______ ____
ROOT
ATOM      1  C   UNL     1       5.358   6.520  17.418  0.00  0.00    +0.000 A 
ATOM      2  N   UNL     1       5.772   5.649  16.480  0.00  0.00    +0.000 NA
ATOM      3  C   UNL     1       5.158   4.438  16.336  0.00  0.00    +0.000 A 
ATOM      4  N   UNL     1       5.590   3.541  15.356  0.00  0.00    +0.000 N 
ATOM      5  C   UNL     1       4.119   4.188  17.221  0.00  0.00    +0.000 A 
ATOM      6  O   UNL     1       3.337   3.073  17.312  0.00  0.00    +0.000 OA
ATOM      7  C   UNL     1       2.482   3.295  18.355  0.00  0.00    +0.000 A 
ATOM      8  C   UNL     1       1.527   2.394  18.824  0.00  0.00    +0.000 A 
ATOM      9  C   UNL     1       0.760   2.807  19.920  0.00  0.00    +0.000 A 
ATOM     10  C   UNL     1       0.946   4.064  20.505  0.00  0.00    +0.000 A 
ATOM     11  C   UNL     1       1.909   4.952  20.008  0.00  0.00    +0.000 A 
ATOM     12  C   UNL     1       2.695   4.553  18.911  0.00  0.00    +0.000 A 
ATOM     13  C   UNL     1       3.748   5.129  18.160  0.00  0.00    +0.000 A 
ATOM     14  N   UNL     1       4.345   6.337  18.279  0.00  0.00    +0.000 NA
ATOM     15  H   UNL     1       5.000   2.711  15.295  0.00  0.00    +0.000 HD
ENDROOT
BRANCH   4  16
ATOM     16  C   UNL     1       6.123   3.913  14.100  0.00  0.00    +0.000 A 
ATOM     17  C   UNL     1       5.571   3.422  12.907  0.00  0.00    +0.000 A 
ATOM     18  C   UNL     1       6.164   3.690  11.672  0.00  0.00    +0.000 A 
ATOM     19  C   UNL     1       7.316   4.470  11.608  0.00  0.00    +0.000 A 
ATOM     20  C   UNL     1       7.860   4.999  12.779  0.00  0.00    +0.000 A 
ATOM     21  C   UNL     1       7.263   4.719  14.009  0.00  0.00    +0.000 A 
ATOM     22  F   UNL     1       7.823   5.217  15.125  0.00  0.00    +0.000 F 
ENDBRANCH   4  16
BRANCH   1  24
ATOM     23  C   UNL     1       7.602   7.610  17.540  0.00  0.00    +0.000 C 
ATOM     24  C   UNL     1       6.099   7.826  17.493  0.00  0.00    +0.000 C 
ENDBRANCH   1  24
TORSDOF 2
ENDMDL
