MODEL 1
REMARK VINA RESULT:      -7.4      0.000      0.000
REMARK  Name = 
REMARK  12 active torsions:
REMARK  status: ('A' for Active; 'I' for Inactive)
REMARK    1  A    between atoms: C_1  and  O_2
REMARK    2  A    between atoms: O_2  and  C_3
REMARK    3  A    between atoms: C_6  and  N_7
REMARK    4  A    between atoms: C_8  and  C_10
REMARK    5  A    between atoms: C_18  and  N_19
REMARK    6  A    between atoms: C_20  and  C_22
REMARK    7  A    between atoms: C_25  and  O_26
REMARK    8  A    between atoms: O_26  and  C_27
REMARK    9  A    between atoms: C_28  and  O_29
REMARK   10  A    between atoms: O_29  and  C_30
REMARK   11  A    between atoms: C_32  and  O_33
REMARK   12  A    between atoms: O_33  and  C_34
REMARK                            x       y       z     vdW  Elec       q    Type
REMARK                         _______ _______ _______ _____ _____    ______ ____
ROOT
ATOM      1  C   UNL     1      -0.217  13.149  19.939  0.00  0.00    +0.000 A 
ATOM      2  O   UNL     1      -0.196  14.512  19.933  0.00  0.00    +0.000 OA
ATOM      3  C   UNL     1       0.953  14.884  19.328  0.00  0.00    +0.000 A 
ATOM      4  C   UNL     1       1.276  16.211  19.043  0.00  0.00    +0.000 A 
ATOM      5  C   UNL     1       2.412  16.421  18.268  0.00  0.00    +0.000 A 
ATOM      6  C   UNL     1       3.184  15.340  17.838  0.00  0.00    +0.000 A 
ATOM      7  C   UNL     1       2.869  14.014  18.212  0.00  0.00    +0.000 A 
ATOM      8  C   UNL     1       1.716  13.766  18.987  0.00  0.00    +0.000 A 
ATOM      9  C   UNL     1       1.009  12.633  19.529  0.00  0.00    +0.000 A 
ENDROOT
BRANCH   1  11
ATOM     10  N   UNL     1      -2.571  13.143  19.784  0.00  0.00    +0.000 N 
ATOM     11  C   UNL     1      -1.459  12.496  20.287  0.00  0.00    +0.000 C 
ATOM     12  O   UNL     1      -1.491  11.472  20.969  0.00  0.00    +0.000 OA
ATOM     13  H   UNL     1      -2.466  14.140  19.624  0.00  0.00    +0.000 HD
BRANCH  10  17
ATOM     14  C   UNL     1      -6.440  11.546  20.050  0.00  0.00    +0.000 A 
ATOM     15  C   UNL     1      -5.910  12.280  21.113  0.00  0.00    +0.000 A 
ATOM     16  C   UNL     1      -4.643  12.850  21.020  0.00  0.00    +0.000 A 
ATOM     17  C   UNL     1      -3.882  12.654  19.867  0.00  0.00    +0.000 A 
ATOM     18  C   UNL     1      -4.385  11.885  18.804  0.00  0.00    +0.000 A 
ATOM     19  C   UNL     1      -5.677  11.356  18.892  0.00  0.00    +0.000 A 
BRANCH  14  21
ATOM     20  C   UNL     1      -7.833   9.773  20.816  0.00  0.00    +0.000 C 
ATOM     21  O   UNL     1      -7.707  11.076  20.261  0.00  0.00    +0.000 OA
ENDBRANCH  14  21
BRANCH  18  22
ATOM     22  O   UNL     1      -3.558  11.779  17.711  0.00  0.00    +0.000 OA
ATOM     23  C   UNL     1      -4.039  11.024  16.608  0.00  0.00    +0.000 C 
ENDBRANCH  18  22
ENDBRANCH  10  17
ENDBRANCH   1  11
BRANCH   9  24
ATOM     24  N   UNL     1       1.278  11.261  19.639  0.00  0.00    +0.000 N 
ATOM     25  C   UNL     1       0.834  10.245  18.805  0.00  0.00    +0.000 C 
ATOM     26  O   UNL     1       0.078  10.389  17.855  0.00  0.00    +0.000 OA
ATOM     27  H   UNL     1       2.040  11.042  20.278  0.00  0.00    +0.000 HD
BRANCH  25  28
ATOM     28  C   UNL     1       1.409   8.872  19.088  0.00  0.00    +0.000 A 
ATOM     29  C   UNL     1       1.258   8.342  20.377  0.00  0.00    +0.000 A 
ATOM     30  C   UNL     1       1.815   7.097  20.696  0.00  0.00    +0.000 A 
ATOM     31  C   UNL     1       2.548   6.357  19.757  0.00  0.00    +0.000 A 
ATOM     32  C   UNL     1       2.699   6.871  18.458  0.00  0.00    +0.000 A 
ATOM     33  C   UNL     1       2.125   8.128  18.139  0.00  0.00    +0.000 A 
BRANCH  31  34
ATOM     34  O   UNL     1       3.033   5.186  20.283  0.00  0.00    +0.000 OA
ATOM     35  C   UNL     1       2.196   4.365  21.089  0.00  0.00    +0.000 C 
ENDBRANCH  31  34
BRANCH  32  36
ATOM     36  O   UNL     1       3.419   6.120  17.567  0.00  0.00    +0.000 OA
ATOM     37  C   UNL     1       4.792   6.408  17.361  0.00  0.00    +0.000 C 
ENDBRANCH  32  36
ENDBRANCH  25  28
ENDBRANCH   9  24
TORSDOF 8
ENDMDL
MODEL 2
REMARK VINA RESULT:      -7.0      1.049      1.835
REMARK  Name = 
REMARK  12 active torsions:
REMARK  status: ('A' for Active; 'I' for Inactive)
REMARK    1  A    between atoms: C_1  and  O_2
REMARK    2  A    between atoms: O_2  and  C_3
REMARK    3  A    between atoms: C_6  and  N_7
REMARK    4  A    between atoms: C_8  and  C_10
REMARK    5  A    between atoms: C_18  and  N_19
REMARK    6  A    between atoms: C_20  and  C_22
REMARK    7  A    between atoms: C_25  and  O_26
REMARK    8  A    between atoms: O_26  and  C_27
REMARK    9  A    between atoms: C_28  and  O_29
REMARK   10  A    between atoms: O_29  and  C_30
REMARK   11  A    between atoms: C_32  and  O_33
REMARK   12  A    between atoms: O_33  and  C_34
REMARK                            x       y       z     vdW  Elec       q    Type
REMARK                         _______ _______ _______ _____ _____    ______ ____
ROOT
ATOM      1  C   UNL     1       0.241  12.852  19.424  0.00  0.00    +0.000 A 
ATOM      2  O   UNL     1       0.203  14.213  19.462  0.00  0.00    +0.000 OA
ATOM      3  C   UNL     1       1.380  14.652  18.966  0.00  0.00    +0.000 A 
ATOM      4  C   UNL     1       1.667  16.000  18.749  0.00  0.00    +0.000 A 
ATOM      5  C   UNL     1       2.853  16.282  18.078  0.00  0.00    +0.000 A 
ATOM      6  C   UNL     1       3.704  15.249  17.682  0.00  0.00    +0.000 A 
ATOM      7  C   UNL     1       3.417  13.900  17.988  0.00  0.00    +0.000 A 
ATOM      8  C   UNL     1       2.216  13.578  18.657  0.00  0.00    +0.000 A 
ATOM      9  C   UNL     1       1.517  12.400  19.103  0.00  0.00    +0.000 A 
ENDROOT
BRANCH   1  11
ATOM     10  N   UNL     1      -2.050  12.632  18.906  0.00  0.00    +0.000 N 
ATOM     11  C   UNL     1      -0.996  12.137  19.648  0.00  0.00    +0.000 C 
ATOM     12  O   UNL     1      -1.073  11.191  20.432  0.00  0.00    +0.000 OA
ATOM     13  H   UNL     1      -1.986  13.612  18.648  0.00  0.00    +0.000 HD
BRANCH  10  17
ATOM     14  C   UNL     1      -5.798  10.757  18.759  0.00  0.00    +0.000 A 
ATOM     15  C   UNL     1      -5.532  11.714  19.740  0.00  0.00    +0.000 A 
ATOM     16  C   UNL     1      -4.305  12.374  19.773  0.00  0.00    +0.000 A 
ATOM     17  C   UNL     1      -3.322  12.046  18.839  0.00  0.00    +0.000 A 
ATOM     18  C   UNL     1      -3.560  11.057  17.870  0.00  0.00    +0.000 A 
ATOM     19  C   UNL     1      -4.813  10.436  17.819  0.00  0.00    +0.000 A 
BRANCH  14  21
ATOM     20  C   UNL     1      -7.317   9.301  19.876  0.00  0.00    +0.000 C 
ATOM     21  O   UNL     1      -7.054  10.217  18.820  0.00  0.00    +0.000 OA
ENDBRANCH  14  21
BRANCH  18  22
ATOM     22  O   UNL     1      -2.529  10.836  16.989  0.00  0.00    +0.000 OA
ATOM     23  C   UNL     1      -2.840  10.891  15.604  0.00  0.00    +0.000 C 
ENDBRANCH  18  22
ENDBRANCH  10  17
ENDBRANCH   1  11
BRANCH   9  24
ATOM     24  N   UNL     1       1.836  11.037  19.194  0.00  0.00    +0.000 N 
ATOM     25  C   UNL     1       1.355  10.004  18.403  0.00  0.00    +0.000 C 
ATOM     26  O   UNL     1       0.519  10.121  17.519  0.00  0.00    +0.000 OA
ATOM     27  H   UNL     1       2.656  10.844  19.768  0.00  0.00    +0.000 HD
BRANCH  25  28
ATOM     28  C   UNL     1       1.992   8.650  18.640  0.00  0.00    +0.000 A 
ATOM     29  C   UNL     1       2.947   8.196  17.719  0.00  0.00    +0.000 A 
ATOM     30  C   UNL     1       3.527   6.930  17.872  0.00  0.00    +0.000 A 
ATOM     31  C   UNL     1       3.163   6.077  18.925  0.00  0.00    +0.000 A 
ATOM     32  C   UNL     1       2.215   6.523  19.861  0.00  0.00    +0.000 A 
ATOM     33  C   UNL     1       1.638   7.809  19.705  0.00  0.00    +0.000 A 
BRANCH  31  34
ATOM     34  O   UNL     1       3.823   4.876  18.871  0.00  0.00    +0.000 OA
ATOM     35  C   UNL     1       5.205   4.835  18.534  0.00  0.00    +0.000 C 
ENDBRANCH  31  34
BRANCH  32  36
ATOM     36  O   UNL     1       1.886   5.664  20.876  0.00  0.00    +0.000 OA
ATOM     37  C   UNL     1       1.141   4.494  20.587  0.00  0.00    +0.000 C 
ENDBRANCH  32  36
ENDBRANCH  25  28
ENDBRANCH   9  24
TORSDOF 8
ENDMDL
MODEL 3
REMARK VINA RESULT:      -6.9      1.066      1.796
REMARK  Name = 
REMARK  12 active torsions:
REMARK  status: ('A' for Active; 'I' for Inactive)
REMARK    1  A    between atoms: C_1  and  O_2
REMARK    2  A    between atoms: O_2  and  C_3
REMARK    3  A    between atoms: C_6  and  N_7
REMARK    4  A    between atoms: C_8  and  C_10
REMARK    5  A    between atoms: C_18  and  N_19
REMARK    6  A    between atoms: C_20  and  C_22
REMARK    7  A    between atoms: C_25  and  O_26
REMARK    8  A    between atoms: O_26  and  C_27
REMARK    9  A    between atoms: C_28  and  O_29
REMARK   10  A    between atoms: O_29  and  C_30
REMARK   11  A    between atoms: C_32  and  O_33
REMARK   12  A    between atoms: O_33  and  C_34
REMARK                            x       y       z     vdW  Elec       q    Type
REMARK                         _______ _______ _______ _____ _____    ______ ____
ROOT
ATOM      1  C   UNL     1       0.191  12.855  20.044  0.00  0.00    +0.000 A 
ATOM      2  O   UNL     1       0.340  14.209  20.083  0.00  0.00    +0.000 OA
ATOM      3  C   UNL     1       1.497  14.494  19.446  0.00  0.00    +0.000 A 
ATOM      4  C   UNL     1       1.933  15.794  19.191  0.00  0.00    +0.000 A 
ATOM      5  C   UNL     1       3.057  15.925  18.380  0.00  0.00    +0.000 A 
ATOM      6  C   UNL     1       3.707  14.793  17.887  0.00  0.00    +0.000 A 
ATOM      7  C   UNL     1       3.282  13.490  18.229  0.00  0.00    +0.000 A 
ATOM      8  C   UNL     1       2.139  13.322  19.040  0.00  0.00    +0.000 A 
ATOM      9  C   UNL     1       1.347  12.242  19.572  0.00  0.00    +0.000 A 
ENDROOT
BRANCH   1  11
ATOM     10  N   UNL     1      -2.158  13.020  19.900  0.00  0.00    +0.000 N 
ATOM     11  C   UNL     1      -1.095  12.308  20.419  0.00  0.00    +0.000 C 
ATOM     12  O   UNL     1      -1.199  11.313  21.135  0.00  0.00    +0.000 OA
ATOM     13  H   UNL     1      -1.980  14.000  19.706  0.00  0.00    +0.000 HD
BRANCH  10  17
ATOM     14  C   UNL     1      -6.216  12.000  20.181  0.00  0.00    +0.000 A 
ATOM     15  C   UNL     1      -5.471  11.609  19.066  0.00  0.00    +0.000 A 
ATOM     16  C   UNL     1      -4.112  11.906  18.981  0.00  0.00    +0.000 A 
ATOM     17  C   UNL     1      -3.501  12.633  20.004  0.00  0.00    +0.000 A 
ATOM     18  C   UNL     1      -4.246  13.067  21.113  0.00  0.00    +0.000 A 
ATOM     19  C   UNL     1      -5.599  12.723  21.207  0.00  0.00    +0.000 A 
BRANCH  14  21
ATOM     20  C   UNL     1      -7.915  10.566  21.036  0.00  0.00    +0.000 C 
ATOM     21  O   UNL     1      -7.527  11.609  20.151  0.00  0.00    +0.000 OA
ENDBRANCH  14  21
BRANCH  18  22
ATOM     22  O   UNL     1      -3.535  13.754  22.067  0.00  0.00    +0.000 OA
ATOM     23  C   UNL     1      -3.502  13.198  23.374  0.00  0.00    +0.000 C 
ENDBRANCH  18  22
ENDBRANCH  10  17
ENDBRANCH   1  11
BRANCH   9  24
ATOM     24  N   UNL     1       1.490  10.847  19.627  0.00  0.00    +0.000 N 
ATOM     25  C   UNL     1       1.693   9.978  18.565  0.00  0.00    +0.000 C 
ATOM     26  O   UNL     1       1.728  10.298  17.385  0.00  0.00    +0.000 OA
ATOM     27  H   UNL     1       1.661  10.489  20.565  0.00  0.00    +0.000 HD
BRANCH  25  28
ATOM     28  C   UNL     1       1.957   8.535  18.945  0.00  0.00    +0.000 A 
ATOM     29  C   UNL     1       1.609   8.115  20.237  0.00  0.00    +0.000 A 
ATOM     30  C   UNL     1       1.879   6.803  20.647  0.00  0.00    +0.000 A 
ATOM     31  C   UNL     1       2.515   5.884  19.800  0.00  0.00    +0.000 A 
ATOM     32  C   UNL     1       2.862   6.289  18.500  0.00  0.00    +0.000 A 
ATOM     33  C   UNL     1       2.578   7.616  18.088  0.00  0.00    +0.000 A 
BRANCH  31  34
ATOM     34  O   UNL     1       2.715   4.670  20.407  0.00  0.00    +0.000 OA
ATOM     35  C   UNL     1       1.615   3.794  20.630  0.00  0.00    +0.000 C 
ENDBRANCH  31  34
BRANCH  32  36
ATOM     36  O   UNL     1       3.480   5.364  17.701  0.00  0.00    +0.000 OA
ATOM     37  C   UNL     1       4.895   5.280  17.696  0.00  0.00    +0.000 C 
ENDBRANCH  32  36
ENDBRANCH  25  28
ENDBRANCH   9  24
TORSDOF 8
ENDMDL
MODEL 4
REMARK VINA RESULT:      -6.8      1.645      2.039
REMARK  Name = 
REMARK  12 active torsions:
REMARK  status: ('A' for Active; 'I' for Inactive)
REMARK    1  A    between atoms: C_1  and  O_2
REMARK    2  A    between atoms: O_2  and  C_3
REMARK    3  A    between atoms: C_6  and  N_7
REMARK    4  A    between atoms: C_8  and  C_10
REMARK    5  A    between atoms: C_18  and  N_19
REMARK    6  A    between atoms: C_20  and  C_22
REMARK    7  A    between atoms: C_25  and  O_26
REMARK    8  A    between atoms: O_26  and  C_27
REMARK    9  A    between atoms: C_28  and  O_29
REMARK   10  A    between atoms: O_29  and  C_30
REMARK   11  A    between atoms: C_32  and  O_33
REMARK   12  A    between atoms: O_33  and  C_34
REMARK                            x       y       z     vdW  Elec       q    Type
REMARK                         _______ _______ _______ _____ _____    ______ ____
ROOT
ATOM      1  C   UNL     1       0.289  12.903  20.603  0.00  0.00    +0.000 A 
ATOM      2  O   UNL     1       0.494  14.250  20.625  0.00  0.00    +0.000 OA
ATOM      3  C   UNL     1       1.467  14.513  19.725  0.00  0.00    +0.000 A 
ATOM      4  C   UNL     1       1.875  15.805  19.391  0.00  0.00    +0.000 A 
ATOM      5  C   UNL     1       2.766  15.919  18.329  0.00  0.00    +0.000 A 
ATOM      6  C   UNL     1       3.231  14.780  17.670  0.00  0.00    +0.000 A 
ATOM      7  C   UNL     1       2.855  13.483  18.086  0.00  0.00    +0.000 A 
ATOM      8  C   UNL     1       1.943  13.332  19.153  0.00  0.00    +0.000 A 
ATOM      9  C   UNL     1       1.268  12.265  19.848  0.00  0.00    +0.000 A 
ENDROOT
BRANCH   1  11
ATOM     10  N   UNL     1      -1.699  13.385  21.778  0.00  0.00    +0.000 N 
ATOM     11  C   UNL     1      -0.883  12.390  21.277  0.00  0.00    +0.000 C 
ATOM     12  O   UNL     1      -1.100  11.183  21.384  0.00  0.00    +0.000 OA
ATOM     13  H   UNL     1      -1.239  14.261  22.003  0.00  0.00    +0.000 HD
BRANCH  10  17
ATOM     14  C   UNL     1      -5.456  12.595  23.466  0.00  0.00    +0.000 A 
ATOM     15  C   UNL     1      -4.321  12.649  24.278  0.00  0.00    +0.000 A 
ATOM     16  C   UNL     1      -3.074  12.952  23.734  0.00  0.00    +0.000 A 
ATOM     17  C   UNL     1      -2.956  13.166  22.360  0.00  0.00    +0.000 A 
ATOM     18  C   UNL     1      -4.081  13.076  21.525  0.00  0.00    +0.000 A 
ATOM     19  C   UNL     1      -5.335  12.817  22.091  0.00  0.00    +0.000 A 
BRANCH  14  21
ATOM     20  C   UNL     1      -7.591  13.362  24.193  0.00  0.00    +0.000 C 
ATOM     21  O   UNL     1      -6.619  12.326  24.136  0.00  0.00    +0.000 OA
ENDBRANCH  14  21
BRANCH  18  22
ATOM     22  O   UNL     1      -3.849  13.329  20.194  0.00  0.00    +0.000 OA
ATOM     23  C   UNL     1      -4.174  12.296  19.275  0.00  0.00    +0.000 C 
ENDBRANCH  18  22
ENDBRANCH  10  17
ENDBRANCH   1  11
BRANCH   9  24
ATOM     24  N   UNL     1       1.366  10.866  19.842  0.00  0.00    +0.000 N 
ATOM     25  C   UNL     1       1.623  10.043  18.756  0.00  0.00    +0.000 C 
ATOM     26  O   UNL     1       1.754  10.417  17.600  0.00  0.00    +0.000 OA
ATOM     27  H   UNL     1       1.457  10.457  20.771  0.00  0.00    +0.000 HD
BRANCH  25  28
ATOM     28  C   UNL     1       1.818   8.575  19.081  0.00  0.00    +0.000 A 
ATOM     29  C   UNL     1       1.514   8.137  20.378  0.00  0.00    +0.000 A 
ATOM     30  C   UNL     1       1.724   6.800  20.737  0.00  0.00    +0.000 A 
ATOM     31  C   UNL     1       2.256   5.870  19.831  0.00  0.00    +0.000 A 
ATOM     32  C   UNL     1       2.556   6.293  18.525  0.00  0.00    +0.000 A 
ATOM     33  C   UNL     1       2.333   7.647  18.166  0.00  0.00    +0.000 A 
BRANCH  31  34
ATOM     34  O   UNL     1       2.412   4.628  20.393  0.00  0.00    +0.000 OA
ATOM     35  C   UNL     1       1.324   3.711  20.412  0.00  0.00    +0.000 C 
ENDBRANCH  31  34
BRANCH  32  36
ATOM     36  O   UNL     1       3.071   5.357  17.668  0.00  0.00    +0.000 OA
ATOM     37  C   UNL     1       4.475   5.173  17.598  0.00  0.00    +0.000 C 
ENDBRANCH  32  36
ENDBRANCH  25  28
ENDBRANCH   9  24
TORSDOF 8
ENDMDL
MODEL 5
REMARK VINA RESULT:      -6.8      2.092      3.047
REMARK  Name = 
REMARK  12 active torsions:
REMARK  status: ('A' for Active; 'I' for Inactive)
REMARK    1  A    between atoms: C_1  and  O_2
REMARK    2  A    between atoms: O_2  and  C_3
REMARK    3  A    between atoms: C_6  and  N_7
REMARK    4  A    between atoms: C_8  and  C_10
REMARK    5  A    between atoms: C_18  and  N_19
REMARK    6  A    between atoms: C_20  and  C_22
REMARK    7  A    between atoms: C_25  and  O_26
REMARK    8  A    between atoms: O_26  and  C_27
REMARK    9  A    between atoms: C_28  and  O_29
REMARK   10  A    between atoms: O_29  and  C_30
REMARK   11  A    between atoms: C_32  and  O_33
REMARK   12  A    between atoms: O_33  and  C_34
REMARK                            x       y       z     vdW  Elec       q    Type
REMARK                         _______ _______ _______ _____ _____    ______ ____
ROOT
ATOM      1  C   UNL     1       0.663  13.611  20.995  0.00  0.00    +0.000 A 
ATOM      2  O   UNL     1       0.854  14.960  20.974  0.00  0.00    +0.000 OA
ATOM      3  C   UNL     1       1.689  15.222  19.946  0.00  0.00    +0.000 A 
ATOM      4  C   UNL     1       2.033  16.513  19.545  0.00  0.00    +0.000 A 
ATOM      5  C   UNL     1       2.767  16.624  18.368  0.00  0.00    +0.000 A 
ATOM      6  C   UNL     1       3.149  15.482  17.664  0.00  0.00    +0.000 A 
ATOM      7  C   UNL     1       2.849  14.186  18.142  0.00  0.00    +0.000 A 
ATOM      8  C   UNL     1       2.095  14.039  19.326  0.00  0.00    +0.000 A 
ATOM      9  C   UNL     1       1.535  12.974  20.118  0.00  0.00    +0.000 A 
ENDROOT
BRANCH   1  11
ATOM     10  N   UNL     1      -1.496  13.930  21.891  0.00  0.00    +0.000 N 
ATOM     11  C   UNL     1      -0.399  13.094  21.830  0.00  0.00    +0.000 C 
ATOM     12  O   UNL     1      -0.302  12.018  22.419  0.00  0.00    +0.000 OA
ATOM     13  H   UNL     1      -1.309  14.916  21.737  0.00  0.00    +0.000 HD
BRANCH  10  17
ATOM     14  C   UNL     1      -5.150  13.117  23.783  0.00  0.00    +0.000 A 
ATOM     15  C   UNL     1      -4.974  12.803  22.433  0.00  0.00    +0.000 A 
ATOM     16  C   UNL     1      -3.751  13.030  21.805  0.00  0.00    +0.000 A 
ATOM     17  C   UNL     1      -2.706  13.611  22.524  0.00  0.00    +0.000 A 
ATOM     18  C   UNL     1      -2.879  13.969  23.871  0.00  0.00    +0.000 A 
ATOM     19  C   UNL     1      -4.097  13.694  24.502  0.00  0.00    +0.000 A 
BRANCH  14  21
ATOM     20  C   UNL     1      -7.444  12.654  23.343  0.00  0.00    +0.000 C 
ATOM     21  O   UNL     1      -6.386  12.807  24.280  0.00  0.00    +0.000 OA
ENDBRANCH  14  21
BRANCH  18  22
ATOM     22  O   UNL     1      -1.775  14.512  24.482  0.00  0.00    +0.000 OA
ATOM     23  C   UNL     1      -2.005  15.339  25.615  0.00  0.00    +0.000 C 
ENDBRANCH  18  22
ENDBRANCH  10  17
ENDBRANCH   1  11
BRANCH   9  24
ATOM     24  N   UNL     1       1.648  11.575  20.114  0.00  0.00    +0.000 N 
ATOM     25  C   UNL     1       0.960  10.676  19.313  0.00  0.00    +0.000 C 
ATOM     26  O   UNL     1       0.090  10.970  18.506  0.00  0.00    +0.000 OA
ATOM     27  H   UNL     1       2.467  11.228  20.611  0.00  0.00    +0.000 HD
BRANCH  25  28
ATOM     28  C   UNL     1       1.398   9.230  19.430  0.00  0.00    +0.000 A 
ATOM     29  C   UNL     1       1.181   8.567  20.646  0.00  0.00    +0.000 A 
ATOM     30  C   UNL     1       1.613   7.246  20.815  0.00  0.00    +0.000 A 
ATOM     31  C   UNL     1       2.287   6.557  19.796  0.00  0.00    +0.000 A 
ATOM     32  C   UNL     1       2.503   7.206  18.569  0.00  0.00    +0.000 A 
ATOM     33  C   UNL     1       2.055   8.541  18.401  0.00  0.00    +0.000 A 
BRANCH  31  34
ATOM     34  O   UNL     1       2.652   5.291  20.178  0.00  0.00    +0.000 OA
ATOM     35  C   UNL     1       1.663   4.363  20.613  0.00  0.00    +0.000 C 
ENDBRANCH  31  34
BRANCH  32  36
ATOM     36  O   UNL     1       3.162   6.501  17.596  0.00  0.00    +0.000 OA
ATOM     37  C   UNL     1       4.559   6.680  17.429  0.00  0.00    +0.000 C 
ENDBRANCH  32  36
ENDBRANCH  25  28
ENDBRANCH   9  24
TORSDOF 8
ENDMDL
MODEL 6
REMARK VINA RESULT:      -6.8      1.636      7.954
REMARK  Name = 
REMARK  12 active torsions:
REMARK  status: ('A' for Active; 'I' for Inactive)
REMARK    1  A    between atoms: C_1  and  O_2
REMARK    2  A    between atoms: O_2  and  C_3
REMARK    3  A    between atoms: C_6  and  N_7
REMARK    4  A    between atoms: C_8  and  C_10
REMARK    5  A    between atoms: C_18  and  N_19
REMARK    6  A    between atoms: C_20  and  C_22
REMARK    7  A    between atoms: C_25  and  O_26
REMARK    8  A    between atoms: O_26  and  C_27
REMARK    9  A    between atoms: C_28  and  O_29
REMARK   10  A    between atoms: O_29  and  C_30
REMARK   11  A    between atoms: C_32  and  O_33
REMARK   12  A    between atoms: O_33  and  C_34
REMARK                            x       y       z     vdW  Elec       q    Type
REMARK                         _______ _______ _______ _____ _____    ______ ____
ROOT
ATOM      1  C   UNL     1       1.346  11.571  18.414  0.00  0.00    +0.000 A 
ATOM      2  O   UNL     1       2.590  12.009  18.071  0.00  0.00    +0.000 OA
ATOM      3  C   UNL     1       2.651  13.316  18.405  0.00  0.00    +0.000 A 
ATOM      4  C   UNL     1       3.813  14.082  18.299  0.00  0.00    +0.000 A 
ATOM      5  C   UNL     1       3.763  15.364  18.838  0.00  0.00    +0.000 A 
ATOM      6  C   UNL     1       2.588  15.840  19.421  0.00  0.00    +0.000 A 
ATOM      7  C   UNL     1       1.408  15.063  19.441  0.00  0.00    +0.000 A 
ATOM      8  C   UNL     1       1.428  13.754  18.914  0.00  0.00    +0.000 A 
ATOM      9  C   UNL     1       0.528  12.637  18.775  0.00  0.00    +0.000 A 
ENDROOT
BRANCH   1  11
ATOM     10  N   UNL     1       2.205   9.412  18.823  0.00  0.00    +0.000 N 
ATOM     11  C   UNL     1       1.109  10.144  18.410  0.00  0.00    +0.000 C 
ATOM     12  O   UNL     1       0.032   9.661  18.063  0.00  0.00    +0.000 OA
ATOM     13  H   UNL     1       3.109   9.849  18.675  0.00  0.00    +0.000 HD
BRANCH  10  17
ATOM     14  C   UNL     1       2.055   5.267  19.445  0.00  0.00    +0.000 A 
ATOM     15  C   UNL     1       2.439   5.776  18.202  0.00  0.00    +0.000 A 
ATOM     16  C   UNL     1       2.533   7.151  17.997  0.00  0.00    +0.000 A 
ATOM     17  C   UNL     1       2.203   8.026  19.032  0.00  0.00    +0.000 A 
ATOM     18  C   UNL     1       1.778   7.530  20.276  0.00  0.00    +0.000 A 
ATOM     19  C   UNL     1       1.732   6.147  20.483  0.00  0.00    +0.000 A 
BRANCH  14  21
ATOM     20  C   UNL     1       1.970   3.185  18.292  0.00  0.00    +0.000 C 
ATOM     21  O   UNL     1       2.043   3.901  19.518  0.00  0.00    +0.000 OA
ENDBRANCH  14  21
BRANCH  18  22
ATOM     22  O   UNL     1       1.503   8.484  21.227  0.00  0.00    +0.000 OA
ATOM     23  C   UNL     1       0.147   8.623  21.628  0.00  0.00    +0.000 C 
ENDBRANCH  18  22
ENDBRANCH  10  17
ENDBRANCH   1  11
BRANCH   9  24
ATOM     24  N   UNL     1      -0.846  12.444  18.982  0.00  0.00    +0.000 N 
ATOM     25  C   UNL     1      -1.542  12.550  20.178  0.00  0.00    +0.000 C 
ATOM     26  O   UNL     1      -1.042  12.782  21.269  0.00  0.00    +0.000 OA
ATOM     27  H   UNL     1      -1.393  12.428  18.123  0.00  0.00    +0.000 HD
BRANCH  25  28
ATOM     28  C   UNL     1      -3.049  12.429  20.068  0.00  0.00    +0.000 A 
ATOM     29  C   UNL     1      -3.589  11.931  18.874  0.00  0.00    +0.000 A 
ATOM     30  C   UNL     1      -4.978  11.847  18.711  0.00  0.00    +0.000 A 
ATOM     31  C   UNL     1      -5.863  12.271  19.713  0.00  0.00    +0.000 A 
ATOM     32  C   UNL     1      -5.335  12.764  20.919  0.00  0.00    +0.000 A 
ATOM     33  C   UNL     1      -3.928  12.838  21.081  0.00  0.00    +0.000 A 
BRANCH  31  34
ATOM     34  O   UNL     1      -7.176  12.135  19.339  0.00  0.00    +0.000 OA
ATOM     35  C   UNL     1      -7.734  13.009  18.364  0.00  0.00    +0.000 C 
ENDBRANCH  31  34
BRANCH  32  36
ATOM     36  O   UNL     1      -6.229  13.167  21.875  0.00  0.00    +0.000 OA
ATOM     37  C   UNL     1      -6.627  14.526  21.930  0.00  0.00    +0.000 C 
ENDBRANCH  32  36
ENDBRANCH  25  28
ENDBRANCH   9  24
TORSDOF 8
ENDMDL
MODEL 7
REMARK VINA RESULT:      -6.7      1.631      7.804
REMARK  Name = 
REMARK  12 active torsions:
REMARK  status: ('A' for Active; 'I' for Inactive)
REMARK    1  A    between atoms: C_1  and  O_2
REMARK    2  A    between atoms: O_2  and  C_3
REMARK    3  A    between atoms: C_6  and  N_7
REMARK    4  A    between atoms: C_8  and  C_10
REMARK    5  A    between atoms: C_18  and  N_19
REMARK    6  A    between atoms: C_20  and  C_22
REMARK    7  A    between atoms: C_25  and  O_26
REMARK    8  A    between atoms: O_26  and  C_27
REMARK    9  A    between atoms: C_28  and  O_29
REMARK   10  A    between atoms: O_29  and  C_30
REMARK   11  A    between atoms: C_32  and  O_33
REMARK   12  A    between atoms: O_33  and  C_34
REMARK                            x       y       z     vdW  Elec       q    Type
REMARK                         _______ _______ _______ _____ _____    ______ ____
ROOT
ATOM      1  C   UNL     1       1.429  11.600  18.577  0.00  0.00    +0.000 A 
ATOM      2  O   UNL     1       2.617  11.980  18.028  0.00  0.00    +0.000 OA
ATOM      3  C   UNL     1       2.805  13.276  18.358  0.00  0.00    +0.000 A 
ATOM      4  C   UNL     1       3.970  13.983  18.060  0.00  0.00    +0.000 A 
ATOM      5  C   UNL     1       4.083  15.256  18.611  0.00  0.00    +0.000 A 
ATOM      6  C   UNL     1       3.052  15.781  19.392  0.00  0.00    +0.000 A 
ATOM      7  C   UNL     1       1.853  15.066  19.608  0.00  0.00    +0.000 A 
ATOM      8  C   UNL     1       1.712  13.767  19.074  0.00  0.00    +0.000 A 
ATOM      9  C   UNL     1       0.743  12.700  19.083  0.00  0.00    +0.000 A 
ENDROOT
BRANCH   1  11
ATOM     10  N   UNL     1       2.149   9.416  19.103  0.00  0.00    +0.000 N 
ATOM     11  C   UNL     1       1.119  10.188  18.602  0.00  0.00    +0.000 C 
ATOM     12  O   UNL     1       0.041   9.748  18.204  0.00  0.00    +0.000 OA
ATOM     13  H   UNL     1       3.081   9.802  18.997  0.00  0.00    +0.000 HD
BRANCH  10  17
ATOM     14  C   UNL     1       2.032   5.298  19.887  0.00  0.00    +0.000 A 
ATOM     15  C   UNL     1       1.450   6.198  20.782  0.00  0.00    +0.000 A 
ATOM     16  C   UNL     1       1.446   7.565  20.512  0.00  0.00    +0.000 A 
ATOM     17  C   UNL     1       2.063   8.039  19.353  0.00  0.00    +0.000 A 
ATOM     18  C   UNL     1       2.686   7.150  18.462  0.00  0.00    +0.000 A 
ATOM     19  C   UNL     1       2.643   5.776  18.723  0.00  0.00    +0.000 A 
BRANCH  14  21
ATOM     20  C   UNL     1       2.176   3.674  21.624  0.00  0.00    +0.000 C 
ATOM     21  O   UNL     1       1.931   3.985  20.258  0.00  0.00    +0.000 OA
ENDBRANCH  14  21
BRANCH  18  22
ATOM     22  O   UNL     1       3.240   7.728  17.345  0.00  0.00    +0.000 OA
ATOM     23  C   UNL     1       4.487   7.212  16.901  0.00  0.00    +0.000 C 
ENDBRANCH  18  22
ENDBRANCH  10  17
ENDBRANCH   1  11
BRANCH   9  24
ATOM     24  N   UNL     1      -0.583  12.574  19.522  0.00  0.00    +0.000 N 
ATOM     25  C   UNL     1      -1.029  12.432  20.828  0.00  0.00    +0.000 C 
ATOM     26  O   UNL     1      -0.312  12.339  21.814  0.00  0.00    +0.000 OA
ATOM     27  H   UNL     1      -1.275  12.820  18.816  0.00  0.00    +0.000 HD
BRANCH  25  28
ATOM     28  C   UNL     1      -2.533  12.466  21.011  0.00  0.00    +0.000 A 
ATOM     29  C   UNL     1      -3.341  12.475  19.865  0.00  0.00    +0.000 A 
ATOM     30  C   UNL     1      -4.734  12.555  19.986  0.00  0.00    +0.000 A 
ATOM     31  C   UNL     1      -5.359  12.648  21.238  0.00  0.00    +0.000 A 
ATOM     32  C   UNL     1      -4.562  12.630  22.395  0.00  0.00    +0.000 A 
ATOM     33  C   UNL     1      -3.153  12.540  22.266  0.00  0.00    +0.000 A 
BRANCH  31  34
ATOM     34  O   UNL     1      -6.723  12.751  21.131  0.00  0.00    +0.000 OA
ATOM     35  C   UNL     1      -7.526  11.576  21.093  0.00  0.00    +0.000 C 
ENDBRANCH  31  34
BRANCH  32  36
ATOM     36  O   UNL     1      -5.208  12.720  23.601  0.00  0.00    +0.000 OA
ATOM     37  C   UNL     1      -4.524  12.356  24.787  0.00  0.00    +0.000 C 
ENDBRANCH  32  36
ENDBRANCH  25  28
ENDBRANCH   9  24
TORSDOF 8
ENDMDL
MODEL 8
REMARK VINA RESULT:      -6.7      1.612      7.594
REMARK  Name = 
REMARK  12 active torsions:
REMARK  status: ('A' for Active; 'I' for Inactive)
REMARK    1  A    between atoms: C_1  and  O_2
REMARK    2  A    between atoms: O_2  and  C_3
REMARK    3  A    between atoms: C_6  and  N_7
REMARK    4  A    between atoms: C_8  and  C_10
REMARK    5  A    between atoms: C_18  and  N_19
REMARK    6  A    between atoms: C_20  and  C_22
REMARK    7  A    between atoms: C_25  and  O_26
REMARK    8  A    between atoms: O_26  and  C_27
REMARK    9  A    between atoms: C_28  and  O_29
REMARK   10  A    between atoms: O_29  and  C_30
REMARK   11  A    between atoms: C_32  and  O_33
REMARK   12  A    between atoms: O_33  and  C_34
REMARK                            x       y       z     vdW  Elec       q    Type
REMARK                         _______ _______ _______ _____ _____    ______ ____
ROOT
ATOM      1  C   UNL     1       1.142  11.520  18.435  0.00  0.00    +0.000 A 
ATOM      2  O   UNL     1       2.377  11.955  18.058  0.00  0.00    +0.000 OA
ATOM      3  C   UNL     1       2.418  13.282  18.307  0.00  0.00    +0.000 A 
ATOM      4  C   UNL     1       3.566  14.059  18.147  0.00  0.00    +0.000 A 
ATOM      5  C   UNL     1       3.497  15.371  18.604  0.00  0.00    +0.000 A 
ATOM      6  C   UNL     1       2.317  15.864  19.163  0.00  0.00    +0.000 A 
ATOM      7  C   UNL     1       1.150  15.071  19.239  0.00  0.00    +0.000 A 
ATOM      8  C   UNL     1       1.189  13.731  18.795  0.00  0.00    +0.000 A 
ATOM      9  C   UNL     1       0.308  12.593  18.732  0.00  0.00    +0.000 A 
ENDROOT
BRANCH   1  11
ATOM     10  N   UNL     1       2.076   9.392  18.841  0.00  0.00    +0.000 N 
ATOM     11  C   UNL     1       0.929  10.092  18.523  0.00  0.00    +0.000 C 
ATOM     12  O   UNL     1      -0.172   9.581  18.322  0.00  0.00    +0.000 OA
ATOM     13  H   UNL     1       2.950   9.831  18.572  0.00  0.00    +0.000 HD
BRANCH  10  17
ATOM     14  C   UNL     1       2.063   5.277  19.651  0.00  0.00    +0.000 A 
ATOM     15  C   UNL     1       2.389   5.739  18.374  0.00  0.00    +0.000 A 
ATOM     16  C   UNL     1       2.437   7.105  18.105  0.00  0.00    +0.000 A 
ATOM     17  C   UNL     1       2.120   8.017  19.112  0.00  0.00    +0.000 A 
ATOM     18  C   UNL     1       1.752   7.568  20.390  0.00  0.00    +0.000 A 
ATOM     19  C   UNL     1       1.752   6.194  20.660  0.00  0.00    +0.000 A 
BRANCH  14  21
ATOM     20  C   UNL     1       0.859   3.222  19.636  0.00  0.00    +0.000 C 
ATOM     21  O   UNL     1       2.091   3.916  19.786  0.00  0.00    +0.000 OA
ENDBRANCH  14  21
BRANCH  18  22
ATOM     22  O   UNL     1       1.483   8.556  21.307  0.00  0.00    +0.000 OA
ATOM     23  C   UNL     1       0.153   8.635  21.801  0.00  0.00    +0.000 C 
ENDBRANCH  18  22
ENDBRANCH  10  17
ENDBRANCH   1  11
BRANCH   9  24
ATOM     24  N   UNL     1      -1.062  12.391  18.959  0.00  0.00    +0.000 N 
ATOM     25  C   UNL     1      -2.033  12.068  18.023  0.00  0.00    +0.000 C 
ATOM     26  O   UNL     1      -1.847  11.958  16.820  0.00  0.00    +0.000 OA
ATOM     27  H   UNL     1      -1.302  12.275  19.942  0.00  0.00    +0.000 HD
BRANCH  25  28
ATOM     28  C   UNL     1      -3.407  11.767  18.586  0.00  0.00    +0.000 A 
ATOM     29  C   UNL     1      -4.230  10.872  17.887  0.00  0.00    +0.000 A 
ATOM     30  C   UNL     1      -5.526  10.602  18.345  0.00  0.00    +0.000 A 
ATOM     31  C   UNL     1      -6.045  11.222  19.491  0.00  0.00    +0.000 A 
ATOM     32  C   UNL     1      -5.228  12.113  20.207  0.00  0.00    +0.000 A 
ATOM     33  C   UNL     1      -3.914  12.376  19.743  0.00  0.00    +0.000 A 
BRANCH  31  34
ATOM     34  O   UNL     1      -7.339  10.844  19.745  0.00  0.00    +0.000 OA
ATOM     35  C   UNL     1      -7.606   9.619  20.418  0.00  0.00    +0.000 C 
ENDBRANCH  31  34
BRANCH  32  36
ATOM     36  O   UNL     1      -5.768  12.698  21.323  0.00  0.00    +0.000 OA
ATOM     37  C   UNL     1      -5.688  14.104  21.481  0.00  0.00    +0.000 C 
ENDBRANCH  32  36
ENDBRANCH  25  28
ENDBRANCH   9  24
TORSDOF 8
ENDMDL
MODEL 9
REMARK VINA RESULT:      -6.6      2.973      7.819
REMARK  Name = 
REMARK  12 active torsions:
REMARK  status: ('A' for Active; 'I' for Inactive)
REMARK    1  A    between atoms: C_1  and  O_2
REMARK    2  A    between atoms: O_2  and  C_3
REMARK    3  A    between atoms: C_6  and  N_7
REMARK    4  A    between atoms: C_8  and  C_10
REMARK    5  A    between atoms: C_18  and  N_19
REMARK    6  A    between atoms: C_20  and  C_22
REMARK    7  A    between atoms: C_25  and  O_26
REMARK    8  A    between atoms: O_26  and  C_27
REMARK    9  A    between atoms: C_28  and  O_29
REMARK   10  A    between atoms: O_29  and  C_30
REMARK   11  A    between atoms: C_32  and  O_33
REMARK   12  A    between atoms: O_33  and  C_34
REMARK                            x       y       z     vdW  Elec       q    Type
REMARK                         _______ _______ _______ _____ _____    ______ ____
ROOT
ATOM      1  C   UNL     1      -1.258  11.777  22.741  0.00  0.00    +0.000 A 
ATOM      2  O   UNL     1      -2.308  11.499  23.563  0.00  0.00    +0.000 OA
ATOM      3  C   UNL     1      -3.140  12.562  23.508  0.00  0.00    +0.000 A 
ATOM      4  C   UNL     1      -4.383  12.598  24.141  0.00  0.00    +0.000 A 
ATOM      5  C   UNL     1      -5.195  13.690  23.854  0.00  0.00    +0.000 A 
ATOM      6  C   UNL     1      -4.750  14.695  22.995  0.00  0.00    +0.000 A 
ATOM      7  C   UNL     1      -3.454  14.664  22.433  0.00  0.00    +0.000 A 
ATOM      8  C   UNL     1      -2.609  13.563  22.694  0.00  0.00    +0.000 A 
ATOM      9  C   UNL     1      -1.298  13.101  22.314  0.00  0.00    +0.000 A 
ENDROOT
BRANCH   1  11
ATOM     10  N   UNL     1      -0.418  10.326  21.081  0.00  0.00    +0.000 N 
ATOM     11  C   UNL     1      -0.356  10.694  22.410  0.00  0.00    +0.000 C 
ATOM     12  O   UNL     1       0.374  10.171  23.251  0.00  0.00    +0.000 OA
ATOM     13  H   UNL     1      -1.300  10.509  20.612  0.00  0.00    +0.000 HD
BRANCH  10  17
ATOM     14  C   UNL     1       2.250   7.630  19.291  0.00  0.00    +0.000 A 
ATOM     15  C   UNL     1       1.690   7.339  20.537  0.00  0.00    +0.000 A 
ATOM     16  C   UNL     1       0.771   8.207  21.122  0.00  0.00    +0.000 A 
ATOM     17  C   UNL     1       0.437   9.396  20.472  0.00  0.00    +0.000 A 
ATOM     18  C   UNL     1       1.021   9.722  19.237  0.00  0.00    +0.000 A 
ATOM     19  C   UNL     1       1.908   8.819  18.639  0.00  0.00    +0.000 A 
BRANCH  14  21
ATOM     20  C   UNL     1       3.115   5.419  19.487  0.00  0.00    +0.000 C 
ATOM     21  O   UNL     1       3.107   6.674  18.818  0.00  0.00    +0.000 OA
ENDBRANCH  14  21
BRANCH  18  22
ATOM     22  O   UNL     1       0.599  10.905  18.680  0.00  0.00    +0.000 OA
ATOM     23  C   UNL     1       1.505  11.999  18.724  0.00  0.00    +0.000 C 
ENDBRANCH  18  22
ENDBRANCH  10  17
ENDBRANCH   1  11
BRANCH   9  24
ATOM     24  N   UNL     1      -0.218  13.659  21.615  0.00  0.00    +0.000 N 
ATOM     25  C   UNL     1       0.624  14.678  22.038  0.00  0.00    +0.000 C 
ATOM     26  O   UNL     1       0.516  15.295  23.087  0.00  0.00    +0.000 OA
ATOM     27  H   UNL     1       0.082  13.107  20.813  0.00  0.00    +0.000 HD
BRANCH  25  28
ATOM     28  C   UNL     1       1.798  14.973  21.127  0.00  0.00    +0.000 A 
ATOM     29  C   UNL     1       3.004  14.295  21.358  0.00  0.00    +0.000 A 
ATOM     30  C   UNL     1       4.129  14.571  20.571  0.00  0.00    +0.000 A 
ATOM     31  C   UNL     1       4.096  15.536  19.553  0.00  0.00    +0.000 A 
ATOM     32  C   UNL     1       2.892  16.216  19.304  0.00  0.00    +0.000 A 
ATOM     33  C   UNL     1       1.754  15.925  20.099  0.00  0.00    +0.000 A 
BRANCH  31  34
ATOM     34  O   UNL     1       5.310  15.674  18.929  0.00  0.00    +0.000 OA
ATOM     35  C   UNL     1       5.654  14.824  17.841  0.00  0.00    +0.000 C 
ENDBRANCH  31  34
BRANCH  32  36
ATOM     36  O   UNL     1       2.897  17.149  18.301  0.00  0.00    +0.000 OA
ATOM     37  C   UNL     1       1.672  17.537  17.703  0.00  0.00    +0.000 C 
ENDBRANCH  32  36
ENDBRANCH  25  28
ENDBRANCH   9  24
TORSDOF 8
ENDMDL
