MODEL 1
REMARK VINA RESULT:      -6.1      0.000      0.000
REMARK  Name = 
REMARK  8 active torsions:
REMARK  status: ('A' for Active; 'I' for Inactive)
REMARK    1  A    between atoms: C_1  and  C_2
REMARK    2  A    between atoms: C_2  and  C_4
REMARK    3  A    between atoms: C_7  and  C_8
REMARK    4  A    between atoms: C_11  and  N_12
REMARK    5  A    between atoms: N_12  and  CA_13
REMARK    6  A    between atoms: CA_13  and  CB_14
REMARK    7  A    between atoms: CA_13  and  C_15
REMARK    8  A    between atoms: C_15  and  O_16
REMARK                            x       y       z     vdW  Elec       q    Type
REMARK                         _______ _______ _______ _____ _____    ______ ____
ROOT
ATOM      1  C   UNL     1       5.837   4.305  18.102  0.00  0.00    +0.000 A 
ATOM      2  C   UNL     1       5.166   4.339  19.346  0.00  0.00    +0.000 A 
ATOM      3  C   UNL     1       3.860   3.892  19.481  0.00  0.00    +0.000 A 
ATOM      4  C   UNL     1       3.188   3.418  18.359  0.00  0.00    +0.000 A 
ATOM      5  C   UNL     1       3.845   3.383  17.120  0.00  0.00    +0.000 A 
ATOM      6  C   ACE A   0       5.190   3.780  16.957  0.00  0.00    +0.000 A 
ENDROOT
BRANCH   1   8
ATOM      7  C   UNL     1       7.660   5.761  19.240  0.00  0.00    +0.000 C 
ATOM      8  C   UNL     1       7.240   4.816  18.150  0.00  0.00    +0.000 C 
ATOM      9  O   UNL     1       8.054   4.423  17.315  0.00  0.00    +0.000 OA
ENDBRANCH   1   8
BRANCH   4  10
ATOM     10  C   UNL     1       1.838   2.950  18.465  0.00  0.00    +0.000 C 
ATOM     11  N   UNL     1       0.742   2.584  18.554  0.00  0.00    +0.000 NA
ENDBRANCH   4  10
BRANCH   6  12
ATOM     12  N   UNL     1       5.810   3.603  15.720  0.00  0.00    +0.000 N 
ATOM     13  H   UNL     1       6.063   2.673  15.419  0.00  0.00    +0.000 HD
BRANCH  12  14
ATOM     14  CA  UNL     1       5.681   4.580  14.617  0.00  0.00    +0.000 C 
ATOM     15  CB  UNL     1       5.319   5.950  15.183  0.00  0.00    +0.000 C 
BRANCH  14  16
ATOM     16  C   UNL     1       7.007   4.664  13.836  0.00  0.00    +0.000 C 
BRANCH  16  17
ATOM     17  O   UNL     1       7.950   5.489  14.517  0.00  0.00    +0.000 OA
ATOM     18  H   UNL     1       8.099   6.272  13.958  0.00  0.00    +0.000 HD
ENDBRANCH  16  17
ENDBRANCH  14  16
ENDBRANCH  12  14
ENDBRANCH   6  12
TORSDOF 6
ENDMDL
MODEL 2
REMARK VINA RESULT:      -5.9      2.869      3.590
REMARK  Name = 
REMARK  8 active torsions:
REMARK  status: ('A' for Active; 'I' for Inactive)
REMARK    1  A    between atoms: C_1  and  C_2
REMARK    2  A    between atoms: C_2  and  C_4
REMARK    3  A    between atoms: C_7  and  C_8
REMARK    4  A    between atoms: C_11  and  N_12
REMARK    5  A    between atoms: N_12  and  CA_13
REMARK    6  A    between atoms: CA_13  and  CB_14
REMARK    7  A    between atoms: CA_13  and  C_15
REMARK    8  A    between atoms: C_15  and  O_16
REMARK                            x       y       z     vdW  Elec       q    Type
REMARK                         _______ _______ _______ _____ _____    ______ ____
ROOT
ATOM      1  C   UNL     1       3.742   4.271  18.703  0.00  0.00    +0.000 A 
ATOM      2  C   UNL     1       2.766   4.899  19.511  0.00  0.00    +0.000 A 
ATOM      3  C   UNL     1       2.331   6.190  19.256  0.00  0.00    +0.000 A 
ATOM      4  C   UNL     1       2.885   6.893  18.191  0.00  0.00    +0.000 A 
ATOM      5  C   UNL     1       3.856   6.279  17.385  0.00  0.00    +0.000 A 
ATOM      6  C   ACE A   0       4.284   4.948  17.584  0.00  0.00    +0.000 A 
ENDROOT
BRANCH   1   8
ATOM      7  C   UNL     1       3.361   1.712  18.500  0.00  0.00    +0.000 C 
ATOM      8  C   UNL     1       4.078   2.876  19.122  0.00  0.00    +0.000 C 
ATOM      9  O   UNL     1       4.971   2.693  19.948  0.00  0.00    +0.000 OA
ENDBRANCH   1   8
BRANCH   4  10
ATOM     10  C   UNL     1       2.458   8.229  17.901  0.00  0.00    +0.000 C 
ATOM     11  N   UNL     1       2.119   9.310  17.655  0.00  0.00    +0.000 NA
ENDBRANCH   4  10
BRANCH   6  12
ATOM     12  N   UNL     1       5.163   4.369  16.670  0.00  0.00    +0.000 N 
ATOM     13  H   UNL     1       4.807   3.733  15.970  0.00  0.00    +0.000 HD
BRANCH  12  14
ATOM     14  CA  UNL     1       6.468   4.973  16.325  0.00  0.00    +0.000 C 
ATOM     15  CB  UNL     1       7.517   4.551  17.351  0.00  0.00    +0.000 C 
BRANCH  14  16
ATOM     16  C   UNL     1       6.897   4.524  14.915  0.00  0.00    +0.000 C 
BRANCH  16  17
ATOM     17  O   UNL     1       7.743   5.495  14.305  0.00  0.00    +0.000 OA
ATOM     18  H   UNL     1       8.352   5.816  14.995  0.00  0.00    +0.000 HD
ENDBRANCH  16  17
ENDBRANCH  14  16
ENDBRANCH  12  14
ENDBRANCH   6  12
TORSDOF 6
ENDMDL
MODEL 3
REMARK VINA RESULT:      -5.8      2.169      4.646
REMARK  Name = 
REMARK  8 active torsions:
REMARK  status: ('A' for Active; 'I' for Inactive)
REMARK    1  A    between atoms: C_1  and  C_2
REMARK    2  A    between atoms: C_2  and  C_4
REMARK    3  A    between atoms: C_7  and  C_8
REMARK    4  A    between atoms: C_11  and  N_12
REMARK    5  A    between atoms: N_12  and  CA_13
REMARK    6  A    between atoms: CA_13  and  CB_14
REMARK    7  A    between atoms: CA_13  and  C_15
REMARK    8  A    between atoms: C_15  and  O_16
REMARK                            x       y       z     vdW  Elec       q    Type
REMARK                         _______ _______ _______ _____ _____    ______ ____
ROOT
ATOM      1  C   UNL     1       6.609   4.915  17.164  0.00  0.00    +0.000 A 
ATOM      2  C   UNL     1       7.375   5.406  16.081  0.00  0.00    +0.000 A 
ATOM      3  C   UNL     1       7.135   5.002  14.777  0.00  0.00    +0.000 A 
ATOM      4  C   UNL     1       6.129   4.074  14.531  0.00  0.00    +0.000 A 
ATOM      5  C   UNL     1       5.365   3.580  15.598  0.00  0.00    +0.000 A 
ATOM      6  C   ACE A   0       5.547   4.009  16.932  0.00  0.00    +0.000 A 
ENDROOT
BRANCH   1   8
ATOM      7  C   UNL     1       7.882   6.687  18.570  0.00  0.00    +0.000 C 
ATOM      8  C   UNL     1       7.003   5.471  18.493  0.00  0.00    +0.000 C 
ATOM      9  O   UNL     1       6.568   4.948  19.519  0.00  0.00    +0.000 OA
ENDBRANCH   1   8
BRANCH   4  10
ATOM     10  C   UNL     1       5.856   3.635  13.194  0.00  0.00    +0.000 C 
ATOM     11  N   UNL     1       5.622   3.284  12.115  0.00  0.00    +0.000 NA
ENDBRANCH   4  10
BRANCH   6  12
ATOM     12  N   UNL     1       4.670   3.561  17.919  0.00  0.00    +0.000 N 
ATOM     13  H   UNL     1       5.031   3.046  18.709  0.00  0.00    +0.000 HD
BRANCH  12  14
ATOM     14  CA  UNL     1       3.354   4.191  18.161  0.00  0.00    +0.000 C 
ATOM     15  CB  UNL     1       2.245   3.278  17.645  0.00  0.00    +0.000 C 
BRANCH  14  16
ATOM     16  C   UNL     1       3.167   4.448  19.670  0.00  0.00    +0.000 C 
BRANCH  16  17
ATOM     17  O   UNL     1       3.656   5.737  20.032  0.00  0.00    +0.000 OA
ATOM     18  H   UNL     1       2.927   6.202  20.482  0.00  0.00    +0.000 HD
ENDBRANCH  16  17
ENDBRANCH  14  16
ENDBRANCH  12  14
ENDBRANCH   6  12
TORSDOF 6
ENDMDL
MODEL 4
REMARK VINA RESULT:      -5.8      2.947      4.008
REMARK  Name = 
REMARK  8 active torsions:
REMARK  status: ('A' for Active; 'I' for Inactive)
REMARK    1  A    between atoms: C_1  and  C_2
REMARK    2  A    between atoms: C_2  and  C_4
REMARK    3  A    between atoms: C_7  and  C_8
REMARK    4  A    between atoms: C_11  and  N_12
REMARK    5  A    between atoms: N_12  and  CA_13
REMARK    6  A    between atoms: CA_13  and  CB_14
REMARK    7  A    between atoms: CA_13  and  C_15
REMARK    8  A    between atoms: C_15  and  O_16
REMARK                            x       y       z     vdW  Elec       q    Type
REMARK                         _______ _______ _______ _____ _____    ______ ____
ROOT
ATOM      1  C   UNL     1       3.861   4.005  18.890  0.00  0.00    +0.000 A 
ATOM      2  C   UNL     1       2.535   4.232  18.455  0.00  0.00    +0.000 A 
ATOM      3  C   UNL     1       2.093   5.496  18.097  0.00  0.00    +0.000 A 
ATOM      4  C   UNL     1       2.970   6.572  18.190  0.00  0.00    +0.000 A 
ATOM      5  C   UNL     1       4.287   6.356  18.623  0.00  0.00    +0.000 A 
ATOM      6  C   ACE A   0       4.786   5.075  18.945  0.00  0.00    +0.000 A 
ENDROOT
BRANCH   1   8
ATOM      7  C   UNL     1       3.569   1.475  18.392  0.00  0.00    +0.000 C 
ATOM      8  C   UNL     1       4.160   2.579  19.222  0.00  0.00    +0.000 C 
ATOM      9  O   UNL     1       4.924   2.323  20.151  0.00  0.00    +0.000 OA
ENDBRANCH   1   8
BRANCH   4  10
ATOM     10  C   UNL     1       2.544   7.891  17.828  0.00  0.00    +0.000 C 
ATOM     11  N   UNL     1       2.204   8.956  17.524  0.00  0.00    +0.000 NA
ENDBRANCH   4  10
BRANCH   6  12
ATOM     12  N   UNL     1       6.138   4.925  19.252  0.00  0.00    +0.000 N 
ATOM     13  H   UNL     1       6.407   4.403  20.074  0.00  0.00    +0.000 HD
BRANCH  12  14
ATOM     14  CA  UNL     1       7.205   5.037  18.234  0.00  0.00    +0.000 C 
ATOM     15  CB  UNL     1       6.677   4.562  16.882  0.00  0.00    +0.000 C 
BRANCH  14  16
ATOM     16  C   UNL     1       7.680   6.500  18.131  0.00  0.00    +0.000 C 
BRANCH  16  17
ATOM     17  O   UNL     1       7.355   7.054  16.858  0.00  0.00    +0.000 OA
ATOM     18  H   UNL     1       8.066   7.681  16.632  0.00  0.00    +0.000 HD
ENDBRANCH  16  17
ENDBRANCH  14  16
ENDBRANCH  12  14
ENDBRANCH   6  12
TORSDOF 6
ENDMDL
MODEL 5
REMARK VINA RESULT:      -5.8      3.307      5.562
REMARK  Name = 
REMARK  8 active torsions:
REMARK  status: ('A' for Active; 'I' for Inactive)
REMARK    1  A    between atoms: C_1  and  C_2
REMARK    2  A    between atoms: C_2  and  C_4
REMARK    3  A    between atoms: C_7  and  C_8
REMARK    4  A    between atoms: C_11  and  N_12
REMARK    5  A    between atoms: N_12  and  CA_13
REMARK    6  A    between atoms: CA_13  and  CB_14
REMARK    7  A    between atoms: CA_13  and  C_15
REMARK    8  A    between atoms: C_15  and  O_16
REMARK                            x       y       z     vdW  Elec       q    Type
REMARK                         _______ _______ _______ _____ _____    ______ ____
ROOT
ATOM      1  C   UNL     1       3.185   6.553  18.003  0.00  0.00    +0.000 A 
ATOM      2  C   UNL     1       4.243   7.172  17.299  0.00  0.00    +0.000 A 
ATOM      3  C   UNL     1       5.077   6.452  16.457  0.00  0.00    +0.000 A 
ATOM      4  C   UNL     1       4.879   5.082  16.319  0.00  0.00    +0.000 A 
ATOM      5  C   UNL     1       3.833   4.458  17.015  0.00  0.00    +0.000 A 
ATOM      6  C   ACE A   0       2.933   5.169  17.839  0.00  0.00    +0.000 A 
ENDROOT
BRANCH   1   8
ATOM      7  C   UNL     1       1.860   8.768  18.270  0.00  0.00    +0.000 C 
ATOM      8  C   UNL     1       2.386   7.487  18.852  0.00  0.00    +0.000 C 
ATOM      9  O   UNL     1       2.131   7.177  20.015  0.00  0.00    +0.000 OA
ENDBRANCH   1   8
BRANCH   4  10
ATOM     10  C   UNL     1       5.724   4.309  15.457  0.00  0.00    +0.000 C 
ATOM     11  N   UNL     1       6.399   3.686  14.750  0.00  0.00    +0.000 NA
ENDBRANCH   4  10
BRANCH   6  12
ATOM     12  N   UNL     1       1.848   4.499  18.403  0.00  0.00    +0.000 N 
ATOM     13  H   UNL     1       0.980   4.438  17.890  0.00  0.00    +0.000 HD
BRANCH  12  14
ATOM     14  CA  UNL     1       2.005   3.464  19.447  0.00  0.00    +0.000 C 
ATOM     15  CB  UNL     1       1.164   3.833  20.667  0.00  0.00    +0.000 C 
BRANCH  14  16
ATOM     16  C   UNL     1       1.563   2.093  18.896  0.00  0.00    +0.000 C 
BRANCH  16  17
ATOM     17  O   UNL     1       2.680   1.358  18.401  0.00  0.00    +0.000 OA
ATOM     18  H   UNL     1       2.974   0.770  19.120  0.00  0.00    +0.000 HD
ENDBRANCH  16  17
ENDBRANCH  14  16
ENDBRANCH  12  14
ENDBRANCH   6  12
TORSDOF 6
ENDMDL
MODEL 6
REMARK VINA RESULT:      -5.8      0.833      1.007
REMARK  Name = 
REMARK  8 active torsions:
REMARK  status: ('A' for Active; 'I' for Inactive)
REMARK    1  A    between atoms: C_1  and  C_2
REMARK    2  A    between atoms: C_2  and  C_4
REMARK    3  A    between atoms: C_7  and  C_8
REMARK    4  A    between atoms: C_11  and  N_12
REMARK    5  A    between atoms: N_12  and  CA_13
REMARK    6  A    between atoms: CA_13  and  CB_14
REMARK    7  A    between atoms: CA_13  and  C_15
REMARK    8  A    between atoms: C_15  and  O_16
REMARK                            x       y       z     vdW  Elec       q    Type
REMARK                         _______ _______ _______ _____ _____    ______ ____
ROOT
ATOM      1  C   UNL     1       5.895   4.520  17.710  0.00  0.00    +0.000 A 
ATOM      2  C   UNL     1       5.466   3.978  18.944  0.00  0.00    +0.000 A 
ATOM      3  C   UNL     1       4.187   3.471  19.112  0.00  0.00    +0.000 A 
ATOM      4  C   UNL     1       3.296   3.517  18.045  0.00  0.00    +0.000 A 
ATOM      5  C   UNL     1       3.711   4.054  16.817  0.00  0.00    +0.000 A 
ATOM      6  C   ACE A   0       5.022   4.530  16.596  0.00  0.00    +0.000 A 
ENDROOT
BRANCH   1   8
ATOM      7  C   UNL     1       7.632   6.370  18.253  0.00  0.00    +0.000 C 
ATOM      8  C   UNL     1       7.307   5.006  17.713  0.00  0.00    +0.000 C 
ATOM      9  O   UNL     1       8.202   4.264  17.308  0.00  0.00    +0.000 OA
ENDBRANCH   1   8
BRANCH   4  10
ATOM     10  C   UNL     1       1.966   3.003  18.186  0.00  0.00    +0.000 C 
ATOM     11  N   UNL     1       0.886   2.600  18.304  0.00  0.00    +0.000 NA
ENDBRANCH   4  10
BRANCH   6  12
ATOM     12  N   UNL     1       5.393   4.938  15.315  0.00  0.00    +0.000 N 
ATOM     13  H   UNL     1       5.524   5.922  15.124  0.00  0.00    +0.000 HD
BRANCH  12  14
ATOM     14  CA  UNL     1       6.084   4.043  14.362  0.00  0.00    +0.000 C 
ATOM     15  CB  UNL     1       5.110   3.603  13.272  0.00  0.00    +0.000 C 
BRANCH  14  16
ATOM     16  C   UNL     1       7.285   4.776  13.732  0.00  0.00    +0.000 C 
BRANCH  16  17
ATOM     17  O   UNL     1       7.891   5.663  14.670  0.00  0.00    +0.000 OA
ATOM     18  H   UNL     1       8.715   5.238  14.972  0.00  0.00    +0.000 HD
ENDBRANCH  16  17
ENDBRANCH  14  16
ENDBRANCH  12  14
ENDBRANCH   6  12
TORSDOF 6
ENDMDL
MODEL 7
REMARK VINA RESULT:      -5.7      1.943      3.582
REMARK  Name = 
REMARK  8 active torsions:
REMARK  status: ('A' for Active; 'I' for Inactive)
REMARK    1  A    between atoms: C_1  and  C_2
REMARK    2  A    between atoms: C_2  and  C_4
REMARK    3  A    between atoms: C_7  and  C_8
REMARK    4  A    between atoms: C_11  and  N_12
REMARK    5  A    between atoms: N_12  and  CA_13
REMARK    6  A    between atoms: CA_13  and  CB_14
REMARK    7  A    between atoms: CA_13  and  C_15
REMARK    8  A    between atoms: C_15  and  O_16
REMARK                            x       y       z     vdW  Elec       q    Type
REMARK                         _______ _______ _______ _____ _____    ______ ____
ROOT
ATOM      1  C   UNL     1       5.555   4.934  16.109  0.00  0.00    +0.000 A 
ATOM      2  C   UNL     1       4.562   3.933  16.221  0.00  0.00    +0.000 A 
ATOM      3  C   UNL     1       3.595   3.974  17.214  0.00  0.00    +0.000 A 
ATOM      4  C   UNL     1       3.616   5.015  18.136  0.00  0.00    +0.000 A 
ATOM      5  C   UNL     1       4.598   6.012  18.035  0.00  0.00    +0.000 A 
ATOM      6  C   ACE A   0       5.565   6.030  17.006  0.00  0.00    +0.000 A 
ENDROOT
BRANCH   1   8
ATOM      7  C   UNL     1       6.081   3.928  13.776  0.00  0.00    +0.000 C 
ATOM      8  C   UNL     1       6.503   4.731  14.973  0.00  0.00    +0.000 C 
ATOM      9  O   UNL     1       7.613   5.261  15.012  0.00  0.00    +0.000 OA
ENDBRANCH   1   8
BRANCH   4  10
ATOM     10  C   UNL     1       2.632   5.086  19.175  0.00  0.00    +0.000 C 
ATOM     11  N   UNL     1       1.829   5.152  20.008  0.00  0.00    +0.000 NA
ENDBRANCH   4  10
BRANCH   6  12
ATOM     12  N   UNL     1       6.433   7.117  16.902  0.00  0.00    +0.000 N 
ATOM     13  H   UNL     1       6.064   8.028  16.670  0.00  0.00    +0.000 HD
BRANCH  12  14
ATOM     14  CA  UNL     1       7.748   7.154  17.576  0.00  0.00    +0.000 C 
ATOM     15  CB  UNL     1       8.096   8.594  17.946  0.00  0.00    +0.000 C 
BRANCH  14  16
ATOM     16  C   UNL     1       7.712   6.278  18.844  0.00  0.00    +0.000 C 
BRANCH  16  17
ATOM     17  O   UNL     1       8.126   4.944  18.554  0.00  0.00    +0.000 OA
ATOM     18  H   UNL     1       7.711   4.695  17.709  0.00  0.00    +0.000 HD
ENDBRANCH  16  17
ENDBRANCH  14  16
ENDBRANCH  12  14
ENDBRANCH   6  12
TORSDOF 6
ENDMDL
MODEL 8
REMARK VINA RESULT:      -5.7      3.288      5.583
REMARK  Name = 
REMARK  8 active torsions:
REMARK  status: ('A' for Active; 'I' for Inactive)
REMARK    1  A    between atoms: C_1  and  C_2
REMARK    2  A    between atoms: C_2  and  C_4
REMARK    3  A    between atoms: C_7  and  C_8
REMARK    4  A    between atoms: C_11  and  N_12
REMARK    5  A    between atoms: N_12  and  CA_13
REMARK    6  A    between atoms: CA_13  and  CB_14
REMARK    7  A    between atoms: CA_13  and  C_15
REMARK    8  A    between atoms: C_15  and  O_16
REMARK                            x       y       z     vdW  Elec       q    Type
REMARK                         _______ _______ _______ _____ _____    ______ ____
ROOT
ATOM      1  C   UNL     1       3.323   5.898  18.118  0.00  0.00    +0.000 A 
ATOM      2  C   UNL     1       4.230   6.715  17.404  0.00  0.00    +0.000 A 
ATOM      3  C   UNL     1       5.031   6.204  16.394  0.00  0.00    +0.000 A 
ATOM      4  C   UNL     1       4.954   4.848  16.091  0.00  0.00    +0.000 A 
ATOM      5  C   UNL     1       4.059   4.029  16.796  0.00  0.00    +0.000 A 
ATOM      6  C   ACE A   0       3.192   4.527  17.793  0.00  0.00    +0.000 A 
ENDROOT
BRANCH   1   8
ATOM      7  C   UNL     1       2.124   8.051  18.933  0.00  0.00    +0.000 C 
ATOM      8  C   UNL     1       2.537   6.624  19.161  0.00  0.00    +0.000 C 
ATOM      9  O   UNL     1       2.200   6.031  20.184  0.00  0.00    +0.000 OA
ENDBRANCH   1   8
BRANCH   4  10
ATOM     10  C   UNL     1       5.768   4.288  15.053  0.00  0.00    +0.000 C 
ATOM     11  N   UNL     1       6.416   3.828  14.210  0.00  0.00    +0.000 NA
ENDBRANCH   4  10
BRANCH   6  12
ATOM     12  N   UNL     1       2.247   3.675  18.364  0.00  0.00    +0.000 N 
ATOM     13  H   UNL     1       1.368   3.518  17.893  0.00  0.00    +0.000 HD
BRANCH  12  14
ATOM     14  CA  UNL     1       2.610   2.614  19.329  0.00  0.00    +0.000 C 
ATOM     15  CB  UNL     1       4.006   2.882  19.886  0.00  0.00    +0.000 C 
BRANCH  14  16
ATOM     16  C   UNL     1       1.582   2.576  20.476  0.00  0.00    +0.000 C 
BRANCH  16  17
ATOM     17  O   UNL     1       0.532   3.515  20.252  0.00  0.00    +0.000 OA
ATOM     18  H   UNL     1       0.949   4.391  20.159  0.00  0.00    +0.000 HD
ENDBRANCH  16  17
ENDBRANCH  14  16
ENDBRANCH  12  14
ENDBRANCH   6  12
TORSDOF 6
ENDMDL
MODEL 9
REMARK VINA RESULT:      -5.7      2.534      4.814
REMARK  Name = 
REMARK  8 active torsions:
REMARK  status: ('A' for Active; 'I' for Inactive)
REMARK    1  A    between atoms: C_1  and  C_2
REMARK    2  A    between atoms: C_2  and  C_4
REMARK    3  A    between atoms: C_7  and  C_8
REMARK    4  A    between atoms: C_11  and  N_12
REMARK    5  A    between atoms: N_12  and  CA_13
REMARK    6  A    between atoms: CA_13  and  CB_14
REMARK    7  A    between atoms: CA_13  and  C_15
REMARK    8  A    between atoms: C_15  and  O_16
REMARK                            x       y       z     vdW  Elec       q    Type
REMARK                         _______ _______ _______ _____ _____    ______ ____
ROOT
ATOM      1  C   UNL     1       6.465   4.901  17.173  0.00  0.00    +0.000 A 
ATOM      2  C   UNL     1       7.388   5.192  16.141  0.00  0.00    +0.000 A 
ATOM      3  C   UNL     1       7.162   4.798  14.831  0.00  0.00    +0.000 A 
ATOM      4  C   UNL     1       6.009   4.081  14.529  0.00  0.00    +0.000 A 
ATOM      5  C   UNL     1       5.089   3.786  15.546  0.00  0.00    +0.000 A 
ATOM      6  C   ACE A   0       5.261   4.216  16.880  0.00  0.00    +0.000 A 
ENDROOT
BRANCH   1   8
ATOM      7  C   UNL     1       7.852   6.544  18.626  0.00  0.00    +0.000 C 
ATOM      8  C   UNL     1       6.870   5.413  18.517  0.00  0.00    +0.000 C 
ATOM      9  O   UNL     1       6.361   4.927  19.526  0.00  0.00    +0.000 OA
ENDBRANCH   1   8
BRANCH   4  10
ATOM     10  C   UNL     1       5.747   3.659  13.185  0.00  0.00    +0.000 C 
ATOM     11  N   UNL     1       5.530   3.330  12.095  0.00  0.00    +0.000 NA
ENDBRANCH   4  10
BRANCH   6  12
ATOM     12  N   UNL     1       4.246   3.987  17.808  0.00  0.00    +0.000 N 
ATOM     13  H   UNL     1       4.057   4.678  18.521  0.00  0.00    +0.000 HD
BRANCH  12  14
ATOM     14  CA  UNL     1       3.115   3.071  17.544  0.00  0.00    +0.000 C 
ATOM     15  CB  UNL     1       3.357   1.739  18.248  0.00  0.00    +0.000 C 
BRANCH  14  16
ATOM     16  C   UNL     1       1.802   3.703  18.045  0.00  0.00    +0.000 C 
BRANCH  16  17
ATOM     17  O   UNL     1       0.810   2.705  18.275  0.00  0.00    +0.000 OA
ATOM     18  H   UNL     1       0.851   2.085  17.524  0.00  0.00    +0.000 HD
ENDBRANCH  16  17
ENDBRANCH  14  16
ENDBRANCH  12  14
ENDBRANCH   6  12
TORSDOF 6
ENDMDL
