MODEL 1
REMARK VINA RESULT:      -8.8      0.000      0.000
REMARK  Name = 
REMARK  3 active torsions:
REMARK  status: ('A' for Active; 'I' for Inactive)
REMARK    1  A    between atoms: C_3  and  C_4
REMARK    2  A    between atoms: C_5  and  C_6
REMARK    3  A    between atoms: C_7  and  C_8
REMARK                            x       y       z     vdW  Elec       q    Type
REMARK                         _______ _______ _______ _____ _____    ______ ____
ROOT
ATOM      1  O   UNL     1       3.562   7.399  18.053  0.00  0.00    +0.000 OA
ATOM      2  C   UNL     1       4.159   6.360  17.790  0.00  0.00    +0.000 A 
ATOM      3  C   UNL     1       5.618   6.338  17.463  0.00  0.00    +0.000 A 
ATOM      4  C   UNL     1       6.172   5.130  17.265  0.00  0.00    +0.000 A 
ATOM      5  O   UNL     1       5.537   3.915  17.270  0.00  0.00    +0.000 OA
ATOM      6  C   UNL     1       4.190   3.904  17.515  0.00  0.00    +0.000 A 
ATOM      7  C   UNL     1       3.556   2.662  17.490  0.00  0.00    +0.000 A 
ATOM      8  C   UNL     1       2.187   2.577  17.744  0.00  0.00    +0.000 A 
ATOM      9  C   UNL     1       1.455   3.733  18.024  0.00  0.00    +0.000 A 
ATOM     10  C   UNL     1       2.088   4.977  18.045  0.00  0.00    +0.000 A 
ATOM     11  C   UNL     1       3.460   5.060  17.785  0.00  0.00    +0.000 A 
ENDROOT
BRANCH   3  12
ATOM     12  C   UNL     1       6.380   7.574  17.451  0.00  0.00    +0.000 C 
ATOM     13  C   UNL     1       7.659   7.683  17.843  0.00  0.00    +0.000 C 
BRANCH  13  14
ATOM     14  C   UNL     1       8.393   8.927  17.846  0.00  0.00    +0.000 C 
ATOM     15  C   UNL     1       8.890   9.464  18.972  0.00  0.00    +0.000 C 
BRANCH  15  16
ATOM     16  C   UNL     1       9.638  10.729  19.029  0.00  0.00    +0.000 A 
ATOM     17  C   UNL     1      10.121  11.365  17.878  0.00  0.00    +0.000 A 
ATOM     18  C   UNL     1      10.827  12.567  17.970  0.00  0.00    +0.000 A 
ATOM     19  C   UNL     1      11.040  13.150  19.216  0.00  0.00    +0.000 A 
ATOM     20 CL   UNL     1      11.924  14.621  19.331  0.00  0.00    +0.000 Cl
ATOM     21  C   UNL     1      10.539  12.550  20.368  0.00  0.00    +0.000 A 
ATOM     22  C   UNL     1       9.834  11.345  20.273  0.00  0.00    +0.000 A 
ENDBRANCH  15  16
ENDBRANCH  13  14
ENDBRANCH   3  12
TORSDOF 3
ENDMDL
MODEL 2
REMARK VINA RESULT:      -8.8      1.455      1.699
REMARK  Name = 
REMARK  3 active torsions:
REMARK  status: ('A' for Active; 'I' for Inactive)
REMARK    1  A    between atoms: C_3  and  C_4
REMARK    2  A    between atoms: C_5  and  C_6
REMARK    3  A    between atoms: C_7  and  C_8
REMARK                            x       y       z     vdW  Elec       q    Type
REMARK                         _______ _______ _______ _____ _____    ______ ____
ROOT
ATOM      1  O   UNL     1       4.477   6.111  16.258  0.00  0.00    +0.000 OA
ATOM      2  C   UNL     1       4.937   5.521  17.231  0.00  0.00    +0.000 A 
ATOM      3  C   UNL     1       6.146   6.011  17.962  0.00  0.00    +0.000 A 
ATOM      4  C   UNL     1       6.509   5.320  19.055  0.00  0.00    +0.000 A 
ATOM      5  O   UNL     1       5.930   4.178  19.545  0.00  0.00    +0.000 OA
ATOM      6  C   UNL     1       4.852   3.672  18.868  0.00  0.00    +0.000 A 
ATOM      7  C   UNL     1       4.292   2.496  19.365  0.00  0.00    +0.000 A 
ATOM      8  C   UNL     1       3.183   1.934  18.732  0.00  0.00    +0.000 A 
ATOM      9  C   UNL     1       2.635   2.550  17.605  0.00  0.00    +0.000 A 
ATOM     10  C   UNL     1       3.198   3.726  17.105  0.00  0.00    +0.000 A 
ATOM     11  C   UNL     1       4.312   4.285  17.739  0.00  0.00    +0.000 A 
ENDROOT
BRANCH   3  12
ATOM     12  C   UNL     1       6.817   7.224  17.528  0.00  0.00    +0.000 C 
ATOM     13  C   UNL     1       7.836   7.804  18.182  0.00  0.00    +0.000 C 
BRANCH  13  14
ATOM     14  C   UNL     1       8.476   9.025  17.748  0.00  0.00    +0.000 C 
ATOM     15  C   UNL     1       8.910   9.954  18.613  0.00  0.00    +0.000 C 
BRANCH  15  16
ATOM     16  C   UNL     1       9.561  11.214  18.222  0.00  0.00    +0.000 A 
ATOM     17  C   UNL     1       8.836  12.391  17.994  0.00  0.00    +0.000 A 
ATOM     18  C   UNL     1       9.489  13.570  17.624  0.00  0.00    +0.000 A 
ATOM     19  C   UNL     1      10.875  13.583  17.496  0.00  0.00    +0.000 A 
ATOM     20 CL   UNL     1      11.676  15.030  17.025  0.00  0.00    +0.000 Cl
ATOM     21  C   UNL     1      11.614  12.432  17.751  0.00  0.00    +0.000 A 
ATOM     22  C   UNL     1      10.959  11.252  18.119  0.00  0.00    +0.000 A 
ENDBRANCH  15  16
ENDBRANCH  13  14
ENDBRANCH   3  12
TORSDOF 3
ENDMDL
MODEL 3
REMARK VINA RESULT:      -8.7      1.058      1.217
REMARK  Name = 
REMARK  3 active torsions:
REMARK  status: ('A' for Active; 'I' for Inactive)
REMARK    1  A    between atoms: C_3  and  C_4
REMARK    2  A    between atoms: C_5  and  C_6
REMARK    3  A    between atoms: C_7  and  C_8
REMARK                            x       y       z     vdW  Elec       q    Type
REMARK                         _______ _______ _______ _____ _____    ______ ____
ROOT
ATOM      1  O   UNL     1       3.572   7.138  17.428  0.00  0.00    +0.000 OA
ATOM      2  C   UNL     1       4.198   6.121  17.710  0.00  0.00    +0.000 A 
ATOM      3  C   UNL     1       5.693   6.082  17.722  0.00  0.00    +0.000 A 
ATOM      4  C   UNL     1       6.262   4.931  18.118  0.00  0.00    +0.000 A 
ATOM      5  O   UNL     1       5.626   3.765  18.457  0.00  0.00    +0.000 OA
ATOM      6  C   UNL     1       4.257   3.750  18.406  0.00  0.00    +0.000 A 
ATOM      7  C   UNL     1       3.628   2.549  18.728  0.00  0.00    +0.000 A 
ATOM      8  C   UNL     1       2.236   2.468  18.711  0.00  0.00    +0.000 A 
ATOM      9  C   UNL     1       1.475   3.589  18.371  0.00  0.00    +0.000 A 
ATOM     10  C   UNL     1       2.105   4.791  18.044  0.00  0.00    +0.000 A 
ATOM     11  C   UNL     1       3.501   4.868  18.059  0.00  0.00    +0.000 A 
ENDROOT
BRANCH   3  12
ATOM     12  C   UNL     1       6.455   7.275  17.395  0.00  0.00    +0.000 C 
ATOM     13  C   UNL     1       7.617   7.617  17.974  0.00  0.00    +0.000 C 
BRANCH  13  14
ATOM     14  C   UNL     1       8.348   8.821  17.651  0.00  0.00    +0.000 C 
ATOM     15  C   UNL     1       8.718   9.708  18.588  0.00  0.00    +0.000 C 
BRANCH  15  16
ATOM     16  C   UNL     1       9.457  10.949  18.311  0.00  0.00    +0.000 A 
ATOM     17  C   UNL     1      10.845  11.046  18.480  0.00  0.00    +0.000 A 
ATOM     18  C   UNL     1      11.515  12.241  18.206  0.00  0.00    +0.000 A 
ATOM     19  C   UNL     1      10.802  13.344  17.745  0.00  0.00    +0.000 A 
ATOM     20 CL   UNL     1      11.624  14.820  17.423  0.00  0.00    +0.000 Cl
ATOM     21  C   UNL     1       9.428  13.256  17.540  0.00  0.00    +0.000 A 
ATOM     22  C   UNL     1       8.759  12.059  17.817  0.00  0.00    +0.000 A 
ENDBRANCH  15  16
ENDBRANCH  13  14
ENDBRANCH   3  12
TORSDOF 3
ENDMDL
MODEL 4
REMARK VINA RESULT:      -8.5      1.583      1.810
REMARK  Name = 
REMARK  3 active torsions:
REMARK  status: ('A' for Active; 'I' for Inactive)
REMARK    1  A    between atoms: C_3  and  C_4
REMARK    2  A    between atoms: C_5  and  C_6
REMARK    3  A    between atoms: C_7  and  C_8
REMARK                            x       y       z     vdW  Elec       q    Type
REMARK                         _______ _______ _______ _____ _____    ______ ____
ROOT
ATOM      1  O   UNL     1       5.101   6.420  16.088  0.00  0.00    +0.000 OA
ATOM      2  C   UNL     1       5.446   5.821  17.102  0.00  0.00    +0.000 A 
ATOM      3  C   UNL     1       6.628   6.244  17.914  0.00  0.00    +0.000 A 
ATOM      4  C   UNL     1       6.860   5.553  19.043  0.00  0.00    +0.000 A 
ATOM      5  O   UNL     1       6.170   4.462  19.505  0.00  0.00    +0.000 OA
ATOM      6  C   UNL     1       5.113   4.017  18.757  0.00  0.00    +0.000 A 
ATOM      7  C   UNL     1       4.438   2.891  19.228  0.00  0.00    +0.000 A 
ATOM      8  C   UNL     1       3.343   2.392  18.523  0.00  0.00    +0.000 A 
ATOM      9  C   UNL     1       2.924   3.020  17.348  0.00  0.00    +0.000 A 
ATOM     10  C   UNL     1       3.602   4.145  16.873  0.00  0.00    +0.000 A 
ATOM     11  C   UNL     1       4.701   4.640  17.580  0.00  0.00    +0.000 A 
ENDROOT
BRANCH   3  12
ATOM     12  C   UNL     1       7.411   7.399  17.514  0.00  0.00    +0.000 C 
ATOM     13  C   UNL     1       8.130   8.159  18.355  0.00  0.00    +0.000 C 
BRANCH  13  14
ATOM     14  C   UNL     1       8.884   9.320  17.941  0.00  0.00    +0.000 C 
ATOM     15  C   UNL     1       8.763  10.509  18.552  0.00  0.00    +0.000 C 
BRANCH  15  16
ATOM     16  C   UNL     1       9.503  11.720  18.165  0.00  0.00    +0.000 A 
ATOM     17  C   UNL     1      10.804  11.669  17.645  0.00  0.00    +0.000 A 
ATOM     18  C   UNL     1      11.475  12.841  17.288  0.00  0.00    +0.000 A 
ATOM     19  C   UNL     1      10.843  14.072  17.432  0.00  0.00    +0.000 A 
ATOM     20 CL   UNL     1      11.677  15.516  17.008  0.00  0.00    +0.000 Cl
ATOM     21  C   UNL     1       9.540  14.140  17.916  0.00  0.00    +0.000 A 
ATOM     22  C   UNL     1       8.870  12.966  18.275  0.00  0.00    +0.000 A 
ENDBRANCH  15  16
ENDBRANCH  13  14
ENDBRANCH   3  12
TORSDOF 3
ENDMDL
MODEL 5
REMARK VINA RESULT:      -8.2      1.036      1.148
REMARK  Name = 
REMARK  3 active torsions:
REMARK  status: ('A' for Active; 'I' for Inactive)
REMARK    1  A    between atoms: C_3  and  C_4
REMARK    2  A    between atoms: C_5  and  C_6
REMARK    3  A    between atoms: C_7  and  C_8
REMARK                            x       y       z     vdW  Elec       q    Type
REMARK                         _______ _______ _______ _____ _____    ______ ____
ROOT
ATOM      1  O   UNL     1       3.679   7.145  18.283  0.00  0.00    +0.000 OA
ATOM      2  C   UNL     1       4.094   6.063  17.881  0.00  0.00    +0.000 A 
ATOM      3  C   UNL     1       5.414   5.921  17.193  0.00  0.00    +0.000 A 
ATOM      4  C   UNL     1       5.791   4.674  16.866  0.00  0.00    +0.000 A 
ATOM      5  O   UNL     1       5.074   3.518  17.039  0.00  0.00    +0.000 OA
ATOM      6  C   UNL     1       3.838   3.619  17.620  0.00  0.00    +0.000 A 
ATOM      7  C   UNL     1       3.112   2.437  17.764  0.00  0.00    +0.000 A 
ATOM      8  C   UNL     1       1.852   2.466  18.360  0.00  0.00    +0.000 A 
ATOM      9  C   UNL     1       1.319   3.676  18.812  0.00  0.00    +0.000 A 
ATOM     10  C   UNL     1       2.044   4.860  18.664  0.00  0.00    +0.000 A 
ATOM     11  C   UNL     1       3.306   4.829  18.062  0.00  0.00    +0.000 A 
ENDROOT
BRANCH   3  12
ATOM     12  C   UNL     1       6.253   7.088  16.980  0.00  0.00    +0.000 C 
ATOM     13  C   UNL     1       7.395   7.333  17.643  0.00  0.00    +0.000 C 
BRANCH  13  14
ATOM     14  C   UNL     1       8.205   8.512  17.434  0.00  0.00    +0.000 C 
ATOM     15  C   UNL     1       8.209   9.540  18.296  0.00  0.00    +0.000 C 
BRANCH  15  16
ATOM     16  C   UNL     1       9.009  10.763  18.126  0.00  0.00    +0.000 A 
ATOM     17  C   UNL     1       8.426  12.007  17.855  0.00  0.00    +0.000 A 
ATOM     18  C   UNL     1       9.218  13.148  17.701  0.00  0.00    +0.000 A 
ATOM     19  C   UNL     1      10.600  13.054  17.834  0.00  0.00    +0.000 A 
ATOM     20 CL   UNL     1      11.576  14.455  17.628  0.00  0.00    +0.000 Cl
ATOM     21  C   UNL     1      11.195  11.832  18.137  0.00  0.00    +0.000 A 
ATOM     22  C   UNL     1      10.400  10.691  18.289  0.00  0.00    +0.000 A 
ENDBRANCH  15  16
ENDBRANCH  13  14
ENDBRANCH   3  12
TORSDOF 3
ENDMDL
MODEL 6
REMARK VINA RESULT:      -8.2      1.194      1.908
REMARK  Name = 
REMARK  3 active torsions:
REMARK  status: ('A' for Active; 'I' for Inactive)
REMARK    1  A    between atoms: C_3  and  C_4
REMARK    2  A    between atoms: C_5  and  C_6
REMARK    3  A    between atoms: C_7  and  C_8
REMARK                            x       y       z     vdW  Elec       q    Type
REMARK                         _______ _______ _______ _____ _____    ______ ____
ROOT
ATOM      1  O   UNL     1       6.333   5.364  19.791  0.00  0.00    +0.000 OA
ATOM      2  C   UNL     1       5.633   5.237  18.791  0.00  0.00    +0.000 A 
ATOM      3  C   UNL     1       5.582   6.275  17.716  0.00  0.00    +0.000 A 
ATOM      4  C   UNL     1       4.836   5.987  16.637  0.00  0.00    +0.000 A 
ATOM      5  O   UNL     1       4.065   4.871  16.435  0.00  0.00    +0.000 OA
ATOM      6  C   UNL     1       4.047   3.924  17.424  0.00  0.00    +0.000 A 
ATOM      7  C   UNL     1       3.237   2.809  17.213  0.00  0.00    +0.000 A 
ATOM      8  C   UNL     1       3.183   1.799  18.173  0.00  0.00    +0.000 A 
ATOM      9  C   UNL     1       3.940   1.905  19.343  0.00  0.00    +0.000 A 
ATOM     10  C   UNL     1       4.748   3.024  19.556  0.00  0.00    +0.000 A 
ATOM     11  C   UNL     1       4.797   4.037  18.593  0.00  0.00    +0.000 A 
ENDROOT
BRANCH   3  12
ATOM     12  C   UNL     1       6.380   7.483  17.833  0.00  0.00    +0.000 C 
ATOM     13  C   UNL     1       7.686   7.564  17.532  0.00  0.00    +0.000 C 
BRANCH  13  14
ATOM     14  C   UNL     1       8.468   8.770  17.677  0.00  0.00    +0.000 C 
ATOM     15  C   UNL     1       8.711   9.327  18.874  0.00  0.00    +0.000 C 
BRANCH  15  16
ATOM     16  C   UNL     1       9.495  10.556  19.074  0.00  0.00    +0.000 A 
ATOM     17  C   UNL     1       9.842  11.023  20.349  0.00  0.00    +0.000 A 
ATOM     18  C   UNL     1      10.589  12.194  20.501  0.00  0.00    +0.000 A 
ATOM     19  C   UNL     1      11.009  12.897  19.376  0.00  0.00    +0.000 A 
ATOM     20 CL   UNL     1      11.914  14.348  19.564  0.00  0.00    +0.000 Cl
ATOM     21  C   UNL     1      10.702  12.431  18.101  0.00  0.00    +0.000 A 
ATOM     22  C   UNL     1       9.953  11.259  17.951  0.00  0.00    +0.000 A 
ENDBRANCH  15  16
ENDBRANCH  13  14
ENDBRANCH   3  12
TORSDOF 3
ENDMDL
MODEL 7
REMARK VINA RESULT:      -8.2      0.667      1.218
REMARK  Name = 
REMARK  3 active torsions:
REMARK  status: ('A' for Active; 'I' for Inactive)
REMARK    1  A    between atoms: C_3  and  C_4
REMARK    2  A    between atoms: C_5  and  C_6
REMARK    3  A    between atoms: C_7  and  C_8
REMARK                            x       y       z     vdW  Elec       q    Type
REMARK                         _______ _______ _______ _____ _____    ______ ____
ROOT
ATOM      1  O   UNL     1       3.404   6.940  19.074  0.00  0.00    +0.000 OA
ATOM      2  C   UNL     1       3.882   5.989  18.464  0.00  0.00    +0.000 A 
ATOM      3  C   UNL     1       5.209   6.066  17.780  0.00  0.00    +0.000 A 
ATOM      4  C   UNL     1       5.658   4.936  17.208  0.00  0.00    +0.000 A 
ATOM      5  O   UNL     1       5.008   3.732  17.129  0.00  0.00    +0.000 OA
ATOM      6  C   UNL     1       3.766   3.642  17.699  0.00  0.00    +0.000 A 
ATOM      7  C   UNL     1       3.109   2.417  17.586  0.00  0.00    +0.000 A 
ATOM      8  C   UNL     1       1.847   2.252  18.157  0.00  0.00    +0.000 A 
ATOM      9  C   UNL     1       1.245   3.311  18.841  0.00  0.00    +0.000 A 
ATOM     10  C   UNL     1       1.902   4.538  18.951  0.00  0.00    +0.000 A 
ATOM     11  C   UNL     1       3.165   4.702  18.374  0.00  0.00    +0.000 A 
ENDROOT
BRANCH   3  12
ATOM     12  C   UNL     1       5.981   7.296  17.825  0.00  0.00    +0.000 C 
ATOM     13  C   UNL     1       7.297   7.377  17.574  0.00  0.00    +0.000 C 
BRANCH  13  14
ATOM     14  C   UNL     1       8.053   8.607  17.647  0.00  0.00    +0.000 C 
ATOM     15  C   UNL     1       8.596   9.047  18.793  0.00  0.00    +0.000 C 
BRANCH  15  16
ATOM     16  C   UNL     1       9.368  10.292  18.921  0.00  0.00    +0.000 A 
ATOM     17  C   UNL     1       9.820  10.768  20.159  0.00  0.00    +0.000 A 
ATOM     18  C   UNL     1      10.552  11.956  20.242  0.00  0.00    +0.000 A 
ATOM     19  C   UNL     1      10.850  12.668  19.084  0.00  0.00    +0.000 A 
ATOM     20 CL   UNL     1      11.736  14.138  19.189  0.00  0.00    +0.000 Cl
ATOM     21  C   UNL     1      10.438  12.193  17.842  0.00  0.00    +0.000 A 
ATOM     22  C   UNL     1       9.704  11.005  17.761  0.00  0.00    +0.000 A 
ENDBRANCH  15  16
ENDBRANCH  13  14
ENDBRANCH   3  12
TORSDOF 3
ENDMDL
MODEL 8
REMARK VINA RESULT:      -7.8      1.154      1.228
REMARK  Name = 
REMARK  3 active torsions:
REMARK  status: ('A' for Active; 'I' for Inactive)
REMARK    1  A    between atoms: C_3  and  C_4
REMARK    2  A    between atoms: C_5  and  C_6
REMARK    3  A    between atoms: C_7  and  C_8
REMARK                            x       y       z     vdW  Elec       q    Type
REMARK                         _______ _______ _______ _____ _____    ______ ____
ROOT
ATOM      1  O   UNL     1       4.481   7.807  17.850  0.00  0.00    +0.000 OA
ATOM      2  C   UNL     1       4.957   6.707  17.591  0.00  0.00    +0.000 A 
ATOM      3  C   UNL     1       6.415   6.512  17.322  0.00  0.00    +0.000 A 
ATOM      4  C   UNL     1       6.827   5.249  17.123  0.00  0.00    +0.000 A 
ATOM      5  O   UNL     1       6.049   4.121  17.077  0.00  0.00    +0.000 OA
ATOM      6  C   UNL     1       4.701   4.271  17.267  0.00  0.00    +0.000 A 
ATOM      7  C   UNL     1       3.923   3.116  17.192  0.00  0.00    +0.000 A 
ATOM      8  C   UNL     1       2.544   3.195  17.389  0.00  0.00    +0.000 A 
ATOM      9  C   UNL     1       1.947   4.427  17.663  0.00  0.00    +0.000 A 
ATOM     10  C   UNL     1       2.725   5.584  17.734  0.00  0.00    +0.000 A 
ATOM     11  C   UNL     1       4.106   5.503  17.531  0.00  0.00    +0.000 A 
ENDROOT
BRANCH   3  12
ATOM     12  C   UNL     1       7.321   7.647  17.366  0.00  0.00    +0.000 C 
ATOM     13  C   UNL     1       8.022   8.018  18.449  0.00  0.00    +0.000 C 
BRANCH  13  14
ATOM     14  C   UNL     1       8.901   9.164  18.480  0.00  0.00    +0.000 C 
ATOM     15  C   UNL     1       8.557  10.347  17.947  0.00  0.00    +0.000 C 
BRANCH  15  16
ATOM     16  C   UNL     1       9.416  11.540  17.947  0.00  0.00    +0.000 A 
ATOM     17  C   UNL     1      10.774  11.484  17.603  0.00  0.00    +0.000 A 
ATOM     18  C   UNL     1      11.560  12.639  17.613  0.00  0.00    +0.000 A 
ATOM     19  C   UNL     1      10.989  13.863  17.952  0.00  0.00    +0.000 A 
ATOM     20 CL   UNL     1      11.961  15.281  17.981  0.00  0.00    +0.000 Cl
ATOM     21  C   UNL     1       9.635  13.943  18.265  0.00  0.00    +0.000 A 
ATOM     22  C   UNL     1       8.850  12.785  18.256  0.00  0.00    +0.000 A 
ENDBRANCH  15  16
ENDBRANCH  13  14
ENDBRANCH   3  12
TORSDOF 3
ENDMDL
MODEL 9
REMARK VINA RESULT:      -7.8      4.299      9.915
REMARK  Name = 
REMARK  3 active torsions:
REMARK  status: ('A' for Active; 'I' for Inactive)
REMARK    1  A    between atoms: C_3  and  C_4
REMARK    2  A    between atoms: C_5  and  C_6
REMARK    3  A    between atoms: C_7  and  C_8
REMARK                            x       y       z     vdW  Elec       q    Type
REMARK                         _______ _______ _______ _____ _____    ______ ____
ROOT
ATOM      1  O   UNL     1       8.148  12.691  17.324  0.00  0.00    +0.000 OA
ATOM      2  C   UNL     1       9.120  12.387  18.008  0.00  0.00    +0.000 A 
ATOM      3  C   UNL     1       9.277  11.028  18.612  0.00  0.00    +0.000 A 
ATOM      4  C   UNL     1      10.421  10.794  19.278  0.00  0.00    +0.000 A 
ATOM      5  O   UNL     1      11.437  11.682  19.518  0.00  0.00    +0.000 OA
ATOM      6  C   UNL     1      11.302  12.952  19.023  0.00  0.00    +0.000 A 
ATOM      7  C   UNL     1      12.333  13.849  19.299  0.00  0.00    +0.000 A 
ATOM      8  C   UNL     1      12.266  15.155  18.813  0.00  0.00    +0.000 A 
ATOM      9  C   UNL     1      11.168  15.561  18.052  0.00  0.00    +0.000 A 
ATOM     10  C   UNL     1      10.133  14.664  17.778  0.00  0.00    +0.000 A 
ATOM     11  C   UNL     1      10.201  13.357  18.270  0.00  0.00    +0.000 A 
ENDROOT
BRANCH   3  12
ATOM     12  C   UNL     1       8.260  10.014  18.397  0.00  0.00    +0.000 C 
ATOM     13  C   UNL     1       8.491   8.811  17.849  0.00  0.00    +0.000 C 
BRANCH  13  14
ATOM     14  C   UNL     1       7.460   7.823  17.621  0.00  0.00    +0.000 C 
ATOM     15  C   UNL     1       7.457   6.635  18.245  0.00  0.00    +0.000 C 
BRANCH  15  16
ATOM     16  C   UNL     1       6.436   5.595  18.044  0.00  0.00    +0.000 A 
ATOM     17  C   UNL     1       6.193   5.017  16.790  0.00  0.00    +0.000 A 
ATOM     18  C   UNL     1       5.216   4.030  16.637  0.00  0.00    +0.000 A 
ATOM     19  C   UNL     1       4.485   3.603  17.742  0.00  0.00    +0.000 A 
ATOM     20 CL   UNL     1       3.270   2.400  17.550  0.00  0.00    +0.000 Cl
ATOM     21  C   UNL     1       4.735   4.142  19.001  0.00  0.00    +0.000 A 
ATOM     22  C   UNL     1       5.712   5.131  19.152  0.00  0.00    +0.000 A 
ENDBRANCH  15  16
ENDBRANCH  13  14
ENDBRANCH   3  12
TORSDOF 3
ENDMDL
