MODEL 1
REMARK VINA RESULT:      -7.6      0.000      0.000
REMARK  Name = 
REMARK  15 active torsions:
REMARK  status: ('A' for Active; 'I' for Inactive)
REMARK    1  A    between atoms: C_1  and  C_2
REMARK    2  A    between atoms: C_2  and  O_3
REMARK    3  A    between atoms: O_3  and  C_4
REMARK    4  A    between atoms: C_4  and  C_6
REMARK    5  A    between atoms: C_6  and  C_7
REMARK    6  A    between atoms: C_6  and  N_19
REMARK    7  A    between atoms: C_6  and  C_24
REMARK    8  A    between atoms: C_7  and  C_8
REMARK    9  A    between atoms: C_8  and  C_10
REMARK   10  A    between atoms: C_14  and  N_15
REMARK   11  A    between atoms: C_20  and  C_22
REMARK   12  A    between atoms: C_22  and  C_23
REMARK   13  A    between atoms: C_24  and  O_26
REMARK   14  A    between atoms: O_26  and  C_27
REMARK   15  A    between atoms: C_27  and  C_28
REMARK                            x       y       z     vdW  Elec       q    Type
REMARK                         _______ _______ _______ _____ _____    ______ ____
ROOT
ATOM      1  C   UNL     1       4.870   5.387  17.304  0.00  0.00    +0.000 C 
ENDROOT
BRANCH   1   2
ATOM      2  N   UNL     1       5.891   6.287  17.937  0.00  0.00    +0.000 N 
ATOM      3  C   UNL     1       7.241   6.118  17.758  0.00  0.00    +0.000 C 
ATOM      4  O   UNL     1       7.705   5.236  17.042  0.00  0.00    +0.000 OA
ATOM      5  H   UNL     1       5.556   6.955  18.626  0.00  0.00    +0.000 HD
BRANCH   3   6
ATOM      6  C   UNL     1       8.101   7.103  18.524  0.00  0.00    +0.000 C 
ATOM      7  C   UNL     1       8.051   8.486  17.894  0.00  0.00    +0.000 C 
ENDBRANCH   3   6
ENDBRANCH   1   2
BRANCH   1   8
ATOM      8  C   UNL     1       5.030   3.991  17.938  0.00  0.00    +0.000 C 
ATOM      9  O   UNL     1       5.821   3.726  18.839  0.00  0.00    +0.000 OA
BRANCH   8  10
ATOM     10  O   UNL     1       4.117   3.108  17.436  0.00  0.00    +0.000 OA
BRANCH  10  12
ATOM     11  C   UNL     1       2.182   2.492  18.780  0.00  0.00    +0.000 C 
ATOM     12  C   UNL     1       3.588   2.134  18.341  0.00  0.00    +0.000 C 
ENDBRANCH  10  12
ENDBRANCH   8  10
ENDBRANCH   1   8
BRANCH   1  13
ATOM     13  C   UNL     1       5.266   5.368  15.812  0.00  0.00    +0.000 C 
ATOM     14  O   UNL     1       5.267   6.384  15.118  0.00  0.00    +0.000 OA
BRANCH  13  15
ATOM     15  O   UNL     1       5.544   4.126  15.342  0.00  0.00    +0.000 OA
BRANCH  15  16
ATOM     16  C   UNL     1       6.429   4.021  14.217  0.00  0.00    +0.000 C 
ATOM     17  C   UNL     1       5.670   3.612  12.966  0.00  0.00    +0.000 C 
ENDBRANCH  15  16
ENDBRANCH  13  15
ENDBRANCH   1  13
BRANCH   1  18
ATOM     18  C   UNL     1       3.458   6.007  17.412  0.00  0.00    +0.000 C 
BRANCH  18  19
ATOM     19  C   UNL     1       3.067   6.404  18.824  0.00  0.00    +0.000 C 
ATOM     20  O   UNL     1       3.386   5.743  19.809  0.00  0.00    +0.000 OA
BRANCH  19  21
ATOM     21  C   UNL     1       2.255   7.638  19.041  0.00  0.00    +0.000 A 
ATOM     22  C   UNL     1       2.094   8.514  17.954  0.00  0.00    +0.000 A 
ATOM     23  C   UNL     1       1.366   9.698  18.089  0.00  0.00    +0.000 A 
ATOM     24  C   UNL     1       0.792  10.023  19.315  0.00  0.00    +0.000 A 
ATOM     25  C   UNL     1       0.946   9.151  20.401  0.00  0.00    +0.000 A 
ATOM     26  C   UNL     1       1.670   7.954  20.271  0.00  0.00    +0.000 A 
BRANCH  25  27
ATOM     27  N   UNL     1       0.353   9.503  21.698  0.00  0.00    +0.000 N 
ATOM     28  O   UNL     1       0.785  10.510  22.275  0.00  0.00    +0.000 OA
ATOM     29  O   UNL     1      -0.538   8.764  22.139  0.00  0.00    +0.000 OA
ENDBRANCH  25  27
ENDBRANCH  19  21
ENDBRANCH  18  19
ENDBRANCH   1  18
TORSDOF 12
ENDMDL
MODEL 2
REMARK VINA RESULT:      -7.5      1.115      3.709
REMARK  Name = 
REMARK  15 active torsions:
REMARK  status: ('A' for Active; 'I' for Inactive)
REMARK    1  A    between atoms: C_1  and  C_2
REMARK    2  A    between atoms: C_2  and  O_3
REMARK    3  A    between atoms: O_3  and  C_4
REMARK    4  A    between atoms: C_4  and  C_6
REMARK    5  A    between atoms: C_6  and  C_7
REMARK    6  A    between atoms: C_6  and  N_19
REMARK    7  A    between atoms: C_6  and  C_24
REMARK    8  A    between atoms: C_7  and  C_8
REMARK    9  A    between atoms: C_8  and  C_10
REMARK   10  A    between atoms: C_14  and  N_15
REMARK   11  A    between atoms: C_20  and  C_22
REMARK   12  A    between atoms: C_22  and  C_23
REMARK   13  A    between atoms: C_24  and  O_26
REMARK   14  A    between atoms: O_26  and  C_27
REMARK   15  A    between atoms: C_27  and  C_28
REMARK                            x       y       z     vdW  Elec       q    Type
REMARK                         _______ _______ _______ _____ _____    ______ ____
ROOT
ATOM      1  C   UNL     1       4.966   4.467  17.591  0.00  0.00    +0.000 C 
ENDROOT
BRANCH   1   2
ATOM      2  N   UNL     1       5.207   3.918  16.215  0.00  0.00    +0.000 N 
ATOM      3  C   UNL     1       5.533   4.714  15.145  0.00  0.00    +0.000 C 
ATOM      4  O   UNL     1       5.680   5.928  15.249  0.00  0.00    +0.000 OA
ATOM      5  H   UNL     1       4.984   2.938  16.061  0.00  0.00    +0.000 HD
BRANCH   3   6
ATOM      6  C   UNL     1       5.685   3.969  13.835  0.00  0.00    +0.000 C 
ATOM      7  C   UNL     1       6.992   4.326  13.145  0.00  0.00    +0.000 C 
ENDBRANCH   3   6
ENDBRANCH   1   2
BRANCH   1   8
ATOM      8  C   UNL     1       6.333   4.892  18.163  0.00  0.00    +0.000 C 
ATOM      9  O   UNL     1       7.300   4.143  18.276  0.00  0.00    +0.000 OA
BRANCH   8  10
ATOM     10  O   UNL     1       6.361   6.228  18.443  0.00  0.00    +0.000 OA
BRANCH  10  12
ATOM     11  C   UNL     1       7.689   8.036  17.493  0.00  0.00    +0.000 C 
ATOM     12  C   UNL     1       7.644   6.864  18.454  0.00  0.00    +0.000 C 
ENDBRANCH  10  12
ENDBRANCH   8  10
ENDBRANCH   1   8
BRANCH   1  13
ATOM     13  C   UNL     1       4.385   3.268  18.371  0.00  0.00    +0.000 C 
ATOM     14  O   UNL     1       4.890   2.852  19.414  0.00  0.00    +0.000 OA
BRANCH  13  15
ATOM     15  O   UNL     1       3.318   2.692  17.762  0.00  0.00    +0.000 OA
BRANCH  15  16
ATOM     16  C   UNL     1       2.277   2.164  18.597  0.00  0.00    +0.000 C 
ATOM     17  C   UNL     1       1.093   3.113  18.651  0.00  0.00    +0.000 C 
ENDBRANCH  15  16
ENDBRANCH  13  15
ENDBRANCH   1  13
BRANCH   1  18
ATOM     18  C   UNL     1       3.889   5.574  17.553  0.00  0.00    +0.000 C 
BRANCH  18  19
ATOM     19  C   UNL     1       3.370   5.976  18.923  0.00  0.00    +0.000 C 
ATOM     20  O   UNL     1       3.580   5.306  19.931  0.00  0.00    +0.000 OA
BRANCH  19  21
ATOM     21  C   UNL     1       2.567   7.225  19.066  0.00  0.00    +0.000 A 
ATOM     22  C   UNL     1       2.388   8.023  17.923  0.00  0.00    +0.000 A 
ATOM     23  C   UNL     1       1.667   9.216  17.986  0.00  0.00    +0.000 A 
ATOM     24  C   UNL     1       1.116   9.630  19.196  0.00  0.00    +0.000 A 
ATOM     25  C   UNL     1       1.288   8.837  20.339  0.00  0.00    +0.000 A 
ATOM     26  C   UNL     1       2.006   7.631  20.281  0.00  0.00    +0.000 A 
BRANCH  25  27
ATOM     27  N   UNL     1       0.720   9.283  21.618  0.00  0.00    +0.000 N 
ATOM     28  O   UNL     1       1.489   9.391  22.583  0.00  0.00    +0.000 OA
ATOM     29  O   UNL     1      -0.496   9.516  21.654  0.00  0.00    +0.000 OA
ENDBRANCH  25  27
ENDBRANCH  19  21
ENDBRANCH  18  19
ENDBRANCH   1  18
TORSDOF 12
ENDMDL
MODEL 3
REMARK VINA RESULT:      -7.4      2.452      7.080
REMARK  Name = 
REMARK  15 active torsions:
REMARK  status: ('A' for Active; 'I' for Inactive)
REMARK    1  A    between atoms: C_1  and  C_2
REMARK    2  A    between atoms: C_2  and  O_3
REMARK    3  A    between atoms: O_3  and  C_4
REMARK    4  A    between atoms: C_4  and  C_6
REMARK    5  A    between atoms: C_6  and  C_7
REMARK    6  A    between atoms: C_6  and  N_19
REMARK    7  A    between atoms: C_6  and  C_24
REMARK    8  A    between atoms: C_7  and  C_8
REMARK    9  A    between atoms: C_8  and  C_10
REMARK   10  A    between atoms: C_14  and  N_15
REMARK   11  A    between atoms: C_20  and  C_22
REMARK   12  A    between atoms: C_22  and  C_23
REMARK   13  A    between atoms: C_24  and  O_26
REMARK   14  A    between atoms: O_26  and  C_27
REMARK   15  A    between atoms: C_27  and  C_28
REMARK                            x       y       z     vdW  Elec       q    Type
REMARK                         _______ _______ _______ _____ _____    ______ ____
ROOT
ATOM      1  C   UNL     1       4.659   4.924  18.134  0.00  0.00    +0.000 C 
ENDROOT
BRANCH   1   2
ATOM      2  N   UNL     1       4.127   6.290  18.458  0.00  0.00    +0.000 N 
ATOM      3  C   UNL     1       2.833   6.663  18.194  0.00  0.00    +0.000 C 
ATOM      4  O   UNL     1       2.013   5.894  17.704  0.00  0.00    +0.000 OA
ATOM      5  H   UNL     1       4.801   6.991  18.756  0.00  0.00    +0.000 HD
BRANCH   3   6
ATOM      6  C   UNL     1       2.512   8.100  18.551  0.00  0.00    +0.000 C 
ATOM      7  C   UNL     1       1.479   8.688  17.601  0.00  0.00    +0.000 C 
ENDBRANCH   3   6
ENDBRANCH   1   2
BRANCH   1   8
ATOM      8  C   UNL     1       3.999   3.930  19.109  0.00  0.00    +0.000 C 
ATOM      9  O   UNL     1       3.884   2.726  18.898  0.00  0.00    +0.000 OA
BRANCH   8  10
ATOM     10  O   UNL     1       3.641   4.541  20.278  0.00  0.00    +0.000 OA
BRANCH  10  12
ATOM     11  C   UNL     1       2.256   3.130  21.701  0.00  0.00    +0.000 C 
ATOM     12  C   UNL     1       2.310   4.311  20.751  0.00  0.00    +0.000 C 
ENDBRANCH  10  12
ENDBRANCH   8  10
ENDBRANCH   1   8
BRANCH   1  13
ATOM     13  C   UNL     1       6.175   5.044  18.404  0.00  0.00    +0.000 C 
ATOM     14  O   UNL     1       6.926   4.069  18.390  0.00  0.00    +0.000 OA
BRANCH  13  15
ATOM     15  O   UNL     1       6.571   6.304  18.715  0.00  0.00    +0.000 OA
BRANCH  15  16
ATOM     16  C   UNL     1       7.895   6.702  18.330  0.00  0.00    +0.000 C 
ATOM     17  C   UNL     1       7.911   8.145  17.857  0.00  0.00    +0.000 C 
ENDBRANCH  15  16
ENDBRANCH  13  15
ENDBRANCH   1  13
BRANCH   1  18
ATOM     18  C   UNL     1       4.469   4.608  16.634  0.00  0.00    +0.000 C 
BRANCH  18  19
ATOM     19  C   UNL     1       5.268   5.510  15.708  0.00  0.00    +0.000 C 
ATOM     20  O   UNL     1       5.420   6.709  15.924  0.00  0.00    +0.000 OA
BRANCH  19  21
ATOM     21  C   UNL     1       5.891   4.933  14.481  0.00  0.00    +0.000 A 
ATOM     22  C   UNL     1       7.187   5.360  14.143  0.00  0.00    +0.000 A 
ATOM     23  C   UNL     1       7.825   4.880  12.998  0.00  0.00    +0.000 A 
ATOM     24  C   UNL     1       7.173   3.968  12.172  0.00  0.00    +0.000 A 
ATOM     25  C   UNL     1       5.882   3.536  12.506  0.00  0.00    +0.000 A 
ATOM     26  C   UNL     1       5.237   4.008  13.661  0.00  0.00    +0.000 A 
BRANCH  25  27
ATOM     27  N   UNL     1       5.189   2.586  11.625  0.00  0.00    +0.000 N 
ATOM     28  O   UNL     1       4.059   2.893  11.222  0.00  0.00    +0.000 OA
ATOM     29  O   UNL     1       5.776   1.531  11.347  0.00  0.00    +0.000 OA
ENDBRANCH  25  27
ENDBRANCH  19  21
ENDBRANCH  18  19
ENDBRANCH   1  18
TORSDOF 12
ENDMDL
MODEL 4
REMARK VINA RESULT:      -7.4      1.679      4.208
REMARK  Name = 
REMARK  15 active torsions:
REMARK  status: ('A' for Active; 'I' for Inactive)
REMARK    1  A    between atoms: C_1  and  C_2
REMARK    2  A    between atoms: C_2  and  O_3
REMARK    3  A    between atoms: O_3  and  C_4
REMARK    4  A    between atoms: C_4  and  C_6
REMARK    5  A    between atoms: C_6  and  C_7
REMARK    6  A    between atoms: C_6  and  N_19
REMARK    7  A    between atoms: C_6  and  C_24
REMARK    8  A    between atoms: C_7  and  C_8
REMARK    9  A    between atoms: C_8  and  C_10
REMARK   10  A    between atoms: C_14  and  N_15
REMARK   11  A    between atoms: C_20  and  C_22
REMARK   12  A    between atoms: C_22  and  C_23
REMARK   13  A    between atoms: C_24  and  O_26
REMARK   14  A    between atoms: O_26  and  C_27
REMARK   15  A    between atoms: C_27  and  C_28
REMARK                            x       y       z     vdW  Elec       q    Type
REMARK                         _______ _______ _______ _____ _____    ______ ____
ROOT
ATOM      1  C   UNL     1       5.654   5.336  17.788  0.00  0.00    +0.000 C 
ENDROOT
BRANCH   1   2
ATOM      2  N   UNL     1       5.472   4.507  16.550  0.00  0.00    +0.000 N 
ATOM      3  C   UNL     1       5.481   5.047  15.288  0.00  0.00    +0.000 C 
ATOM      4  O   UNL     1       5.670   6.242  15.085  0.00  0.00    +0.000 OA
ATOM      5  H   UNL     1       5.198   3.536  16.679  0.00  0.00    +0.000 HD
BRANCH   3   6
ATOM      6  C   UNL     1       5.229   4.047  14.179  0.00  0.00    +0.000 C 
ATOM      7  C   UNL     1       6.442   3.911  13.272  0.00  0.00    +0.000 C 
ENDBRANCH   3   6
ENDBRANCH   1   2
BRANCH   1   8
ATOM      8  C   UNL     1       7.167   5.575  17.963  0.00  0.00    +0.000 C 
ATOM      9  O   UNL     1       7.955   4.740  18.399  0.00  0.00    +0.000 OA
BRANCH   8  10
ATOM     10  O   UNL     1       7.535   6.801  17.487  0.00  0.00    +0.000 OA
BRANCH  10  12
ATOM     11  C   UNL     1       8.148   9.118  17.920  0.00  0.00    +0.000 C 
ATOM     12  C   UNL     1       8.199   7.681  18.400  0.00  0.00    +0.000 C 
ENDBRANCH  10  12
ENDBRANCH   8  10
ENDBRANCH   1   8
BRANCH   1  13
ATOM     13  C   UNL     1       5.099   4.441  18.918  0.00  0.00    +0.000 C 
ATOM     14  O   UNL     1       5.078   4.802  20.094  0.00  0.00    +0.000 OA
BRANCH  13  15
ATOM     15  O   UNL     1       4.704   3.215  18.492  0.00  0.00    +0.000 OA
BRANCH  15  16
ATOM     16  C   UNL     1       4.096   2.338  19.452  0.00  0.00    +0.000 C 
ATOM     17  C   UNL     1       2.585   2.330  19.298  0.00  0.00    +0.000 C 
ENDBRANCH  15  16
ENDBRANCH  13  15
ENDBRANCH   1  13
BRANCH   1  18
ATOM     18  C   UNL     1       4.784   6.611  17.722  0.00  0.00    +0.000 C 
BRANCH  18  19
ATOM     19  C   UNL     1       3.301   6.355  17.931  0.00  0.00    +0.000 C 
ATOM     20  O   UNL     1       2.720   5.393  17.436  0.00  0.00    +0.000 OA
BRANCH  19  21
ATOM     21  C   UNL     1       2.503   7.305  18.761  0.00  0.00    +0.000 A 
ATOM     22  C   UNL     1       2.246   6.950  20.097  0.00  0.00    +0.000 A 
ATOM     23  C   UNL     1       1.488   7.778  20.926  0.00  0.00    +0.000 A 
ATOM     24  C   UNL     1       0.974   8.973  20.430  0.00  0.00    +0.000 A 
ATOM     25  C   UNL     1       1.230   9.334  19.100  0.00  0.00    +0.000 A 
ATOM     26  C   UNL     1       1.998   8.509  18.261  0.00  0.00    +0.000 A 
BRANCH  25  27
ATOM     27  N   UNL     1       0.673  10.587  18.572  0.00  0.00    +0.000 N 
ATOM     28  O   UNL     1       1.376  11.604  18.641  0.00  0.00    +0.000 OA
ATOM     29  O   UNL     1      -0.471  10.549  18.097  0.00  0.00    +0.000 OA
ENDBRANCH  25  27
ENDBRANCH  19  21
ENDBRANCH  18  19
ENDBRANCH   1  18
TORSDOF 12
ENDMDL
MODEL 5
REMARK VINA RESULT:      -7.4      2.648      7.759
REMARK  Name = 
REMARK  15 active torsions:
REMARK  status: ('A' for Active; 'I' for Inactive)
REMARK    1  A    between atoms: C_1  and  C_2
REMARK    2  A    between atoms: C_2  and  O_3
REMARK    3  A    between atoms: O_3  and  C_4
REMARK    4  A    between atoms: C_4  and  C_6
REMARK    5  A    between atoms: C_6  and  C_7
REMARK    6  A    between atoms: C_6  and  N_19
REMARK    7  A    between atoms: C_6  and  C_24
REMARK    8  A    between atoms: C_7  and  C_8
REMARK    9  A    between atoms: C_8  and  C_10
REMARK   10  A    between atoms: C_14  and  N_15
REMARK   11  A    between atoms: C_20  and  C_22
REMARK   12  A    between atoms: C_22  and  C_23
REMARK   13  A    between atoms: C_24  and  O_26
REMARK   14  A    between atoms: O_26  and  C_27
REMARK   15  A    between atoms: C_27  and  C_28
REMARK                            x       y       z     vdW  Elec       q    Type
REMARK                         _______ _______ _______ _____ _____    ______ ____
ROOT
ATOM      1  C   UNL     1       5.168   5.444  18.000  0.00  0.00    +0.000 C 
ENDROOT
BRANCH   1   2
ATOM      2  N   UNL     1       4.866   4.093  18.579  0.00  0.00    +0.000 N 
ATOM      3  C   UNL     1       3.894   3.268  18.071  0.00  0.00    +0.000 C 
ATOM      4  O   UNL     1       3.225   3.567  17.086  0.00  0.00    +0.000 OA
ATOM      5  H   UNL     1       5.314   3.856  19.461  0.00  0.00    +0.000 HD
BRANCH   3   6
ATOM      6  C   UNL     1       3.715   1.970  18.832  0.00  0.00    +0.000 C 
ATOM      7  C   UNL     1       4.462   2.000  20.156  0.00  0.00    +0.000 C 
ENDBRANCH   3   6
ENDBRANCH   1   2
BRANCH   1   8
ATOM      8  C   UNL     1       6.438   5.971  18.696  0.00  0.00    +0.000 C 
ATOM      9  O   UNL     1       6.897   5.513  19.739  0.00  0.00    +0.000 OA
BRANCH   8  10
ATOM     10  O   UNL     1       7.041   6.950  17.958  0.00  0.00    +0.000 OA
BRANCH  10  12
ATOM     11  C   UNL     1       8.351   8.998  18.104  0.00  0.00    +0.000 C 
ATOM     12  C   UNL     1       8.224   7.541  18.505  0.00  0.00    +0.000 C 
ENDBRANCH  10  12
ENDBRANCH   8  10
ENDBRANCH   1   8
BRANCH   1  13
ATOM     13  C   UNL     1       3.935   6.293  18.377  0.00  0.00    +0.000 C 
ATOM     14  O   UNL     1       3.438   7.114  17.606  0.00  0.00    +0.000 OA
BRANCH  13  15
ATOM     15  O   UNL     1       3.506   6.088  19.648  0.00  0.00    +0.000 OA
BRANCH  15  16
ATOM     16  C   UNL     1       2.094   6.170  19.898  0.00  0.00    +0.000 C 
ATOM     17  C   UNL     1       1.730   7.507  20.518  0.00  0.00    +0.000 C 
ENDBRANCH  15  16
ENDBRANCH  13  15
ENDBRANCH   1  13
BRANCH   1  18
ATOM     18  C   UNL     1       5.238   5.370  16.457  0.00  0.00    +0.000 C 
BRANCH  18  19
ATOM     19  C   UNL     1       6.442   4.607  15.932  0.00  0.00    +0.000 C 
ATOM     20  O   UNL     1       7.293   4.124  16.674  0.00  0.00    +0.000 OA
BRANCH  19  21
ATOM     21  C   UNL     1       6.616   4.436  14.460  0.00  0.00    +0.000 A 
ATOM     22  C   UNL     1       7.566   5.246  13.815  0.00  0.00    +0.000 A 
ATOM     23  C   UNL     1       7.769   5.156  12.437  0.00  0.00    +0.000 A 
ATOM     24  C   UNL     1       7.020   4.256  11.683  0.00  0.00    +0.000 A 
ATOM     25  C   UNL     1       6.074   3.442  12.322  0.00  0.00    +0.000 A 
ATOM     26  C   UNL     1       5.871   3.521  13.709  0.00  0.00    +0.000 A 
BRANCH  25  27
ATOM     27  N   UNL     1       5.275   2.503  11.523  0.00  0.00    +0.000 N 
ATOM     28  O   UNL     1       5.773   1.401  11.259  0.00  0.00    +0.000 OA
ATOM     29  O   UNL     1       4.152   2.877  11.157  0.00  0.00    +0.000 OA
ENDBRANCH  25  27
ENDBRANCH  19  21
ENDBRANCH  18  19
ENDBRANCH   1  18
TORSDOF 12
ENDMDL
MODEL 6
REMARK VINA RESULT:      -7.3      1.276      3.999
REMARK  Name = 
REMARK  15 active torsions:
REMARK  status: ('A' for Active; 'I' for Inactive)
REMARK    1  A    between atoms: C_1  and  C_2
REMARK    2  A    between atoms: C_2  and  O_3
REMARK    3  A    between atoms: O_3  and  C_4
REMARK    4  A    between atoms: C_4  and  C_6
REMARK    5  A    between atoms: C_6  and  C_7
REMARK    6  A    between atoms: C_6  and  N_19
REMARK    7  A    between atoms: C_6  and  C_24
REMARK    8  A    between atoms: C_7  and  C_8
REMARK    9  A    between atoms: C_8  and  C_10
REMARK   10  A    between atoms: C_14  and  N_15
REMARK   11  A    between atoms: C_20  and  C_22
REMARK   12  A    between atoms: C_22  and  C_23
REMARK   13  A    between atoms: C_24  and  O_26
REMARK   14  A    between atoms: O_26  and  C_27
REMARK   15  A    between atoms: C_27  and  C_28
REMARK                            x       y       z     vdW  Elec       q    Type
REMARK                         _______ _______ _______ _____ _____    ______ ____
ROOT
ATOM      1  C   UNL     1       4.373   4.651  17.844  0.00  0.00    +0.000 C 
ENDROOT
BRANCH   1   2
ATOM      2  N   UNL     1       3.656   3.584  18.620  0.00  0.00    +0.000 N 
ATOM      3  C   UNL     1       2.444   3.070  18.230  0.00  0.00    +0.000 C 
ATOM      4  O   UNL     1       1.879   3.427  17.201  0.00  0.00    +0.000 OA
ATOM      5  H   UNL     1       4.032   3.344  19.534  0.00  0.00    +0.000 HD
BRANCH   3   6
ATOM      6  C   UNL     1       1.869   2.039  19.179  0.00  0.00    +0.000 C 
ATOM      7  C   UNL     1       1.233   2.700  20.392  0.00  0.00    +0.000 C 
ENDBRANCH   3   6
ENDBRANCH   1   2
BRANCH   1   8
ATOM      8  C   UNL     1       4.825   4.025  16.510  0.00  0.00    +0.000 C 
ATOM      9  O   UNL     1       5.058   2.830  16.349  0.00  0.00    +0.000 OA
BRANCH   8  10
ATOM     10  O   UNL     1       4.845   4.951  15.506  0.00  0.00    +0.000 OA
BRANCH  10  12
ATOM     11  C   UNL     1       7.148   4.913  14.714  0.00  0.00    +0.000 C 
ATOM     12  C   UNL     1       5.687   4.675  14.382  0.00  0.00    +0.000 C 
ENDBRANCH  10  12
ENDBRANCH   8  10
ENDBRANCH   1   8
BRANCH   1  13
ATOM     13  C   UNL     1       5.585   5.004  18.732  0.00  0.00    +0.000 C 
ATOM     14  O   UNL     1       6.013   4.241  19.597  0.00  0.00    +0.000 OA
BRANCH  13  15
ATOM     15  O   UNL     1       6.078   6.248  18.504  0.00  0.00    +0.000 OA
BRANCH  15  16
ATOM     16  C   UNL     1       7.448   6.358  18.092  0.00  0.00    +0.000 C 
ATOM     17  C   UNL     1       7.759   7.765  17.612  0.00  0.00    +0.000 C 
ENDBRANCH  15  16
ENDBRANCH  13  15
ENDBRANCH   1  13
BRANCH   1  18
ATOM     18  C   UNL     1       3.493   5.915  17.719  0.00  0.00    +0.000 C 
BRANCH  18  19
ATOM     19  C   UNL     1       2.916   6.397  19.039  0.00  0.00    +0.000 C 
ATOM     20  O   UNL     1       3.012   5.748  20.077  0.00  0.00    +0.000 OA
BRANCH  19  21
ATOM     21  C   UNL     1       2.196   7.703  19.092  0.00  0.00    +0.000 A 
ATOM     22  C   UNL     1       2.148   8.472  17.917  0.00  0.00    +0.000 A 
ATOM     23  C   UNL     1       1.511   9.714  17.898  0.00  0.00    +0.000 A 
ATOM     24  C   UNL     1       0.914  10.205  19.056  0.00  0.00    +0.000 A 
ATOM     25  C   UNL     1       0.955   9.440  20.230  0.00  0.00    +0.000 A 
ATOM     26  C   UNL     1       1.588   8.186  20.255  0.00  0.00    +0.000 A 
BRANCH  25  27
ATOM     27  N   UNL     1       0.339   9.966  21.455  0.00  0.00    +0.000 N 
ATOM     28  O   UNL     1       0.437   9.288  22.487  0.00  0.00    +0.000 OA
ATOM     29  O   UNL     1      -0.248  11.055  21.378  0.00  0.00    +0.000 OA
ENDBRANCH  25  27
ENDBRANCH  19  21
ENDBRANCH  18  19
ENDBRANCH   1  18
TORSDOF 12
ENDMDL
MODEL 7
REMARK VINA RESULT:      -7.3      1.099      3.866
REMARK  Name = 
REMARK  15 active torsions:
REMARK  status: ('A' for Active; 'I' for Inactive)
REMARK    1  A    between atoms: C_1  and  C_2
REMARK    2  A    between atoms: C_2  and  O_3
REMARK    3  A    between atoms: O_3  and  C_4
REMARK    4  A    between atoms: C_4  and  C_6
REMARK    5  A    between atoms: C_6  and  C_7
REMARK    6  A    between atoms: C_6  and  N_19
REMARK    7  A    between atoms: C_6  and  C_24
REMARK    8  A    between atoms: C_7  and  C_8
REMARK    9  A    between atoms: C_8  and  C_10
REMARK   10  A    between atoms: C_14  and  N_15
REMARK   11  A    between atoms: C_20  and  C_22
REMARK   12  A    between atoms: C_22  and  C_23
REMARK   13  A    between atoms: C_24  and  O_26
REMARK   14  A    between atoms: O_26  and  C_27
REMARK   15  A    between atoms: C_27  and  C_28
REMARK                            x       y       z     vdW  Elec       q    Type
REMARK                         _______ _______ _______ _____ _____    ______ ____
ROOT
ATOM      1  C   UNL     1       5.511   4.957  17.631  0.00  0.00    +0.000 C 
ENDROOT
BRANCH   1   2
ATOM      2  N   UNL     1       5.137   3.608  18.174  0.00  0.00    +0.000 N 
ATOM      3  C   UNL     1       4.010   2.934  17.774  0.00  0.00    +0.000 C 
ATOM      4  O   UNL     1       3.246   3.377  16.922  0.00  0.00    +0.000 OA
ATOM      5  H   UNL     1       5.677   3.260  18.962  0.00  0.00    +0.000 HD
BRANCH   3   6
ATOM      6  C   UNL     1       3.789   1.612  18.480  0.00  0.00    +0.000 C 
ATOM      7  C   UNL     1       4.348   1.642  19.895  0.00  0.00    +0.000 C 
ENDBRANCH   3   6
ENDBRANCH   1   2
BRANCH   1   8
ATOM      8  C   UNL     1       6.332   4.725  16.348  0.00  0.00    +0.000 C 
ATOM      9  O   UNL     1       7.545   4.533  16.327  0.00  0.00    +0.000 OA
BRANCH   8  10
ATOM     10  O   UNL     1       5.528   4.670  15.245  0.00  0.00    +0.000 OA
BRANCH  10  12
ATOM     11  C   UNL     1       6.245   3.968  13.026  0.00  0.00    +0.000 C 
ATOM     12  C   UNL     1       5.695   3.546  14.374  0.00  0.00    +0.000 C 
ENDBRANCH  10  12
ENDBRANCH   8  10
ENDBRANCH   1   8
BRANCH   1  13
ATOM     13  C   UNL     1       6.383   5.575  18.745  0.00  0.00    +0.000 C 
ATOM     14  O   UNL     1       6.729   4.940  19.741  0.00  0.00    +0.000 OA
BRANCH  13  15
ATOM     15  O   UNL     1       6.666   6.887  18.544  0.00  0.00    +0.000 OA
BRANCH  15  16
ATOM     16  C   UNL     1       8.048   7.264  18.446  0.00  0.00    +0.000 C 
ATOM     17  C   UNL     1       8.188   8.665  17.876  0.00  0.00    +0.000 C 
ENDBRANCH  15  16
ENDBRANCH  13  15
ENDBRANCH   1  13
BRANCH   1  18
ATOM     18  C   UNL     1       4.256   5.843  17.466  0.00  0.00    +0.000 C 
BRANCH  18  19
ATOM     19  C   UNL     1       3.498   6.086  18.760  0.00  0.00    +0.000 C 
ATOM     20  O   UNL     1       3.539   5.304  19.706  0.00  0.00    +0.000 OA
BRANCH  19  21
ATOM     21  C   UNL     1       2.661   7.313  18.901  0.00  0.00    +0.000 A 
ATOM     22  C   UNL     1       2.570   8.173  17.793  0.00  0.00    +0.000 A 
ATOM     23  C   UNL     1       1.822   9.350  17.859  0.00  0.00    +0.000 A 
ATOM     24  C   UNL     1       1.158   9.685  19.036  0.00  0.00    +0.000 A 
ATOM     25  C   UNL     1       1.243   8.829  20.143  0.00  0.00    +0.000 A 
ATOM     26  C   UNL     1       1.986   7.639  20.082  0.00  0.00    +0.000 A 
BRANCH  25  27
ATOM     27  N   UNL     1       0.555   9.192  21.389  0.00  0.00    +0.000 N 
ATOM     28  O   UNL     1      -0.511   8.616  21.647  0.00  0.00    +0.000 OA
ATOM     29  O   UNL     1       1.081  10.058  22.102  0.00  0.00    +0.000 OA
ENDBRANCH  25  27
ENDBRANCH  19  21
ENDBRANCH  18  19
ENDBRANCH   1  18
TORSDOF 12
ENDMDL
MODEL 8
REMARK VINA RESULT:      -7.3      1.119      3.588
REMARK  Name = 
REMARK  15 active torsions:
REMARK  status: ('A' for Active; 'I' for Inactive)
REMARK    1  A    between atoms: C_1  and  C_2
REMARK    2  A    between atoms: C_2  and  O_3
REMARK    3  A    between atoms: O_3  and  C_4
REMARK    4  A    between atoms: C_4  and  C_6
REMARK    5  A    between atoms: C_6  and  C_7
REMARK    6  A    between atoms: C_6  and  N_19
REMARK    7  A    between atoms: C_6  and  C_24
REMARK    8  A    between atoms: C_7  and  C_8
REMARK    9  A    between atoms: C_8  and  C_10
REMARK   10  A    between atoms: C_14  and  N_15
REMARK   11  A    between atoms: C_20  and  C_22
REMARK   12  A    between atoms: C_22  and  C_23
REMARK   13  A    between atoms: C_24  and  O_26
REMARK   14  A    between atoms: O_26  and  C_27
REMARK   15  A    between atoms: C_27  and  C_28
REMARK                            x       y       z     vdW  Elec       q    Type
REMARK                         _______ _______ _______ _____ _____    ______ ____
ROOT
ATOM      1  C   UNL     1       4.372   4.255  17.593  0.00  0.00    +0.000 C 
ENDROOT
BRANCH   1   2
ATOM      2  N   UNL     1       5.088   3.955  16.308  0.00  0.00    +0.000 N 
ATOM      3  C   UNL     1       5.635   4.935  15.518  0.00  0.00    +0.000 C 
ATOM      4  O   UNL     1       5.604   6.123  15.826  0.00  0.00    +0.000 OA
ATOM      5  H   UNL     1       5.035   3.001  15.960  0.00  0.00    +0.000 HD
BRANCH   3   6
ATOM      6  C   UNL     1       6.268   4.426  14.239  0.00  0.00    +0.000 C 
ATOM      7  C   UNL     1       5.219   3.868  13.289  0.00  0.00    +0.000 C 
ENDBRANCH   3   6
ENDBRANCH   1   2
BRANCH   1   8
ATOM      8  C   UNL     1       5.323   3.882  18.748  0.00  0.00    +0.000 C 
ATOM      9  O   UNL     1       5.017   3.158  19.691  0.00  0.00    +0.000 OA
BRANCH   8  10
ATOM     10  O   UNL     1       6.577   4.384  18.541  0.00  0.00    +0.000 OA
BRANCH  10  12
ATOM     11  C   UNL     1       7.773   6.506  18.518  0.00  0.00    +0.000 C 
ATOM     12  C   UNL     1       6.964   5.514  19.331  0.00  0.00    +0.000 C 
ENDBRANCH  10  12
ENDBRANCH   8  10
ENDBRANCH   1   8
BRANCH   1  13
ATOM     13  C   UNL     1       3.144   3.320  17.561  0.00  0.00    +0.000 C 
ATOM     14  O   UNL     1       2.337   3.324  16.632  0.00  0.00    +0.000 OA
BRANCH  13  15
ATOM     15  O   UNL     1       3.018   2.555  18.674  0.00  0.00    +0.000 OA
BRANCH  15  16
ATOM     16  C   UNL     1       1.706   2.081  19.013  0.00  0.00    +0.000 C 
ATOM     17  C   UNL     1       0.950   3.114  19.830  0.00  0.00    +0.000 C 
ENDBRANCH  15  16
ENDBRANCH  13  15
ENDBRANCH   1  13
BRANCH   1  18
ATOM     18  C   UNL     1       3.858   5.712  17.602  0.00  0.00    +0.000 C 
BRANCH  18  19
ATOM     19  C   UNL     1       3.275   6.152  18.934  0.00  0.00    +0.000 C 
ATOM     20  O   UNL     1       3.433   5.509  19.968  0.00  0.00    +0.000 OA
BRANCH  19  21
ATOM     21  C   UNL     1       2.468   7.406  19.004  0.00  0.00    +0.000 A 
ATOM     22  C   UNL     1       2.376   8.190  17.842  0.00  0.00    +0.000 A 
ATOM     23  C   UNL     1       1.657   9.386  17.839  0.00  0.00    +0.000 A 
ATOM     24  C   UNL     1       1.021   9.816  19.001  0.00  0.00    +0.000 A 
ATOM     25  C   UNL     1       1.107   9.036  20.162  0.00  0.00    +0.000 A 
ATOM     26  C   UNL     1       1.822   7.827  20.170  0.00  0.00    +0.000 A 
BRANCH  25  27
ATOM     27  N   UNL     1       0.449   9.498  21.391  0.00  0.00    +0.000 N 
ATOM     28  O   UNL     1       0.828  10.572  21.879  0.00  0.00    +0.000 OA
ATOM     29  O   UNL     1      -0.440   8.780  21.870  0.00  0.00    +0.000 OA
ENDBRANCH  25  27
ENDBRANCH  19  21
ENDBRANCH  18  19
ENDBRANCH   1  18
TORSDOF 12
ENDMDL
MODEL 9
REMARK VINA RESULT:      -7.3      2.440      7.127
REMARK  Name = 
REMARK  15 active torsions:
REMARK  status: ('A' for Active; 'I' for Inactive)
REMARK    1  A    between atoms: C_1  and  C_2
REMARK    2  A    between atoms: C_2  and  O_3
REMARK    3  A    between atoms: O_3  and  C_4
REMARK    4  A    between atoms: C_4  and  C_6
REMARK    5  A    between atoms: C_6  and  C_7
REMARK    6  A    between atoms: C_6  and  N_19
REMARK    7  A    between atoms: C_6  and  C_24
REMARK    8  A    between atoms: C_7  and  C_8
REMARK    9  A    between atoms: C_8  and  C_10
REMARK   10  A    between atoms: C_14  and  N_15
REMARK   11  A    between atoms: C_20  and  C_22
REMARK   12  A    between atoms: C_22  and  C_23
REMARK   13  A    between atoms: C_24  and  O_26
REMARK   14  A    between atoms: O_26  and  C_27
REMARK   15  A    between atoms: C_27  and  C_28
REMARK                            x       y       z     vdW  Elec       q    Type
REMARK                         _______ _______ _______ _____ _____    ______ ____
ROOT
ATOM      1  C   UNL     1       4.000   4.705  18.144  0.00  0.00    +0.000 C 
ENDROOT
BRANCH   1   2
ATOM      2  N   UNL     1       3.829   6.194  18.230  0.00  0.00    +0.000 N 
ATOM      3  C   UNL     1       2.653   6.825  17.909  0.00  0.00    +0.000 C 
ATOM      4  O   UNL     1       1.650   6.210  17.561  0.00  0.00    +0.000 OA
ATOM      5  H   UNL     1       4.664   6.747  18.402  0.00  0.00    +0.000 HD
BRANCH   3   6
ATOM      6  C   UNL     1       2.705   8.335  18.015  0.00  0.00    +0.000 C 
ATOM      7  C   UNL     1       1.595   8.865  18.910  0.00  0.00    +0.000 C 
ENDBRANCH   3   6
ENDBRANCH   1   2
BRANCH   1   8
ATOM      8  C   UNL     1       2.758   4.060  18.792  0.00  0.00    +0.000 C 
ATOM      9  O   UNL     1       1.977   3.318  18.204  0.00  0.00    +0.000 OA
BRANCH   8  10
ATOM     10  O   UNL     1       2.689   4.345  20.126  0.00  0.00    +0.000 OA
BRANCH  10  12
ATOM     11  C   UNL     1       1.590   2.820  21.676  0.00  0.00    +0.000 C 
ATOM     12  C   UNL     1       1.457   4.044  20.792  0.00  0.00    +0.000 C 
ENDBRANCH  10  12
ENDBRANCH   8  10
ENDBRANCH   1   8
BRANCH   1  13
ATOM     13  C   UNL     1       5.269   4.429  18.979  0.00  0.00    +0.000 C 
ATOM     14  O   UNL     1       5.672   3.289  19.209  0.00  0.00    +0.000 OA
BRANCH  13  15
ATOM     15  O   UNL     1       5.843   5.553  19.477  0.00  0.00    +0.000 OA
BRANCH  15  16
ATOM     16  C   UNL     1       7.276   5.597  19.544  0.00  0.00    +0.000 C 
ATOM     17  C   UNL     1       7.841   6.516  18.475  0.00  0.00    +0.000 C 
ENDBRANCH  15  16
ENDBRANCH  13  15
ENDBRANCH   1  13
BRANCH   1  18
ATOM     18  C   UNL     1       4.288   4.274  16.688  0.00  0.00    +0.000 C 
BRANCH  18  19
ATOM     19  C   UNL     1       5.232   5.204  15.946  0.00  0.00    +0.000 C 
ATOM     20  O   UNL     1       5.516   6.324  16.361  0.00  0.00    +0.000 OA
BRANCH  19  21
ATOM     21  C   UNL     1       5.841   4.758  14.659  0.00  0.00    +0.000 A 
ATOM     22  C   UNL     1       7.103   5.273  14.318  0.00  0.00    +0.000 A 
ATOM     23  C   UNL     1       7.724   4.917  13.120  0.00  0.00    +0.000 A 
ATOM     24  C   UNL     1       7.088   4.042  12.243  0.00  0.00    +0.000 A 
ATOM     25  C   UNL     1       5.831   3.522  12.579  0.00  0.00    +0.000 A 
ATOM     26  C   UNL     1       5.203   3.869  13.787  0.00  0.00    +0.000 A 
BRANCH  25  27
ATOM     27  N   UNL     1       5.154   2.612  11.646  0.00  0.00    +0.000 N 
ATOM     28  O   UNL     1       5.720   1.546  11.367  0.00  0.00    +0.000 OA
ATOM     29  O   UNL     1       4.060   2.971  11.189  0.00  0.00    +0.000 OA
ENDBRANCH  25  27
ENDBRANCH  19  21
ENDBRANCH  18  19
ENDBRANCH   1  18
TORSDOF 12
ENDMDL
