MODEL 1
REMARK VINA RESULT:      -7.0      0.000      0.000
REMARK  Name = 
REMARK  3 active torsions:
REMARK  status: ('A' for Active; 'I' for Inactive)
REMARK    1  A    between atoms: C_2  and  OXT_3
REMARK    2  A    between atoms: C_2  and  CA_4
REMARK    3  A    between atoms: N_10  and  C_11
REMARK                            x       y       z     vdW  Elec       q    Type
REMARK                         _______ _______ _______ _____ _____    ______ ____
ROOT
ATOM      1  CA  UNL     1       1.813  13.998  19.650  0.00  0.00    +0.000 C 
ATOM      2  C   UNL     1       0.837  12.872  19.305  0.00  0.00    +0.000 C 
ATOM      3  C   UNL     1       0.367  12.203  20.609  0.00  0.00    +0.000 C 
ATOM      4  C   UNL     1       0.538  10.879  20.858  0.00  0.00    +0.000 C 
ATOM      5  C   UNL     1       0.344  10.103  22.127  0.00  0.00    +0.000 C 
ATOM      6  C   UNL     1       1.275   8.926  21.992  0.00  0.00    +0.000 C 
ATOM      7  N   UNL     1       1.326   8.682  20.585  0.00  0.00    +0.000 N 
ATOM      8  C   UNL     1       1.039   9.847  19.853  0.00  0.00    +0.000 C 
ATOM      9  O   UNL     1       1.096  10.045  18.657  0.00  0.00    +0.000 OA
ATOM     10  C   UNL     1      -0.111  13.231  21.626  0.00  0.00    +0.000 A 
ATOM     11  C   UNL     1      -1.050  13.006  22.665  0.00  0.00    +0.000 A 
ATOM     12 CL   UNL     1      -2.196  11.705  22.671  0.00  0.00    +0.000 Cl
ATOM     13  C   UNL     1      -1.267  13.945  23.684  0.00  0.00    +0.000 A 
ATOM     14  C   UNL     1      -0.691  15.199  23.601  0.00  0.00    +0.000 A 
ATOM     15 CL   UNL     1      -1.014  16.379  24.809  0.00  0.00    +0.000 Cl
ATOM     16  C   UNL     1       0.082  15.527  22.500  0.00  0.00    +0.000 A 
ATOM     17  C   UNL     1       0.401  14.564  21.527  0.00  0.00    +0.000 A 
ATOM     18  N   UNL     1       1.085  15.052  20.377  0.00  0.00    +0.000 N 
ATOM     19  H   UNL     1       1.686  15.845  20.610  0.00  0.00    +0.000 HD
ENDROOT
BRANCH   7  20
ATOM     20  C   UNL     1       1.774   7.444  20.045  0.00  0.00    +0.000 A 
ATOM     21  C   UNL     1       2.441   7.395  18.829  0.00  0.00    +0.000 A 
ATOM     22  C   UNL     1       2.870   6.181  18.286  0.00  0.00    +0.000 A 
ATOM     23  C   UNL     1       2.595   4.997  18.968  0.00  0.00    +0.000 A 
ATOM     24  C   UNL     1       1.927   5.015  20.182  0.00  0.00    +0.000 A 
ATOM     25  C   UNL     1       1.530   6.241  20.723  0.00  0.00    +0.000 A 
ENDBRANCH   7  20
BRANCH   1  27
ATOM     26  O   UNL     1       2.440  15.799  18.132  0.00  0.00    +0.000 OA
ATOM     27  C   UNL     1       2.544  14.616  18.445  0.00  0.00    +0.000 C 
BRANCH  27  28
ATOM     28  OXT UNL     1       3.254  13.745  17.687  0.00  0.00    +0.000 OA
ATOM     29  HXT UNL     1       4.163  13.600  18.026  0.00  0.00    +0.000 HD
ENDBRANCH  27  28
ENDBRANCH   1  27
TORSDOF 3
ENDMDL
MODEL 2
REMARK VINA RESULT:      -6.9      4.681      6.879
REMARK  Name = 
REMARK  3 active torsions:
REMARK  status: ('A' for Active; 'I' for Inactive)
REMARK    1  A    between atoms: C_2  and  OXT_3
REMARK    2  A    between atoms: C_2  and  CA_4
REMARK    3  A    between atoms: N_10  and  C_11
REMARK                            x       y       z     vdW  Elec       q    Type
REMARK                         _______ _______ _______ _____ _____    ______ ____
ROOT
ATOM      1  CA  UNL     1      -4.783  12.389  18.581  0.00  0.00    +0.000 C 
ATOM      2  C   UNL     1      -3.401  11.931  19.050  0.00  0.00    +0.000 C 
ATOM      3  C   UNL     1      -3.010  12.730  20.305  0.00  0.00    +0.000 C 
ATOM      4  C   UNL     1      -1.884  13.489  20.371  0.00  0.00    +0.000 C 
ATOM      5  C   UNL     1      -1.452  14.484  21.405  0.00  0.00    +0.000 C 
ATOM      6  C   UNL     1      -0.550  15.433  20.658  0.00  0.00    +0.000 C 
ATOM      7  N   UNL     1       0.040  14.622  19.640  0.00  0.00    +0.000 N 
ATOM      8  C   UNL     1      -0.779  13.525  19.321  0.00  0.00    +0.000 C 
ATOM      9  O   UNL     1      -0.659  12.698  18.441  0.00  0.00    +0.000 OA
ATOM     10  C   UNL     1      -4.120  12.718  21.347  0.00  0.00    +0.000 A 
ATOM     11  C   UNL     1      -3.956  12.874  22.747  0.00  0.00    +0.000 A 
ATOM     12 CL   UNL     1      -2.462  12.601  23.583  0.00  0.00    +0.000 Cl
ATOM     13  C   UNL     1      -5.048  13.066  23.605  0.00  0.00    +0.000 A 
ATOM     14  C   UNL     1      -6.336  12.933  23.122  0.00  0.00    +0.000 A 
ATOM     15 CL   UNL     1      -7.678  13.094  24.185  0.00  0.00    +0.000 Cl
ATOM     16  C   UNL     1      -6.540  12.590  21.795  0.00  0.00    +0.000 A 
ATOM     17  C   UNL     1      -5.462  12.503  20.897  0.00  0.00    +0.000 A 
ATOM     18  N   UNL     1      -5.779  12.012  19.599  0.00  0.00    +0.000 N 
ATOM     19  H   UNL     1      -6.729  12.271  19.324  0.00  0.00    +0.000 HD
ENDROOT
BRANCH   7  20
ATOM     20  C   UNL     1       1.227  15.006  18.956  0.00  0.00    +0.000 A 
ATOM     21  C   UNL     1       1.381  16.294  18.461  0.00  0.00    +0.000 A 
ATOM     22  C   UNL     1       2.538  16.674  17.776  0.00  0.00    +0.000 A 
ATOM     23  C   UNL     1       3.542  15.730  17.563  0.00  0.00    +0.000 A 
ATOM     24  C   UNL     1       3.414  14.437  18.042  0.00  0.00    +0.000 A 
ATOM     25  C   UNL     1       2.262  14.083  18.749  0.00  0.00    +0.000 A 
ENDBRANCH   7  20
BRANCH   1  27
ATOM     26  O   UNL     1      -4.438  11.334  16.411  0.00  0.00    +0.000 OA
ATOM     27  C   UNL     1      -5.219  11.845  17.210  0.00  0.00    +0.000 C 
BRANCH  27  28
ATOM     28  OXT UNL     1      -6.522  12.043  16.894  0.00  0.00    +0.000 OA
ATOM     29  HXT UNL     1      -6.963  11.228  16.571  0.00  0.00    +0.000 HD
ENDBRANCH  27  28
ENDBRANCH   1  27
TORSDOF 3
ENDMDL
MODEL 3
REMARK VINA RESULT:      -6.9      1.361      1.953
REMARK  Name = 
REMARK  3 active torsions:
REMARK  status: ('A' for Active; 'I' for Inactive)
REMARK    1  A    between atoms: C_2  and  OXT_3
REMARK    2  A    between atoms: C_2  and  CA_4
REMARK    3  A    between atoms: N_10  and  C_11
REMARK                            x       y       z     vdW  Elec       q    Type
REMARK                         _______ _______ _______ _____ _____    ______ ____
ROOT
ATOM      1  CA  UNL     1       2.808  13.487  19.248  0.00  0.00    +0.000 C 
ATOM      2  C   UNL     1       1.930  12.496  18.483  0.00  0.00    +0.000 C 
ATOM      3  C   UNL     1       1.165  11.623  19.494  0.00  0.00    +0.000 C 
ATOM      4  C   UNL     1       1.264  10.269  19.517  0.00  0.00    +0.000 C 
ATOM      5  C   UNL     1       0.775   9.284  20.536  0.00  0.00    +0.000 C 
ATOM      6  C   UNL     1       1.704   8.105  20.393  0.00  0.00    +0.000 C 
ATOM      7  N   UNL     1       2.078   8.122  19.014  0.00  0.00    +0.000 N 
ATOM      8  C   UNL     1       1.977   9.416  18.473  0.00  0.00    +0.000 C 
ATOM      9  O   UNL     1       2.311   9.828  17.381  0.00  0.00    +0.000 OA
ATOM     10  C   UNL     1       0.472  12.469  20.554  0.00  0.00    +0.000 A 
ATOM     11  C   UNL     1      -0.684  12.105  21.291  0.00  0.00    +0.000 A 
ATOM     12 CL   UNL     1      -1.809  10.886  20.788  0.00  0.00    +0.000 Cl
ATOM     13  C   UNL     1      -1.124  12.850  22.394  0.00  0.00    +0.000 A 
ATOM     14  C   UNL     1      -0.535  14.066  22.685  0.00  0.00    +0.000 A 
ATOM     15 CL   UNL     1      -1.120  15.017  23.992  0.00  0.00    +0.000 Cl
ATOM     16  C   UNL     1       0.475  14.551  21.872  0.00  0.00    +0.000 A 
ATOM     17  C   UNL     1       1.003  13.769  20.830  0.00  0.00    +0.000 A 
ATOM     18  N   UNL     1       1.939  14.425  19.980  0.00  0.00    +0.000 N 
ATOM     19  H   UNL     1       2.476  15.130  20.490  0.00  0.00    +0.000 HD
ENDROOT
BRANCH   7  20
ATOM     20  C   UNL     1       2.629   6.984  18.361  0.00  0.00    +0.000 A 
ATOM     21  C   UNL     1       1.991   5.752  18.415  0.00  0.00    +0.000 A 
ATOM     22  C   UNL     1       2.533   4.627  17.788  0.00  0.00    +0.000 A 
ATOM     23  C   UNL     1       3.753   4.742  17.124  0.00  0.00    +0.000 A 
ATOM     24  C   UNL     1       4.415   5.957  17.058  0.00  0.00    +0.000 A 
ATOM     25  C   UNL     1       3.843   7.078  17.666  0.00  0.00    +0.000 A 
ENDBRANCH   7  20
BRANCH   1  27
ATOM     26  O   UNL     1       4.902  14.646  18.787  0.00  0.00    +0.000 OA
ATOM     27  C   UNL     1       3.803  14.279  18.382  0.00  0.00    +0.000 C 
BRANCH  27  28
ATOM     28  OXT UNL     1       3.352  14.626  17.152  0.00  0.00    +0.000 OA
ATOM     29  HXT UNL     1       4.004  14.441  16.442  0.00  0.00    +0.000 HD
ENDBRANCH  27  28
ENDBRANCH   1  27
TORSDOF 3
ENDMDL
MODEL 4
REMARK VINA RESULT:      -6.8      1.823      2.146
REMARK  Name = 
REMARK  3 active torsions:
REMARK  status: ('A' for Active; 'I' for Inactive)
REMARK    1  A    between atoms: C_2  and  OXT_3
REMARK    2  A    between atoms: C_2  and  CA_4
REMARK    3  A    between atoms: N_10  and  C_11
REMARK                            x       y       z     vdW  Elec       q    Type
REMARK                         _______ _______ _______ _____ _____    ______ ____
ROOT
ATOM      1  CA  UNL     1       2.522  14.177  18.882  0.00  0.00    +0.000 C 
ATOM      2  C   UNL     1       1.856  13.064  18.071  0.00  0.00    +0.000 C 
ATOM      3  C   UNL     1       0.757  12.412  18.928  0.00  0.00    +0.000 C 
ATOM      4  C   UNL     1       0.749  11.087  19.226  0.00  0.00    +0.000 C 
ATOM      5  C   UNL     1      -0.100  10.323  20.198  0.00  0.00    +0.000 C 
ATOM      6  C   UNL     1       0.742   9.130  20.572  0.00  0.00    +0.000 C 
ATOM      7  N   UNL     1       1.525   8.876  19.404  0.00  0.00    +0.000 N 
ATOM      8  C   UNL     1       1.687  10.040  18.634  0.00  0.00    +0.000 C 
ATOM      9  O   UNL     1       2.370  10.230  17.649  0.00  0.00    +0.000 OA
ATOM     10  C   UNL     1      -0.168  13.454  19.542  0.00  0.00    +0.000 A 
ATOM     11  C   UNL     1      -1.518  13.251  19.928  0.00  0.00    +0.000 A 
ATOM     12 CL   UNL     1      -2.516  11.968  19.325  0.00  0.00    +0.000 Cl
ATOM     13  C   UNL     1      -2.224  14.200  20.682  0.00  0.00    +0.000 A 
ATOM     14  C   UNL     1      -1.670  15.444  20.919  0.00  0.00    +0.000 A 
ATOM     15 CL   UNL     1      -2.562  16.636  21.778  0.00  0.00    +0.000 Cl
ATOM     16  C   UNL     1      -0.426  15.752  20.393  0.00  0.00    +0.000 A 
ATOM     17  C   UNL     1       0.342  14.778  19.732  0.00  0.00    +0.000 A 
ATOM     18  N   UNL     1       1.538  15.247  19.119  0.00  0.00    +0.000 N 
ATOM     19  H   UNL     1       1.939  16.032  19.636  0.00  0.00    +0.000 HD
ENDROOT
BRANCH   7  20
ATOM     20  C   UNL     1       2.168   7.627  19.177  0.00  0.00    +0.000 A 
ATOM     21  C   UNL     1       2.111   6.613  20.123  0.00  0.00    +0.000 A 
ATOM     22  C   UNL     1       2.752   5.389  19.912  0.00  0.00    +0.000 A 
ATOM     23  C   UNL     1       3.487   5.199  18.743  0.00  0.00    +0.000 A 
ATOM     24  C   UNL     1       3.565   6.195  17.784  0.00  0.00    +0.000 A 
ATOM     25  C   UNL     1       2.894   7.402  17.998  0.00  0.00    +0.000 A 
ENDBRANCH   7  20
BRANCH   1  27
ATOM     26  O   UNL     1       4.829  14.964  18.872  0.00  0.00    +0.000 OA
ATOM     27  C   UNL     1       3.789  14.776  18.247  0.00  0.00    +0.000 C 
BRANCH  27  28
ATOM     28  OXT UNL     1       3.661  15.169  16.956  0.00  0.00    +0.000 OA
ATOM     29  HXT UNL     1       3.674  14.416  16.327  0.00  0.00    +0.000 HD
ENDBRANCH  27  28
ENDBRANCH   1  27
TORSDOF 3
ENDMDL
MODEL 5
REMARK VINA RESULT:      -6.8      3.595      6.929
REMARK  Name = 
REMARK  3 active torsions:
REMARK  status: ('A' for Active; 'I' for Inactive)
REMARK    1  A    between atoms: C_2  and  OXT_3
REMARK    2  A    between atoms: C_2  and  CA_4
REMARK    3  A    between atoms: N_10  and  C_11
REMARK                            x       y       z     vdW  Elec       q    Type
REMARK                         _______ _______ _______ _____ _____    ______ ____
ROOT
ATOM      1  CA  UNL     1       1.109  11.658  18.940  0.00  0.00    +0.000 C 
ATOM      2  C   UNL     1      -0.275  12.265  18.701  0.00  0.00    +0.000 C 
ATOM      3  C   UNL     1      -0.314  13.674  19.318  0.00  0.00    +0.000 C 
ATOM      4  C   UNL     1      -1.215  14.034  20.268  0.00  0.00    +0.000 C 
ATOM      5  C   UNL     1      -1.275  15.265  21.122  0.00  0.00    +0.000 C 
ATOM      6  C   UNL     1      -2.016  14.827  22.359  0.00  0.00    +0.000 C 
ATOM      7  N   UNL     1      -2.898  13.803  21.892  0.00  0.00    +0.000 N 
ATOM      8  C   UNL     1      -2.401  13.193  20.728  0.00  0.00    +0.000 C 
ATOM      9  O   UNL     1      -2.816  12.227  20.121  0.00  0.00    +0.000 OA
ATOM     10  C   UNL     1       0.881  14.511  18.882  0.00  0.00    +0.000 A 
ATOM     11  C   UNL     1       0.929  15.926  18.806  0.00  0.00    +0.000 A 
ATOM     12 CL   UNL     1      -0.475  16.939  18.700  0.00  0.00    +0.000 Cl
ATOM     13  C   UNL     1       2.132  16.618  18.604  0.00  0.00    +0.000 A 
ATOM     14  C   UNL     1       3.285  15.921  18.298  0.00  0.00    +0.000 A 
ATOM     15 CL   UNL     1       4.746  16.768  17.976  0.00  0.00    +0.000 Cl
ATOM     16  C   UNL     1       3.241  14.542  18.172  0.00  0.00    +0.000 A 
ATOM     17  C   UNL     1       2.071  13.825  18.479  0.00  0.00    +0.000 A 
ATOM     18  N   UNL     1       2.106  12.433  18.182  0.00  0.00    +0.000 N 
ATOM     19  H   UNL     1       3.049  12.053  18.285  0.00  0.00    +0.000 HD
ENDROOT
BRANCH   7  20
ATOM     20  C   UNL     1      -4.037  13.385  22.635  0.00  0.00    +0.000 A 
ATOM     21  C   UNL     1      -5.322  13.663  22.190  0.00  0.00    +0.000 A 
ATOM     22  C   UNL     1      -6.444  13.267  22.921  0.00  0.00    +0.000 A 
ATOM     23  C   UNL     1      -6.265  12.606  24.136  0.00  0.00    +0.000 A 
ATOM     24  C   UNL     1      -4.995  12.319  24.607  0.00  0.00    +0.000 A 
ATOM     25  C   UNL     1      -3.884  12.697  23.848  0.00  0.00    +0.000 A 
ENDBRANCH   7  20
BRANCH   1  27
ATOM     26  O   UNL     1       0.906   9.262  19.343  0.00  0.00    +0.000 OA
ATOM     27  C   UNL     1       1.236  10.167  18.581  0.00  0.00    +0.000 C 
BRANCH  27  28
ATOM     28  OXT UNL     1       1.823   9.906  17.387  0.00  0.00    +0.000 OA
ATOM     29  HXT UNL     1       1.433   9.127  16.935  0.00  0.00    +0.000 HD
ENDBRANCH  27  28
ENDBRANCH   1  27
TORSDOF 3
ENDMDL
MODEL 6
REMARK VINA RESULT:      -6.7      4.069      6.390
REMARK  Name = 
REMARK  3 active torsions:
REMARK  status: ('A' for Active; 'I' for Inactive)
REMARK    1  A    between atoms: C_2  and  OXT_3
REMARK    2  A    between atoms: C_2  and  CA_4
REMARK    3  A    between atoms: N_10  and  C_11
REMARK                            x       y       z     vdW  Elec       q    Type
REMARK                         _______ _______ _______ _____ _____    ______ ____
ROOT
ATOM      1  CA  UNL     1      -2.877  11.619  17.567  0.00  0.00    +0.000 C 
ATOM      2  C   UNL     1      -1.728  11.369  18.546  0.00  0.00    +0.000 C 
ATOM      3  C   UNL     1      -1.789  12.422  19.666  0.00  0.00    +0.000 C 
ATOM      4  C   UNL     1      -0.758  13.264  19.938  0.00  0.00    +0.000 C 
ATOM      5  C   UNL     1      -0.708  14.471  20.827  0.00  0.00    +0.000 C 
ATOM      6  C   UNL     1       0.384  15.325  20.237  0.00  0.00    +0.000 C 
ATOM      7  N   UNL     1       1.289  14.383  19.659  0.00  0.00    +0.000 N 
ATOM      8  C   UNL     1       0.635  13.185  19.324  0.00  0.00    +0.000 C 
ATOM      9  O   UNL     1       1.051  12.215  18.723  0.00  0.00    +0.000 OA
ATOM     10  C   UNL     1      -3.185  12.523  20.266  0.00  0.00    +0.000 A 
ATOM     11  C   UNL     1      -3.502  12.958  21.579  0.00  0.00    +0.000 A 
ATOM     12 CL   UNL     1      -2.374  12.968  22.895  0.00  0.00    +0.000 Cl
ATOM     13  C   UNL     1      -4.822  13.225  21.973  0.00  0.00    +0.000 A 
ATOM     14  C   UNL     1      -5.871  12.901  21.133  0.00  0.00    +0.000 A 
ATOM     15 CL   UNL     1      -7.493  13.158  21.641  0.00  0.00    +0.000 Cl
ATOM     16  C   UNL     1      -5.614  12.295  19.915  0.00  0.00    +0.000 A 
ATOM     17  C   UNL     1      -4.296  12.122  19.457  0.00  0.00    +0.000 A 
ATOM     18  N   UNL     1      -4.153  11.367  18.258  0.00  0.00    +0.000 N 
ATOM     19  H   UNL     1      -4.957  11.494  17.640  0.00  0.00    +0.000 HD
ENDROOT
BRANCH   7  20
ATOM     20  C   UNL     1       2.634  14.720  19.337  0.00  0.00    +0.000 A 
ATOM     21  C   UNL     1       3.004  15.010  18.031  0.00  0.00    +0.000 A 
ATOM     22  C   UNL     1       4.325  15.328  17.706  0.00  0.00    +0.000 A 
ATOM     23  C   UNL     1       5.292  15.325  18.711  0.00  0.00    +0.000 A 
ATOM     24  C   UNL     1       4.952  15.035  20.022  0.00  0.00    +0.000 A 
ATOM     25  C   UNL     1       3.621  14.747  20.333  0.00  0.00    +0.000 A 
ENDBRANCH   7  20
BRANCH   1  27
ATOM     26  O   UNL     1      -2.388   9.640  16.230  0.00  0.00    +0.000 OA
ATOM     27  C   UNL     1      -2.821  10.789  16.273  0.00  0.00    +0.000 C 
BRANCH  27  28
ATOM     28  OXT UNL     1      -3.205  11.441  15.148  0.00  0.00    +0.000 OA
ATOM     29  HXT UNL     1      -2.621  12.199  14.932  0.00  0.00    +0.000 HD
ENDBRANCH  27  28
ENDBRANCH   1  27
TORSDOF 3
ENDMDL
MODEL 7
REMARK VINA RESULT:      -6.7      3.029      4.262
REMARK  Name = 
REMARK  3 active torsions:
REMARK  status: ('A' for Active; 'I' for Inactive)
REMARK    1  A    between atoms: C_2  and  OXT_3
REMARK    2  A    between atoms: C_2  and  CA_4
REMARK    3  A    between atoms: N_10  and  C_11
REMARK                            x       y       z     vdW  Elec       q    Type
REMARK                         _______ _______ _______ _____ _____    ______ ____
ROOT
ATOM      1  CA  UNL     1      -2.024  12.626  21.539  0.00  0.00    +0.000 C 
ATOM      2  C   UNL     1      -0.613  12.121  21.843  0.00  0.00    +0.000 C 
ATOM      3  C   UNL     1       0.278  12.357  20.611  0.00  0.00    +0.000 C 
ATOM      4  C   UNL     1       0.932  11.350  19.975  0.00  0.00    +0.000 C 
ATOM      5  C   UNL     1       1.659  11.350  18.664  0.00  0.00    +0.000 C 
ATOM      6  C   UNL     1       1.577   9.921  18.191  0.00  0.00    +0.000 C 
ATOM      7  N   UNL     1       1.545   9.156  19.398  0.00  0.00    +0.000 N 
ATOM      8  C   UNL     1       1.033   9.910  20.467  0.00  0.00    +0.000 C 
ATOM      9  O   UNL     1       0.759   9.565  21.599  0.00  0.00    +0.000 OA
ATOM     10  C   UNL     1       0.162  13.786  20.100  0.00  0.00    +0.000 A 
ATOM     11  C   UNL     1       1.149  14.496  19.370  0.00  0.00    +0.000 A 
ATOM     12 CL   UNL     1       2.832  14.079  19.357  0.00  0.00    +0.000 Cl
ATOM     13  C   UNL     1       0.875  15.727  18.755  0.00  0.00    +0.000 A 
ATOM     14  C   UNL     1      -0.327  16.365  18.996  0.00  0.00    +0.000 A 
ATOM     15 CL   UNL     1      -0.639  17.908  18.304  0.00  0.00    +0.000 Cl
ATOM     16  C   UNL     1      -1.246  15.794  19.861  0.00  0.00    +0.000 A 
ATOM     17  C   UNL     1      -1.036  14.512  20.397  0.00  0.00    +0.000 A 
ATOM     18  N   UNL     1      -1.980  14.090  21.375  0.00  0.00    +0.000 N 
ATOM     19  H   UNL     1      -2.905  14.485  21.196  0.00  0.00    +0.000 HD
ENDROOT
BRANCH   7  20
ATOM     20  C   UNL     1       1.853   7.767  19.425  0.00  0.00    +0.000 A 
ATOM     21  C   UNL     1       1.585   6.998  20.549  0.00  0.00    +0.000 A 
ATOM     22  C   UNL     1       1.897   5.637  20.588  0.00  0.00    +0.000 A 
ATOM     23  C   UNL     1       2.516   5.050  19.485  0.00  0.00    +0.000 A 
ATOM     24  C   UNL     1       2.799   5.794  18.350  0.00  0.00    +0.000 A 
ATOM     25  C   UNL     1       2.454   7.148  18.319  0.00  0.00    +0.000 A 
ENDBRANCH   7  20
BRANCH   1  27
ATOM     26  O   UNL     1      -2.810  11.783  23.687  0.00  0.00    +0.000 OA
ATOM     27  C   UNL     1      -3.087  12.259  22.589  0.00  0.00    +0.000 C 
BRANCH  27  28
ATOM     28  OXT UNL     1      -4.374  12.415  22.192  0.00  0.00    +0.000 OA
ATOM     29  HXT UNL     1      -4.995  11.830  22.676  0.00  0.00    +0.000 HD
ENDBRANCH  27  28
ENDBRANCH   1  27
TORSDOF 3
ENDMDL
MODEL 8
REMARK VINA RESULT:      -6.6      4.238      6.729
REMARK  Name = 
REMARK  3 active torsions:
REMARK  status: ('A' for Active; 'I' for Inactive)
REMARK    1  A    between atoms: C_2  and  OXT_3
REMARK    2  A    between atoms: C_2  and  CA_4
REMARK    3  A    between atoms: N_10  and  C_11
REMARK                            x       y       z     vdW  Elec       q    Type
REMARK                         _______ _______ _______ _____ _____    ______ ____
ROOT
ATOM      1  CA  UNL     1      -3.253  11.556  17.438  0.00  0.00    +0.000 C 
ATOM      2  C   UNL     1      -2.084  11.354  18.403  0.00  0.00    +0.000 C 
ATOM      3  C   UNL     1      -2.194  12.384  19.542  0.00  0.00    +0.000 C 
ATOM      4  C   UNL     1      -1.210  13.279  19.819  0.00  0.00    +0.000 C 
ATOM      5  C   UNL     1      -1.220  14.471  20.729  0.00  0.00    +0.000 C 
ATOM      6  C   UNL     1      -0.182  15.395  20.145  0.00  0.00    +0.000 C 
ATOM      7  N   UNL     1       0.769  14.515  19.544  0.00  0.00    +0.000 N 
ATOM      8  C   UNL     1       0.181  13.288  19.194  0.00  0.00    +0.000 C 
ATOM      9  O   UNL     1       0.645  12.353  18.574  0.00  0.00    +0.000 OA
ATOM     10  C   UNL     1      -3.588  12.397  20.154  0.00  0.00    +0.000 A 
ATOM     11  C   UNL     1      -3.918  12.791  21.476  0.00  0.00    +0.000 A 
ATOM     12 CL   UNL     1      -2.781  12.843  22.783  0.00  0.00    +0.000 Cl
ATOM     13  C   UNL     1      -5.247  12.977  21.884  0.00  0.00    +0.000 A 
ATOM     14  C   UNL     1      -6.284  12.609  21.048  0.00  0.00    +0.000 A 
ATOM     15 CL   UNL     1      -7.913  12.766  21.573  0.00  0.00    +0.000 Cl
ATOM     16  C   UNL     1      -6.003  12.039  19.817  0.00  0.00    +0.000 A 
ATOM     17  C   UNL     1      -4.681  11.947  19.347  0.00  0.00    +0.000 A 
ATOM     18  N   UNL     1      -4.508  11.222  18.134  0.00  0.00    +0.000 N 
ATOM     19  H   UNL     1      -5.323  11.314  17.524  0.00  0.00    +0.000 HD
ENDROOT
BRANCH   7  20
ATOM     20  C   UNL     1       2.090  14.932  19.217  0.00  0.00    +0.000 A 
ATOM     21  C   UNL     1       3.175  14.537  19.988  0.00  0.00    +0.000 A 
ATOM     22  C   UNL     1       4.472  14.955  19.680  0.00  0.00    +0.000 A 
ATOM     23  C   UNL     1       4.673  15.808  18.597  0.00  0.00    +0.000 A 
ATOM     24  C   UNL     1       3.608  16.222  17.813  0.00  0.00    +0.000 A 
ATOM     25  C   UNL     1       2.321  15.772  18.118  0.00  0.00    +0.000 A 
ENDBRANCH   7  20
BRANCH   1  27
ATOM     26  O   UNL     1      -2.834   9.569  16.090  0.00  0.00    +0.000 OA
ATOM     27  C   UNL     1      -3.162  10.752  16.129  0.00  0.00    +0.000 C 
BRANCH  27  28
ATOM     28  OXT UNL     1      -3.386  11.460  14.996  0.00  0.00    +0.000 OA
ATOM     29  HXT UNL     1      -3.573  12.407  15.171  0.00  0.00    +0.000 HD
ENDBRANCH  27  28
ENDBRANCH   1  27
TORSDOF 3
ENDMDL
MODEL 9
REMARK VINA RESULT:      -6.6      0.520      1.218
REMARK  Name = 
REMARK  3 active torsions:
REMARK  status: ('A' for Active; 'I' for Inactive)
REMARK    1  A    between atoms: C_2  and  OXT_3
REMARK    2  A    between atoms: C_2  and  CA_4
REMARK    3  A    between atoms: N_10  and  C_11
REMARK                            x       y       z     vdW  Elec       q    Type
REMARK                         _______ _______ _______ _____ _____    ______ ____
ROOT
ATOM      1  CA  UNL     1       1.473  14.375  19.935  0.00  0.00    +0.000 C 
ATOM      2  C   UNL     1       0.531  13.229  19.565  0.00  0.00    +0.000 C 
ATOM      3  C   UNL     1       0.117  12.489  20.850  0.00  0.00    +0.000 C 
ATOM      4  C   UNL     1       0.343  11.163  21.038  0.00  0.00    +0.000 C 
ATOM      5  C   UNL     1       0.207  10.329  22.277  0.00  0.00    +0.000 C 
ATOM      6  C   UNL     1       1.178   9.194  22.071  0.00  0.00    +0.000 C 
ATOM      7  N   UNL     1       1.204   9.011  20.654  0.00  0.00    +0.000 N 
ATOM      8  C   UNL     1       0.857  10.193  19.979  0.00  0.00    +0.000 C 
ATOM      9  O   UNL     1       0.877  10.444  18.791  0.00  0.00    +0.000 OA
ATOM     10  C   UNL     1      -0.374  13.455  21.920  0.00  0.00    +0.000 A 
ATOM     11  C   UNL     1      -1.278  13.152  22.970  0.00  0.00    +0.000 A 
ATOM     12 CL   UNL     1      -2.375  11.809  22.946  0.00  0.00    +0.000 Cl
ATOM     13  C   UNL     1      -1.505  14.039  24.032  0.00  0.00    +0.000 A 
ATOM     14  C   UNL     1      -0.977  15.315  23.990  0.00  0.00    +0.000 A 
ATOM     15 CL   UNL     1      -1.314  16.431  25.254  0.00  0.00    +0.000 Cl
ATOM     16  C   UNL     1      -0.243  15.718  22.886  0.00  0.00    +0.000 A 
ATOM     17  C   UNL     1       0.087  14.809  21.866  0.00  0.00    +0.000 A 
ATOM     18  N   UNL     1       0.725  15.370  20.723  0.00  0.00    +0.000 N 
ATOM     19  H   UNL     1       1.302  16.175  20.976  0.00  0.00    +0.000 HD
ENDROOT
BRANCH   7  20
ATOM     20  C   UNL     1       1.683   7.814  20.052  0.00  0.00    +0.000 A 
ATOM     21  C   UNL     1       1.617   6.601  20.723  0.00  0.00    +0.000 A 
ATOM     22  C   UNL     1       2.098   5.424  20.142  0.00  0.00    +0.000 A 
ATOM     23  C   UNL     1       2.681   5.480  18.877  0.00  0.00    +0.000 A 
ATOM     24  C   UNL     1       2.764   6.677  18.186  0.00  0.00    +0.000 A 
ATOM     25  C   UNL     1       2.252   7.839  18.770  0.00  0.00    +0.000 A 
ENDBRANCH   7  20
BRANCH   1  27
ATOM     26  O   UNL     1       3.077  14.568  18.110  0.00  0.00    +0.000 OA
ATOM     27  C   UNL     1       2.151  15.071  18.742  0.00  0.00    +0.000 C 
BRANCH  27  28
ATOM     28  OXT UNL     1       1.717  16.327  18.479  0.00  0.00    +0.000 OA
ATOM     29  HXT UNL     1       0.926  16.573  19.004  0.00  0.00    +0.000 HD
ENDBRANCH  27  28
ENDBRANCH   1  27
TORSDOF 3
ENDMDL
