MODEL 1
REMARK VINA RESULT:      -7.0      0.000      0.000
REMARK  Name = 
REMARK  4 active torsions:
REMARK  status: ('A' for Active; 'I' for Inactive)
REMARK    1  A    between atoms: C_1  and  C_2
REMARK    2  A    between atoms: C_5  and  C_6
REMARK    3  A    between atoms: C_7  and  N_8
REMARK    4  A    between atoms: N_11  and  C_12
REMARK                            x       y       z     vdW  Elec       q    Type
REMARK                         _______ _______ _______ _____ _____    ______ ____
ROOT
ATOM      1  N   UNL     1       4.440   5.425  16.532  0.00  0.00    +0.000 N 
ATOM      2  C   UNL     1       3.977   4.485  17.445  0.00  0.00    +0.000 C 
ATOM      3  O   UNL     1       4.450   3.362  17.583  0.00  0.00    +0.000 OA
ATOM      4  N   UNL     1       2.908   4.992  18.167  0.00  0.00    +0.000 N 
ATOM      5  H   UNL     1       4.502   6.345  16.942  0.00  0.00    +0.000 HD
ATOM      6  H   UNL     1       2.270   5.530  17.595  0.00  0.00    +0.000 HD
ENDROOT
BRANCH   1  13
ATOM      7  C   UNL     1       5.578   3.292  12.214  0.00  0.00    +0.000 C 
ATOM      8  C   UNL     1       5.998   4.040  13.445  0.00  0.00    +0.000 A 
ATOM      9  C   UNL     1       7.321   4.455  13.614  0.00  0.00    +0.000 A 
ATOM     10  C   UNL     1       7.693   5.183  14.746  0.00  0.00    +0.000 A 
ATOM     11  C   UNL     1       6.751   5.523  15.730  0.00  0.00    +0.000 A 
ATOM     12  C   UNL     1       7.211   6.263  16.954  0.00  0.00    +0.000 C 
ATOM     13  C   UNL     1       5.425   5.088  15.576  0.00  0.00    +0.000 A 
ATOM     14  C   UNL     1       5.059   4.347  14.440  0.00  0.00    +0.000 A 
ENDBRANCH   1  13
BRANCH   4  15
ATOM     15  C   UNL     1       2.338   4.283  19.247  0.00  0.00    +0.000 A 
ATOM     16  C   UNL     1       2.785   4.469  20.558  0.00  0.00    +0.000 A 
ATOM     17  C   UNL     1       2.203   3.753  21.608  0.00  0.00    +0.000 A 
ATOM     18  C   UNL     1       1.191   2.832  21.345  0.00  0.00    +0.000 A 
ATOM     19  C   UNL     1       0.738   2.649  20.039  0.00  0.00    +0.000 A 
ATOM     20  C   UNL     1       1.291   3.394  18.994  0.00  0.00    +0.000 A 
ENDBRANCH   4  15
TORSDOF 2
ENDMDL
MODEL 2
REMARK VINA RESULT:      -7.0      0.051      1.139
REMARK  Name = 
REMARK  4 active torsions:
REMARK  status: ('A' for Active; 'I' for Inactive)
REMARK    1  A    between atoms: C_1  and  C_2
REMARK    2  A    between atoms: C_5  and  C_6
REMARK    3  A    between atoms: C_7  and  N_8
REMARK    4  A    between atoms: N_11  and  C_12
REMARK                            x       y       z     vdW  Elec       q    Type
REMARK                         _______ _______ _______ _____ _____    ______ ____
ROOT
ATOM      1  N   UNL     1       4.446   5.401  16.569  0.00  0.00    +0.000 N 
ATOM      2  C   UNL     1       3.964   4.444  17.453  0.00  0.00    +0.000 C 
ATOM      3  O   UNL     1       4.410   3.305  17.552  0.00  0.00    +0.000 OA
ATOM      4  N   UNL     1       2.910   4.954  18.196  0.00  0.00    +0.000 N 
ATOM      5  H   UNL     1       4.533   6.306  17.009  0.00  0.00    +0.000 HD
ATOM      6  H   UNL     1       2.284   5.525  17.645  0.00  0.00    +0.000 HD
ENDROOT
BRANCH   1  13
ATOM      7  C   UNL     1       5.528   3.301  12.221  0.00  0.00    +0.000 C 
ATOM      8  C   UNL     1       5.964   4.040  13.452  0.00  0.00    +0.000 A 
ATOM      9  C   UNL     1       7.289   4.453  13.607  0.00  0.00    +0.000 A 
ATOM     10  C   UNL     1       7.676   5.173  14.740  0.00  0.00    +0.000 A 
ATOM     11  C   UNL     1       6.747   5.505  15.738  0.00  0.00    +0.000 A 
ATOM     12  C   UNL     1       7.223   6.236  16.962  0.00  0.00    +0.000 C 
ATOM     13  C   UNL     1       5.419   5.071  15.598  0.00  0.00    +0.000 A 
ATOM     14  C   UNL     1       5.038   4.339  14.462  0.00  0.00    +0.000 A 
ENDBRANCH   1  13
BRANCH   4  15
ATOM     15  C   UNL     1       2.328   4.224  19.255  0.00  0.00    +0.000 A 
ATOM     16  C   UNL     1       1.298   3.306  19.029  0.00  0.00    +0.000 A 
ATOM     17  C   UNL     1       0.741   2.598  20.097  0.00  0.00    +0.000 A 
ATOM     18  C   UNL     1       1.193   2.825  21.396  0.00  0.00    +0.000 A 
ATOM     19  C   UNL     1       2.224   3.735  21.624  0.00  0.00    +0.000 A 
ATOM     20  C   UNL     1       2.811   4.414  20.553  0.00  0.00    +0.000 A 
ENDBRANCH   4  15
TORSDOF 2
ENDMDL
MODEL 3
REMARK VINA RESULT:      -6.8      1.648      7.166
REMARK  Name = 
REMARK  4 active torsions:
REMARK  status: ('A' for Active; 'I' for Inactive)
REMARK    1  A    between atoms: C_1  and  C_2
REMARK    2  A    between atoms: C_5  and  C_6
REMARK    3  A    between atoms: C_7  and  N_8
REMARK    4  A    between atoms: N_11  and  C_12
REMARK                            x       y       z     vdW  Elec       q    Type
REMARK                         _______ _______ _______ _____ _____    ______ ____
ROOT
ATOM      1  N   UNL     1       4.983   3.856  18.128  0.00  0.00    +0.000 N 
ATOM      2  C   UNL     1       4.973   4.046  16.752  0.00  0.00    +0.000 C 
ATOM      3  O   UNL     1       3.986   4.385  16.107  0.00  0.00    +0.000 OA
ATOM      4  N   UNL     1       6.226   3.794  16.216  0.00  0.00    +0.000 N 
ATOM      5  H   UNL     1       5.802   4.261  18.556  0.00  0.00    +0.000 HD
ATOM      6  H   UNL     1       6.675   2.990  16.633  0.00  0.00    +0.000 HD
ENDROOT
BRANCH   1  13
ATOM      7  C   UNL     1       1.682   6.551  20.646  0.00  0.00    +0.000 C 
ATOM      8  C   UNL     1       2.149   5.224  20.122  0.00  0.00    +0.000 A 
ATOM      9  C   UNL     1       1.385   4.070  20.312  0.00  0.00    +0.000 A 
ATOM     10  C   UNL     1       1.811   2.848  19.787  0.00  0.00    +0.000 A 
ATOM     11  C   UNL     1       3.002   2.751  19.052  0.00  0.00    +0.000 A 
ATOM     12  C   UNL     1       3.443   1.405  18.552  0.00  0.00    +0.000 C 
ATOM     13  C   UNL     1       3.786   3.904  18.878  0.00  0.00    +0.000 A 
ATOM     14  C   UNL     1       3.358   5.128  19.418  0.00  0.00    +0.000 A 
ENDBRANCH   1  13
BRANCH   4  15
ATOM     15  C   UNL     1       6.515   4.040  14.856  0.00  0.00    +0.000 A 
ATOM     16  C   UNL     1       5.887   3.320  13.835  0.00  0.00    +0.000 A 
ATOM     17  C   UNL     1       6.193   3.585  12.498  0.00  0.00    +0.000 A 
ATOM     18  C   UNL     1       7.145   4.551  12.179  0.00  0.00    +0.000 A 
ATOM     19  C   UNL     1       7.768   5.276  13.194  0.00  0.00    +0.000 A 
ATOM     20  C   UNL     1       7.434   5.041  14.530  0.00  0.00    +0.000 A 
ENDBRANCH   4  15
TORSDOF 2
ENDMDL
MODEL 4
REMARK VINA RESULT:      -6.8      4.762      6.348
REMARK  Name = 
REMARK  4 active torsions:
REMARK  status: ('A' for Active; 'I' for Inactive)
REMARK    1  A    between atoms: C_1  and  C_2
REMARK    2  A    between atoms: C_5  and  C_6
REMARK    3  A    between atoms: C_7  and  N_8
REMARK    4  A    between atoms: N_11  and  C_12
REMARK                            x       y       z     vdW  Elec       q    Type
REMARK                         _______ _______ _______ _____ _____    ______ ____
ROOT
ATOM      1  N   UNL     1       2.406   6.658  20.552  0.00  0.00    +0.000 N 
ATOM      2  C   UNL     1       1.630   7.807  20.469  0.00  0.00    +0.000 C 
ATOM      3  O   UNL     1       1.069   8.192  19.448  0.00  0.00    +0.000 OA
ATOM      4  N   UNL     1       1.585   8.455  21.694  0.00  0.00    +0.000 N 
ATOM      5  H   UNL     1       2.208   6.133  21.391  0.00  0.00    +0.000 HD
ATOM      6  H   UNL     1       2.478   8.457  22.168  0.00  0.00    +0.000 HD
ENDROOT
BRANCH   1  13
ATOM      7  C   UNL     1       5.103   6.211  16.427  0.00  0.00    +0.000 C 
ATOM      8  C   UNL     1       4.054   5.678  17.358  0.00  0.00    +0.000 A 
ATOM      9  C   UNL     1       3.454   4.438  17.126  0.00  0.00    +0.000 A 
ATOM     10  C   UNL     1       2.506   3.936  18.021  0.00  0.00    +0.000 A 
ATOM     11  C   UNL     1       2.143   4.653  19.171  0.00  0.00    +0.000 A 
ATOM     12  C   UNL     1       1.082   4.094  20.075  0.00  0.00    +0.000 C 
ATOM     13  C   UNL     1       2.727   5.911  19.396  0.00  0.00    +0.000 A 
ATOM     14  C   UNL     1       3.672   6.416  18.488  0.00  0.00    +0.000 A 
ENDBRANCH   1  13
BRANCH   4  15
ATOM     15  C   UNL     1       0.757   9.578  21.909  0.00  0.00    +0.000 A 
ATOM     16  C   UNL     1       0.897  10.744  21.151  0.00  0.00    +0.000 A 
ATOM     17  C   UNL     1       0.064  11.841  21.387  0.00  0.00    +0.000 A 
ATOM     18  C   UNL     1      -0.893  11.784  22.398  0.00  0.00    +0.000 A 
ATOM     19  C   UNL     1      -1.040  10.620  23.152  0.00  0.00    +0.000 A 
ATOM     20  C   UNL     1      -0.235   9.508  22.890  0.00  0.00    +0.000 A 
ENDBRANCH   4  15
TORSDOF 2
ENDMDL
MODEL 5
REMARK VINA RESULT:      -6.7      1.659      7.084
REMARK  Name = 
REMARK  4 active torsions:
REMARK  status: ('A' for Active; 'I' for Inactive)
REMARK    1  A    between atoms: C_1  and  C_2
REMARK    2  A    between atoms: C_5  and  C_6
REMARK    3  A    between atoms: C_7  and  N_8
REMARK    4  A    between atoms: N_11  and  C_12
REMARK                            x       y       z     vdW  Elec       q    Type
REMARK                         _______ _______ _______ _____ _____    ______ ____
ROOT
ATOM      1  N   UNL     1       4.975   3.750  18.155  0.00  0.00    +0.000 N 
ATOM      2  C   UNL     1       4.998   4.044  16.798  0.00  0.00    +0.000 C 
ATOM      3  O   UNL     1       4.055   4.523  16.176  0.00  0.00    +0.000 OA
ATOM      4  N   UNL     1       6.228   3.716  16.248  0.00  0.00    +0.000 N 
ATOM      5  H   UNL     1       5.824   4.042  18.616  0.00  0.00    +0.000 HD
ATOM      6  H   UNL     1       6.594   2.843  16.604  0.00  0.00    +0.000 HD
ENDROOT
BRANCH   1  13
ATOM      7  C   UNL     1       1.776   6.605  20.628  0.00  0.00    +0.000 C 
ATOM      8  C   UNL     1       2.192   5.254  20.124  0.00  0.00    +0.000 A 
ATOM      9  C   UNL     1       1.384   4.133  20.328  0.00  0.00    +0.000 A 
ATOM     10  C   UNL     1       1.764   2.889  19.821  0.00  0.00    +0.000 A 
ATOM     11  C   UNL     1       2.952   2.736  19.090  0.00  0.00    +0.000 A 
ATOM     12  C   UNL     1       3.342   1.366  18.610  0.00  0.00    +0.000 C 
ATOM     13  C   UNL     1       3.780   3.855  18.902  0.00  0.00    +0.000 A 
ATOM     14  C   UNL     1       3.398   5.102  19.423  0.00  0.00    +0.000 A 
ENDBRANCH   1  13
BRANCH   4  15
ATOM     15  C   UNL     1       6.554   4.035  14.912  0.00  0.00    +0.000 A 
ATOM     16  C   UNL     1       7.447   5.066  14.606  0.00  0.00    +0.000 A 
ATOM     17  C   UNL     1       7.751   5.360  13.274  0.00  0.00    +0.000 A 
ATOM     18  C   UNL     1       7.143   4.642  12.246  0.00  0.00    +0.000 A 
ATOM     19  C   UNL     1       6.257   3.609  12.548  0.00  0.00    +0.000 A 
ATOM     20  C   UNL     1       5.984   3.286  13.880  0.00  0.00    +0.000 A 
ENDBRANCH   4  15
TORSDOF 2
ENDMDL
MODEL 6
REMARK VINA RESULT:      -6.7      1.653      7.002
REMARK  Name = 
REMARK  4 active torsions:
REMARK  status: ('A' for Active; 'I' for Inactive)
REMARK    1  A    between atoms: C_1  and  C_2
REMARK    2  A    between atoms: C_5  and  C_6
REMARK    3  A    between atoms: C_7  and  N_8
REMARK    4  A    between atoms: N_11  and  C_12
REMARK                            x       y       z     vdW  Elec       q    Type
REMARK                         _______ _______ _______ _____ _____    ______ ____
ROOT
ATOM      1  N   UNL     1       4.966   3.298  17.386  0.00  0.00    +0.000 N 
ATOM      2  C   UNL     1       5.162   3.976  16.190  0.00  0.00    +0.000 C 
ATOM      3  O   UNL     1       4.584   5.012  15.877  0.00  0.00    +0.000 OA
ATOM      4  N   UNL     1       6.092   3.316  15.401  0.00  0.00    +0.000 N 
ATOM      5  H   UNL     1       5.839   2.991  17.789  0.00  0.00    +0.000 HD
ATOM      6  H   UNL     1       5.981   2.311  15.425  0.00  0.00    +0.000 HD
ENDROOT
BRANCH   1  13
ATOM      7  C   UNL     1       0.368   2.675  19.108  0.00  0.00    +0.000 C 
ATOM      8  C   UNL     1       1.685   3.393  19.149  0.00  0.00    +0.000 A 
ATOM      9  C   UNL     1       1.932   4.384  20.101  0.00  0.00    +0.000 A 
ATOM     10  C   UNL     1       3.175   5.018  20.153  0.00  0.00    +0.000 A 
ATOM     11  C   UNL     1       4.203   4.672  19.263  0.00  0.00    +0.000 A 
ATOM     12  C   UNL     1       5.505   5.420  19.326  0.00  0.00    +0.000 C 
ATOM     13  C   UNL     1       3.953   3.692  18.288  0.00  0.00    +0.000 A 
ATOM     14  C   UNL     1       2.697   3.065  18.234  0.00  0.00    +0.000 A 
ENDBRANCH   1  13
BRANCH   4  15
ATOM     15  C   UNL     1       6.565   3.868  14.191  0.00  0.00    +0.000 A 
ATOM     16  C   UNL     1       6.191   3.338  12.952  0.00  0.00    +0.000 A 
ATOM     17  C   UNL     1       6.675   3.905  11.770  0.00  0.00    +0.000 A 
ATOM     18  C   UNL     1       7.553   4.985  11.824  0.00  0.00    +0.000 A 
ATOM     19  C   UNL     1       7.923   5.520  13.058  0.00  0.00    +0.000 A 
ATOM     20  C   UNL     1       7.408   4.981  14.239  0.00  0.00    +0.000 A 
ENDBRANCH   4  15
TORSDOF 2
ENDMDL
MODEL 7
REMARK VINA RESULT:      -6.7      1.652      6.911
REMARK  Name = 
REMARK  4 active torsions:
REMARK  status: ('A' for Active; 'I' for Inactive)
REMARK    1  A    between atoms: C_1  and  C_2
REMARK    2  A    between atoms: C_5  and  C_6
REMARK    3  A    between atoms: C_7  and  N_8
REMARK    4  A    between atoms: N_11  and  C_12
REMARK                            x       y       z     vdW  Elec       q    Type
REMARK                         _______ _______ _______ _____ _____    ______ ____
ROOT
ATOM      1  N   UNL     1       4.961   3.296  17.423  0.00  0.00    +0.000 N 
ATOM      2  C   UNL     1       5.168   3.979  16.231  0.00  0.00    +0.000 C 
ATOM      3  O   UNL     1       4.584   5.009  15.912  0.00  0.00    +0.000 OA
ATOM      4  N   UNL     1       6.118   3.331  15.457  0.00  0.00    +0.000 N 
ATOM      5  H   UNL     1       5.830   2.999  17.840  0.00  0.00    +0.000 HD
ATOM      6  H   UNL     1       6.018   2.325  15.477  0.00  0.00    +0.000 HD
ENDROOT
BRANCH   1  13
ATOM      7  C   UNL     1       0.349   2.607  19.082  0.00  0.00    +0.000 C 
ATOM      8  C   UNL     1       1.654   3.345  19.139  0.00  0.00    +0.000 A 
ATOM      9  C   UNL     1       1.872   4.343  20.092  0.00  0.00    +0.000 A 
ATOM     10  C   UNL     1       3.104   4.997  20.159  0.00  0.00    +0.000 A 
ATOM     11  C   UNL     1       4.150   4.663  19.285  0.00  0.00    +0.000 A 
ATOM     12  C   UNL     1       5.439   5.431  19.365  0.00  0.00    +0.000 C 
ATOM     13  C   UNL     1       3.929   3.677  18.310  0.00  0.00    +0.000 A 
ATOM     14  C   UNL     1       2.684   3.031  18.240  0.00  0.00    +0.000 A 
ENDBRANCH   1  13
BRANCH   4  15
ATOM     15  C   UNL     1       6.604   3.890  14.255  0.00  0.00    +0.000 A 
ATOM     16  C   UNL     1       7.477   4.982  14.259  0.00  0.00    +0.000 A 
ATOM     17  C   UNL     1       7.942   5.514  13.053  0.00  0.00    +0.000 A 
ATOM     18  C   UNL     1       7.515   4.974  11.842  0.00  0.00    +0.000 A 
ATOM     19  C   UNL     1       6.649   3.881  11.835  0.00  0.00    +0.000 A 
ATOM     20  C   UNL     1       6.216   3.321  13.039  0.00  0.00    +0.000 A 
ENDBRANCH   4  15
TORSDOF 2
ENDMDL
MODEL 8
REMARK VINA RESULT:      -6.7      1.244      1.244
REMARK  Name = 
REMARK  4 active torsions:
REMARK  status: ('A' for Active; 'I' for Inactive)
REMARK    1  A    between atoms: C_1  and  C_2
REMARK    2  A    between atoms: C_5  and  C_6
REMARK    3  A    between atoms: C_7  and  N_8
REMARK    4  A    between atoms: N_11  and  C_12
REMARK                            x       y       z     vdW  Elec       q    Type
REMARK                         _______ _______ _______ _____ _____    ______ ____
ROOT
ATOM      1  N   UNL     1       5.719   3.453  16.715  0.00  0.00    +0.000 N 
ATOM      2  C   UNL     1       4.528   3.933  17.244  0.00  0.00    +0.000 C 
ATOM      3  O   UNL     1       3.752   4.671  16.646  0.00  0.00    +0.000 OA
ATOM      4  N   UNL     1       4.345   3.466  18.537  0.00  0.00    +0.000 N 
ATOM      5  H   UNL     1       5.851   2.473  16.919  0.00  0.00    +0.000 HD
ATOM      6  H   UNL     1       5.200   3.469  19.077  0.00  0.00    +0.000 HD
ENDROOT
BRANCH   1  13
ATOM      7  C   UNL     1       5.832   2.960  11.792  0.00  0.00    +0.000 C 
ATOM      8  C   UNL     1       6.261   3.680  13.037  0.00  0.00    +0.000 A 
ATOM      9  C   UNL     1       7.063   4.821  12.963  0.00  0.00    +0.000 A 
ATOM     10  C   UNL     1       7.424   5.506  14.125  0.00  0.00    +0.000 A 
ATOM     11  C   UNL     1       6.986   5.073  15.387  0.00  0.00    +0.000 A 
ATOM     12  C   UNL     1       7.445   5.813  16.611  0.00  0.00    +0.000 C 
ATOM     13  C   UNL     1       6.199   3.913  15.468  0.00  0.00    +0.000 A 
ATOM     14  C   UNL     1       5.848   3.223  14.296  0.00  0.00    +0.000 A 
ENDBRANCH   1  13
BRANCH   4  15
ATOM     15  C   UNL     1       3.150   3.704  19.250  0.00  0.00    +0.000 A 
ATOM     16  C   UNL     1       2.994   4.836  20.056  0.00  0.00    +0.000 A 
ATOM     17  C   UNL     1       1.800   5.044  20.750  0.00  0.00    +0.000 A 
ATOM     18  C   UNL     1       0.769   4.110  20.662  0.00  0.00    +0.000 A 
ATOM     19  C   UNL     1       0.920   2.984  19.854  0.00  0.00    +0.000 A 
ATOM     20  C   UNL     1       2.097   2.794  19.127  0.00  0.00    +0.000 A 
ENDBRANCH   4  15
TORSDOF 2
ENDMDL
MODEL 9
REMARK VINA RESULT:      -6.7      1.250      1.626
REMARK  Name = 
REMARK  4 active torsions:
REMARK  status: ('A' for Active; 'I' for Inactive)
REMARK    1  A    between atoms: C_1  and  C_2
REMARK    2  A    between atoms: C_5  and  C_6
REMARK    3  A    between atoms: C_7  and  N_8
REMARK    4  A    between atoms: N_11  and  C_12
REMARK                            x       y       z     vdW  Elec       q    Type
REMARK                         _______ _______ _______ _____ _____    ______ ____
ROOT
ATOM      1  N   UNL     1       5.761   3.438  16.736  0.00  0.00    +0.000 N 
ATOM      2  C   UNL     1       4.554   3.873  17.267  0.00  0.00    +0.000 C 
ATOM      3  O   UNL     1       3.748   4.578  16.668  0.00  0.00    +0.000 OA
ATOM      4  N   UNL     1       4.394   3.407  18.562  0.00  0.00    +0.000 N 
ATOM      5  H   UNL     1       5.932   2.465  16.944  0.00  0.00    +0.000 HD
ATOM      6  H   UNL     1       5.250   3.445  19.100  0.00  0.00    +0.000 HD
ENDROOT
BRANCH   1  13
ATOM      7  C   UNL     1       5.826   2.961  11.810  0.00  0.00    +0.000 C 
ATOM      8  C   UNL     1       6.257   3.685  13.052  0.00  0.00    +0.000 A 
ATOM      9  C   UNL     1       7.037   4.840  12.972  0.00  0.00    +0.000 A 
ATOM     10  C   UNL     1       7.400   5.527  14.133  0.00  0.00    +0.000 A 
ATOM     11  C   UNL     1       6.984   5.084  15.398  0.00  0.00    +0.000 A 
ATOM     12  C   UNL     1       7.444   5.828  16.619  0.00  0.00    +0.000 C 
ATOM     13  C   UNL     1       6.219   3.909  15.484  0.00  0.00    +0.000 A 
ATOM     14  C   UNL     1       5.866   3.217  14.314  0.00  0.00    +0.000 A 
ENDBRANCH   1  13
BRANCH   4  15
ATOM     15  C   UNL     1       3.193   3.601  19.279  0.00  0.00    +0.000 A 
ATOM     16  C   UNL     1       2.163   2.657  19.246  0.00  0.00    +0.000 A 
ATOM     17  C   UNL     1       0.985   2.876  19.965  0.00  0.00    +0.000 A 
ATOM     18  C   UNL     1       0.824   4.051  20.698  0.00  0.00    +0.000 A 
ATOM     19  C   UNL     1       1.853   4.991  20.739  0.00  0.00    +0.000 A 
ATOM     20  C   UNL     1       3.048   4.755  20.053  0.00  0.00    +0.000 A 
ENDBRANCH   4  15
TORSDOF 2
ENDMDL
