MODEL 1
REMARK VINA RESULT:      -7.7      0.000      0.000
REMARK  Name = 
REMARK  9 active torsions:
REMARK  status: ('A' for Active; 'I' for Inactive)
REMARK    1  A    between atoms: C_1  and  C_2
REMARK    2  A    between atoms: C_4  and  C_5
REMARK    3  A    between atoms: C_5  and  C_6
REMARK    4  A    between atoms: C_5  and  C_7
REMARK    5  A    between atoms: C_5  and  N_8
REMARK    6  A    between atoms: N_8  and  C_9
REMARK    7  A    between atoms: C_9  and  C_10
REMARK    8  A    between atoms: C_13  and  C_14
REMARK    9  A    between atoms: C_21  and  C_22
REMARK                            x       y       z     vdW  Elec       q    Type
REMARK                         _______ _______ _______ _____ _____    ______ ____
ROOT
ATOM      1  N   UNL     1       3.679   3.437  18.619  0.00  0.00    +0.000 NA
ATOM      2  H   UNL     1       3.641   3.811  17.669  0.00  0.00    +0.000 HD
ENDROOT
BRANCH   1   3
ATOM      3  C   UNL     1       2.458   3.872  19.345  0.00  0.00    +0.000 C 
ATOM      4  C   UNL     1       2.482   3.347  20.799  0.00  0.00    +0.000 C 
ATOM      5  C   UNL     1       1.255   3.199  18.647  0.00  0.00    +0.000 C 
BRANCH   3   9
ATOM      6  C   UNL     1       1.337   8.366  21.156  0.00  0.00    +0.000 C 
ATOM      7  C   UNL     1       1.799   7.436  20.094  0.00  0.00    +0.000 A 
ATOM      8  N   UNL     1       1.862   6.088  20.390  0.00  0.00    +0.000 NA
ATOM      9  C   UNL     1       2.266   5.394  19.343  0.00  0.00    +0.000 A 
ATOM     10  S   UNL     1       2.620   6.350  17.949  0.00  0.00    +0.000 S 
ATOM     11  C   UNL     1       2.185   7.767  18.807  0.00  0.00    +0.000 A 
ATOM     12  C   UNL     1       2.252   9.107  18.165  0.00  0.00    +0.000 C 
ENDBRANCH   3   9
ENDBRANCH   1   3
BRANCH   1  13
ATOM     13  C   UNL     1       4.941   3.883  19.234  0.00  0.00    +0.000 C 
BRANCH  13  14
ATOM     14  C   UNL     1       5.970   4.196  18.200  0.00  0.00    +0.000 A 
ATOM     15  N   UNL     1       7.230   4.546  18.354  0.00  0.00    +0.000 NA
ATOM     16  N   UNL     1       7.740   4.708  17.082  0.00  0.00    +0.000 NA
ATOM     17  C   UNL     1       6.757   4.455  16.234  0.00  0.00    +0.000 A 
ATOM     18  O   UNL     1       5.596   4.114  16.887  0.00  0.00    +0.000 OA
BRANCH  17  19
ATOM     19  C   UNL     1       6.885   4.516  14.810  0.00  0.00    +0.000 A 
ATOM     20  C   UNL     1       6.185   3.798  13.852  0.00  0.00    +0.000 A 
ATOM     21  C   UNL     1       6.667   4.205  12.584  0.00  0.00    +0.000 A 
ATOM     22  C   UNL     1       7.633   5.149  12.833  0.00  0.00    +0.000 A 
ATOM     23  O   UNL     1       7.772   5.347  14.168  0.00  0.00    +0.000 OA
ENDBRANCH  17  19
ENDBRANCH  13  14
ENDBRANCH   1  13
TORSDOF 5
ENDMDL
MODEL 2
REMARK VINA RESULT:      -7.6      1.374      1.834
REMARK  Name = 
REMARK  9 active torsions:
REMARK  status: ('A' for Active; 'I' for Inactive)
REMARK    1  A    between atoms: C_1  and  C_2
REMARK    2  A    between atoms: C_4  and  C_5
REMARK    3  A    between atoms: C_5  and  C_6
REMARK    4  A    between atoms: C_5  and  C_7
REMARK    5  A    between atoms: C_5  and  N_8
REMARK    6  A    between atoms: N_8  and  C_9
REMARK    7  A    between atoms: C_9  and  C_10
REMARK    8  A    between atoms: C_13  and  C_14
REMARK    9  A    between atoms: C_21  and  C_22
REMARK                            x       y       z     vdW  Elec       q    Type
REMARK                         _______ _______ _______ _____ _____    ______ ____
ROOT
ATOM      1  N   UNL     1       4.835   3.318  18.726  0.00  0.00    +0.000 NA
ATOM      2  H   UNL     1       5.082   2.935  17.812  0.00  0.00    +0.000 HD
ENDROOT
BRANCH   1   3
ATOM      3  C   UNL     1       3.359   3.472  18.789  0.00  0.00    +0.000 C 
ATOM      4  C   UNL     1       2.765   2.532  19.863  0.00  0.00    +0.000 C 
ATOM      5  C   UNL     1       2.799   3.003  17.427  0.00  0.00    +0.000 C 
BRANCH   3   9
ATOM      6  C   UNL     1       2.444   8.258  17.796  0.00  0.00    +0.000 C 
ATOM      7  C   UNL     1       2.464   7.061  18.676  0.00  0.00    +0.000 A 
ATOM      8  N   UNL     1       2.938   5.875  18.151  0.00  0.00    +0.000 NA
ATOM      9  C   UNL     1       2.915   4.916  19.056  0.00  0.00    +0.000 A 
ATOM     10  S   UNL     1       2.285   5.400  20.589  0.00  0.00    +0.000 S 
ATOM     11  C   UNL     1       2.054   6.990  19.996  0.00  0.00    +0.000 A 
ATOM     12  C   UNL     1       1.485   8.059  20.858  0.00  0.00    +0.000 C 
ENDBRANCH   3   9
ENDBRANCH   1   3
BRANCH   1  13
ATOM     13  C   UNL     1       5.584   4.572  18.912  0.00  0.00    +0.000 C 
BRANCH  13  14
ATOM     14  C   UNL     1       6.259   4.995  17.652  0.00  0.00    +0.000 A 
ATOM     15  N   UNL     1       7.123   5.969  17.452  0.00  0.00    +0.000 NA
ATOM     16  N   UNL     1       7.443   5.927  16.111  0.00  0.00    +0.000 NA
ATOM     17  C   UNL     1       6.751   4.936  15.576  0.00  0.00    +0.000 A 
ATOM     18  O   UNL     1       5.975   4.294  16.512  0.00  0.00    +0.000 OA
BRANCH  17  19
ATOM     19  C   UNL     1       6.805   4.567  14.194  0.00  0.00    +0.000 A 
ATOM     20  C   UNL     1       7.594   5.109  13.190  0.00  0.00    +0.000 A 
ATOM     21  C   UNL     1       7.290   4.416  11.994  0.00  0.00    +0.000 A 
ATOM     22  C   UNL     1       6.335   3.487  12.329  0.00  0.00    +0.000 A 
ATOM     23  O   UNL     1       6.037   3.568  13.650  0.00  0.00    +0.000 OA
ENDBRANCH  17  19
ENDBRANCH  13  14
ENDBRANCH   1  13
TORSDOF 5
ENDMDL
MODEL 3
REMARK VINA RESULT:      -7.5      2.341      3.919
REMARK  Name = 
REMARK  9 active torsions:
REMARK  status: ('A' for Active; 'I' for Inactive)
REMARK    1  A    between atoms: C_1  and  C_2
REMARK    2  A    between atoms: C_4  and  C_5
REMARK    3  A    between atoms: C_5  and  C_6
REMARK    4  A    between atoms: C_5  and  C_7
REMARK    5  A    between atoms: C_5  and  N_8
REMARK    6  A    between atoms: N_8  and  C_9
REMARK    7  A    between atoms: C_9  and  C_10
REMARK    8  A    between atoms: C_13  and  C_14
REMARK    9  A    between atoms: C_21  and  C_22
REMARK                            x       y       z     vdW  Elec       q    Type
REMARK                         _______ _______ _______ _____ _____    ______ ____
ROOT
ATOM      1  N   UNL     1       6.191   4.050  17.550  0.00  0.00    +0.000 NA
ATOM      2  H   UNL     1       5.658   3.588  16.810  0.00  0.00    +0.000 HD
ENDROOT
BRANCH   1   3
ATOM      3  C   UNL     1       5.263   4.907  18.333  0.00  0.00    +0.000 C 
ATOM      4  C   UNL     1       4.844   6.143  17.504  0.00  0.00    +0.000 C 
ATOM      5  C   UNL     1       6.056   5.434  19.550  0.00  0.00    +0.000 C 
BRANCH   3   9
ATOM      6  C   UNL     1       2.080   2.905  21.588  0.00  0.00    +0.000 C 
ATOM      7  C   UNL     1       2.541   3.257  20.219  0.00  0.00    +0.000 A 
ATOM      8  N   UNL     1       3.734   3.940  20.089  0.00  0.00    +0.000 NA
ATOM      9  C   UNL     1       4.016   4.158  18.819  0.00  0.00    +0.000 A 
ATOM     10  S   UNL     1       2.826   3.569  17.714  0.00  0.00    +0.000 S 
ATOM     11  C   UNL     1       1.898   2.976  19.026  0.00  0.00    +0.000 A 
ATOM     12  C   UNL     1       0.605   2.277  18.802  0.00  0.00    +0.000 C 
ENDBRANCH   3   9
ENDBRANCH   1   3
BRANCH   1  13
ATOM     13  C   UNL     1       7.304   4.780  16.921  0.00  0.00    +0.000 C 
BRANCH  13  14
ATOM     14  C   UNL     1       7.201   4.755  15.433  0.00  0.00    +0.000 A 
ATOM     15  N   UNL     1       7.830   5.489  14.539  0.00  0.00    +0.000 NA
ATOM     16  N   UNL     1       7.380   5.060  13.307  0.00  0.00    +0.000 NA
ATOM     17  C   UNL     1       6.500   4.099  13.528  0.00  0.00    +0.000 A 
ATOM     18  O   UNL     1       6.343   3.850  14.871  0.00  0.00    +0.000 OA
BRANCH  17  19
ATOM     19  C   UNL     1       5.801   3.393  12.498  0.00  0.00    +0.000 A 
ATOM     20  C   UNL     1       4.564   3.685  11.942  0.00  0.00    +0.000 A 
ATOM     21  C   UNL     1       4.297   2.699  10.963  0.00  0.00    +0.000 A 
ATOM     22  C   UNL     1       5.383   1.857  10.970  0.00  0.00    +0.000 A 
ATOM     23  O   UNL     1       6.295   2.266  11.887  0.00  0.00    +0.000 OA
ENDBRANCH  17  19
ENDBRANCH  13  14
ENDBRANCH   1  13
TORSDOF 5
ENDMDL
MODEL 4
REMARK VINA RESULT:      -7.3      1.158      1.304
REMARK  Name = 
REMARK  9 active torsions:
REMARK  status: ('A' for Active; 'I' for Inactive)
REMARK    1  A    between atoms: C_1  and  C_2
REMARK    2  A    between atoms: C_4  and  C_5
REMARK    3  A    between atoms: C_5  and  C_6
REMARK    4  A    between atoms: C_5  and  C_7
REMARK    5  A    between atoms: C_5  and  N_8
REMARK    6  A    between atoms: N_8  and  C_9
REMARK    7  A    between atoms: C_9  and  C_10
REMARK    8  A    between atoms: C_13  and  C_14
REMARK    9  A    between atoms: C_21  and  C_22
REMARK                            x       y       z     vdW  Elec       q    Type
REMARK                         _______ _______ _______ _____ _____    ______ ____
ROOT
ATOM      1  N   UNL     1       4.435   5.549  19.594  0.00  0.00    +0.000 NA
ATOM      2  H   UNL     1       4.769   5.561  20.560  0.00  0.00    +0.000 HD
ENDROOT
BRANCH   1   3
ATOM      3  C   UNL     1       2.951   5.497  19.608  0.00  0.00    +0.000 C 
ATOM      4  C   UNL     1       2.454   4.673  20.819  0.00  0.00    +0.000 C 
ATOM      5  C   UNL     1       2.515   4.732  18.338  0.00  0.00    +0.000 C 
BRANCH   3   9
ATOM      6  C   UNL     1       0.476   9.398  21.449  0.00  0.00    +0.000 C 
ATOM      7  C   UNL     1       1.215   8.672  20.384  0.00  0.00    +0.000 A 
ATOM      8  N   UNL     1       1.687   7.405  20.667  0.00  0.00    +0.000 NA
ATOM      9  C   UNL     1       2.299   6.885  19.620  0.00  0.00    +0.000 A 
ATOM     10  S   UNL     1       2.360   7.925  18.242  0.00  0.00    +0.000 S 
ATOM     11  C   UNL     1       1.498   9.126  19.107  0.00  0.00    +0.000 A 
ATOM     12  C   UNL     1       1.157  10.430  18.482  0.00  0.00    +0.000 C 
ENDBRANCH   3   9
ENDBRANCH   1   3
BRANCH   1  13
ATOM     13  C   UNL     1       5.075   4.415  18.906  0.00  0.00    +0.000 C 
BRANCH  13  14
ATOM     14  C   UNL     1       5.929   4.877  17.773  0.00  0.00    +0.000 A 
ATOM     15  N   UNL     1       6.906   5.759  17.767  0.00  0.00    +0.000 NA
ATOM     16  N   UNL     1       7.369   5.810  16.469  0.00  0.00    +0.000 NA
ATOM     17  C   UNL     1       6.641   4.962  15.763  0.00  0.00    +0.000 A 
ATOM     18  O   UNL     1       5.702   4.326  16.541  0.00  0.00    +0.000 OA
BRANCH  17  19
ATOM     19  C   UNL     1       6.812   4.724  14.362  0.00  0.00    +0.000 A 
ATOM     20  C   UNL     1       6.191   3.769  13.570  0.00  0.00    +0.000 A 
ATOM     21  C   UNL     1       6.687   3.925  12.254  0.00  0.00    +0.000 A 
ATOM     22  C   UNL     1       7.582   4.966  12.309  0.00  0.00    +0.000 A 
ATOM     23  O   UNL     1       7.664   5.455  13.572  0.00  0.00    +0.000 OA
ENDBRANCH  17  19
ENDBRANCH  13  14
ENDBRANCH   1  13
TORSDOF 5
ENDMDL
MODEL 5
REMARK VINA RESULT:      -7.1      1.316      1.591
REMARK  Name = 
REMARK  9 active torsions:
REMARK  status: ('A' for Active; 'I' for Inactive)
REMARK    1  A    between atoms: C_1  and  C_2
REMARK    2  A    between atoms: C_4  and  C_5
REMARK    3  A    between atoms: C_5  and  C_6
REMARK    4  A    between atoms: C_5  and  C_7
REMARK    5  A    between atoms: C_5  and  N_8
REMARK    6  A    between atoms: N_8  and  C_9
REMARK    7  A    between atoms: C_9  and  C_10
REMARK    8  A    between atoms: C_13  and  C_14
REMARK    9  A    between atoms: C_21  and  C_22
REMARK                            x       y       z     vdW  Elec       q    Type
REMARK                         _______ _______ _______ _____ _____    ______ ____
ROOT
ATOM      1  N   UNL     1       4.260   5.839  18.583  0.00  0.00    +0.000 NA
ATOM      2  H   UNL     1       4.697   6.630  19.060  0.00  0.00    +0.000 HD
ENDROOT
BRANCH   1   3
ATOM      3  C   UNL     1       2.875   5.686  19.097  0.00  0.00    +0.000 C 
ATOM      4  C   UNL     1       2.864   4.789  20.356  0.00  0.00    +0.000 C 
ATOM      5  C   UNL     1       2.071   4.938  18.009  0.00  0.00    +0.000 C 
BRANCH   3   9
ATOM      6  C   UNL     1       0.385   9.073  21.754  0.00  0.00    +0.000 C 
ATOM      7  C   UNL     1       1.102   8.594  20.544  0.00  0.00    +0.000 A 
ATOM      8  N   UNL     1       1.609   7.310  20.553  0.00  0.00    +0.000 NA
ATOM      9  C   UNL     1       2.195   7.026  19.405  0.00  0.00    +0.000 A 
ATOM     10  S   UNL     1       2.188   8.321  18.264  0.00  0.00    +0.000 S 
ATOM     11  C   UNL     1       1.332   9.302  19.377  0.00  0.00    +0.000 A 
ATOM     12  C   UNL     1       0.943  10.696  19.036  0.00  0.00    +0.000 C 
ENDBRANCH   3   9
ENDBRANCH   1   3
BRANCH   1  13
ATOM     13  C   UNL     1       5.115   4.657  18.785  0.00  0.00    +0.000 C 
BRANCH  13  14
ATOM     14  C   UNL     1       6.124   4.521  17.695  0.00  0.00    +0.000 A 
ATOM     15  N   UNL     1       7.432   4.389  17.777  0.00  0.00    +0.000 NA
ATOM     16  N   UNL     1       7.889   4.294  16.479  0.00  0.00    +0.000 NA
ATOM     17  C   UNL     1       6.833   4.382  15.688  0.00  0.00    +0.000 A 
ATOM     18  O   UNL     1       5.669   4.523  16.404  0.00  0.00    +0.000 OA
BRANCH  17  19
ATOM     19  C   UNL     1       6.890   4.328  14.258  0.00  0.00    +0.000 A 
ATOM     20  C   UNL     1       7.644   5.112  13.397  0.00  0.00    +0.000 A 
ATOM     21  C   UNL     1       7.359   4.684  12.078  0.00  0.00    +0.000 A 
ATOM     22  C   UNL     1       6.450   3.662  12.201  0.00  0.00    +0.000 A 
ATOM     23  O   UNL     1       6.162   3.437  13.508  0.00  0.00    +0.000 OA
ENDBRANCH  17  19
ENDBRANCH  13  14
ENDBRANCH   1  13
TORSDOF 5
ENDMDL
MODEL 6
REMARK VINA RESULT:      -7.0      2.356      3.216
REMARK  Name = 
REMARK  9 active torsions:
REMARK  status: ('A' for Active; 'I' for Inactive)
REMARK    1  A    between atoms: C_1  and  C_2
REMARK    2  A    between atoms: C_4  and  C_5
REMARK    3  A    between atoms: C_5  and  C_6
REMARK    4  A    between atoms: C_5  and  C_7
REMARK    5  A    between atoms: C_5  and  N_8
REMARK    6  A    between atoms: N_8  and  C_9
REMARK    7  A    between atoms: C_9  and  C_10
REMARK    8  A    between atoms: C_13  and  C_14
REMARK    9  A    between atoms: C_21  and  C_22
REMARK                            x       y       z     vdW  Elec       q    Type
REMARK                         _______ _______ _______ _____ _____    ______ ____
ROOT
ATOM      1  N   UNL     1       4.036   3.320  18.769  0.00  0.00    +0.000 NA
ATOM      2  H   UNL     1       4.238   2.448  19.263  0.00  0.00    +0.000 HD
ENDROOT
BRANCH   1   3
ATOM      3  C   UNL     1       2.607   3.662  18.983  0.00  0.00    +0.000 C 
ATOM      4  C   UNL     1       2.023   2.830  20.148  0.00  0.00    +0.000 C 
ATOM      5  C   UNL     1       1.846   3.237  17.707  0.00  0.00    +0.000 C 
BRANCH   3   9
ATOM      6  C   UNL     1       2.438   8.530  17.977  0.00  0.00    +0.000 C 
ATOM      7  C   UNL     1       2.261   7.344  18.856  0.00  0.00    +0.000 A 
ATOM      8  N   UNL     1       2.563   6.100  18.339  0.00  0.00    +0.000 NA
ATOM      9  C   UNL     1       2.377   5.157  19.242  0.00  0.00    +0.000 A 
ATOM     10  S   UNL     1       1.793   5.732  20.762  0.00  0.00    +0.000 S 
ATOM     11  C   UNL     1       1.814   7.337  20.166  0.00  0.00    +0.000 A 
ATOM     12  C   UNL     1       1.393   8.481  21.017  0.00  0.00    +0.000 C 
ENDBRANCH   3   9
ENDBRANCH   1   3
BRANCH   1  13
ATOM     13  C   UNL     1       4.412   3.140  17.357  0.00  0.00    +0.000 C 
BRANCH  13  14
ATOM     14  C   UNL     1       5.513   4.067  16.964  0.00  0.00    +0.000 A 
ATOM     15  N   UNL     1       6.317   4.016  15.922  0.00  0.00    +0.000 NA
ATOM     16  N   UNL     1       7.146   5.114  16.024  0.00  0.00    +0.000 NA
ATOM     17  C   UNL     1       6.801   5.760  17.125  0.00  0.00    +0.000 A 
ATOM     18  O   UNL     1       5.756   5.144  17.772  0.00  0.00    +0.000 OA
BRANCH  17  19
ATOM     19  C   UNL     1       7.430   6.960  17.586  0.00  0.00    +0.000 A 
ATOM     20  C   UNL     1       8.242   7.134  18.696  0.00  0.00    +0.000 A 
ATOM     21  C   UNL     1       8.618   8.497  18.736  0.00  0.00    +0.000 A 
ATOM     22  C   UNL     1       8.019   9.086  17.649  0.00  0.00    +0.000 A 
ATOM     23  O   UNL     1       7.303   8.170  16.949  0.00  0.00    +0.000 OA
ENDBRANCH  17  19
ENDBRANCH  13  14
ENDBRANCH   1  13
TORSDOF 5
ENDMDL
MODEL 7
REMARK VINA RESULT:      -7.0      4.503      5.877
REMARK  Name = 
REMARK  9 active torsions:
REMARK  status: ('A' for Active; 'I' for Inactive)
REMARK    1  A    between atoms: C_1  and  C_2
REMARK    2  A    between atoms: C_4  and  C_5
REMARK    3  A    between atoms: C_5  and  C_6
REMARK    4  A    between atoms: C_5  and  C_7
REMARK    5  A    between atoms: C_5  and  N_8
REMARK    6  A    between atoms: N_8  and  C_9
REMARK    7  A    between atoms: C_9  and  C_10
REMARK    8  A    between atoms: C_13  and  C_14
REMARK    9  A    between atoms: C_21  and  C_22
REMARK                            x       y       z     vdW  Elec       q    Type
REMARK                         _______ _______ _______ _____ _____    ______ ____
ROOT
ATOM      1  N   UNL     1       6.117   5.610  18.917  0.00  0.00    +0.000 NA
ATOM      2  H   UNL     1       6.150   4.902  19.653  0.00  0.00    +0.000 HD
ENDROOT
BRANCH   1   3
ATOM      3  C   UNL     1       5.095   5.205  17.919  0.00  0.00    +0.000 C 
ATOM      4  C   UNL     1       5.757   4.428  16.757  0.00  0.00    +0.000 C 
ATOM      5  C   UNL     1       4.516   6.504  17.314  0.00  0.00    +0.000 C 
BRANCH   3   9
ATOM      6  C   UNL     1       2.386   3.018  21.469  0.00  0.00    +0.000 C 
ATOM      7  C   UNL     1       2.692   3.381  20.062  0.00  0.00    +0.000 A 
ATOM      8  N   UNL     1       3.811   4.152  19.816  0.00  0.00    +0.000 NA
ATOM      9  C   UNL     1       3.959   4.370  18.524  0.00  0.00    +0.000 A 
ATOM     10  S   UNL     1       2.725   3.672  17.538  0.00  0.00    +0.000 S 
ATOM     11  C   UNL     1       1.969   3.031  18.935  0.00  0.00    +0.000 A 
ATOM     12  C   UNL     1       0.720   2.231  18.836  0.00  0.00    +0.000 C 
ENDBRANCH   3   9
ENDBRANCH   1   3
BRANCH   1  13
ATOM     13  C   UNL     1       7.475   5.760  18.368  0.00  0.00    +0.000 C 
BRANCH  13  14
ATOM     14  C   UNL     1       7.786   7.187  18.064  0.00  0.00    +0.000 A 
ATOM     15  N   UNL     1       7.433   7.917  17.026  0.00  0.00    +0.000 NA
ATOM     16  N   UNL     1       7.972   9.169  17.238  0.00  0.00    +0.000 NA
ATOM     17  C   UNL     1       8.626   9.121  18.386  0.00  0.00    +0.000 A 
ATOM     18  O   UNL     1       8.541   7.879  18.971  0.00  0.00    +0.000 OA
BRANCH  17  19
ATOM     19  C   UNL     1       9.329  10.228  18.960  0.00  0.00    +0.000 A 
ATOM     20  C   UNL     1       9.368  10.628  20.288  0.00  0.00    +0.000 A 
ATOM     21  C   UNL     1      10.193  11.775  20.360  0.00  0.00    +0.000 A 
ATOM     22  C   UNL     1      10.618  12.015  19.075  0.00  0.00    +0.000 A 
ATOM     23  O   UNL     1      10.106  11.090  18.225  0.00  0.00    +0.000 OA
ENDBRANCH  17  19
ENDBRANCH  13  14
ENDBRANCH   1  13
TORSDOF 5
ENDMDL
MODEL 8
REMARK VINA RESULT:      -7.0      1.013      1.265
REMARK  Name = 
REMARK  9 active torsions:
REMARK  status: ('A' for Active; 'I' for Inactive)
REMARK    1  A    between atoms: C_1  and  C_2
REMARK    2  A    between atoms: C_4  and  C_5
REMARK    3  A    between atoms: C_5  and  C_6
REMARK    4  A    between atoms: C_5  and  C_7
REMARK    5  A    between atoms: C_5  and  N_8
REMARK    6  A    between atoms: N_8  and  C_9
REMARK    7  A    between atoms: C_9  and  C_10
REMARK    8  A    between atoms: C_13  and  C_14
REMARK    9  A    between atoms: C_21  and  C_22
REMARK                            x       y       z     vdW  Elec       q    Type
REMARK                         _______ _______ _______ _____ _____    ______ ____
ROOT
ATOM      1  N   UNL     1       3.041   2.750  19.345  0.00  0.00    +0.000 NA
ATOM      2  H   UNL     1       3.095   3.033  18.364  0.00  0.00    +0.000 HD
ENDROOT
BRANCH   1   3
ATOM      3  C   UNL     1       1.907   3.470  19.979  0.00  0.00    +0.000 C 
ATOM      4  C   UNL     1       1.870   3.182  21.498  0.00  0.00    +0.000 C 
ATOM      5  C   UNL     1       0.608   2.881  19.382  0.00  0.00    +0.000 C 
BRANCH   3   9
ATOM      6  C   UNL     1       1.544   8.309  21.065  0.00  0.00    +0.000 C 
ATOM      7  C   UNL     1       1.815   7.165  20.157  0.00  0.00    +0.000 A 
ATOM      8  N   UNL     1       1.691   5.887  20.665  0.00  0.00    +0.000 NA
ATOM      9  C   UNL     1       1.942   4.984  19.736  0.00  0.00    +0.000 A 
ATOM     10  S   UNL     1       2.372   5.644  18.199  0.00  0.00    +0.000 S 
ATOM     11  C   UNL     1       2.189   7.228  18.826  0.00  0.00    +0.000 A 
ATOM     12  C   UNL     1       2.425   8.424  17.975  0.00  0.00    +0.000 C 
ENDBRANCH   3   9
ENDBRANCH   1   3
BRANCH   1  13
ATOM     13  C   UNL     1       4.349   3.012  19.967  0.00  0.00    +0.000 C 
BRANCH  13  14
ATOM     14  C   UNL     1       5.271   3.711  19.025  0.00  0.00    +0.000 A 
ATOM     15  N   UNL     1       6.244   4.560  19.283  0.00  0.00    +0.000 NA
ATOM     16  N   UNL     1       6.788   4.900  18.061  0.00  0.00    +0.000 NA
ATOM     17  C   UNL     1       6.108   4.244  17.137  0.00  0.00    +0.000 A 
ATOM     18  O   UNL     1       5.124   3.458  17.689  0.00  0.00    +0.000 OA
BRANCH  17  19
ATOM     19  C   UNL     1       6.368   4.330  15.732  0.00  0.00    +0.000 A 
ATOM     20  C   UNL     1       7.198   5.218  15.063  0.00  0.00    +0.000 A 
ATOM     21  C   UNL     1       7.121   4.911  13.684  0.00  0.00    +0.000 A 
ATOM     22  C   UNL     1       6.253   3.852  13.581  0.00  0.00    +0.000 A 
ATOM     23  O   UNL     1       5.794   3.492  14.806  0.00  0.00    +0.000 OA
ENDBRANCH  17  19
ENDBRANCH  13  14
ENDBRANCH   1  13
TORSDOF 5
ENDMDL
MODEL 9
REMARK VINA RESULT:      -6.9      3.188      7.494
REMARK  Name = 
REMARK  9 active torsions:
REMARK  status: ('A' for Active; 'I' for Inactive)
REMARK    1  A    between atoms: C_1  and  C_2
REMARK    2  A    between atoms: C_4  and  C_5
REMARK    3  A    between atoms: C_5  and  C_6
REMARK    4  A    between atoms: C_5  and  C_7
REMARK    5  A    between atoms: C_5  and  N_8
REMARK    6  A    between atoms: N_8  and  C_9
REMARK    7  A    between atoms: C_9  and  C_10
REMARK    8  A    between atoms: C_13  and  C_14
REMARK    9  A    between atoms: C_21  and  C_22
REMARK                            x       y       z     vdW  Elec       q    Type
REMARK                         _______ _______ _______ _____ _____    ______ ____
ROOT
ATOM      1  N   UNL     1       2.205   4.147  19.159  0.00  0.00    +0.000 NA
ATOM      2  H   UNL     1       1.322   3.636  19.104  0.00  0.00    +0.000 HD
ENDROOT
BRANCH   1   3
ATOM      3  C   UNL     1       3.317   3.189  18.928  0.00  0.00    +0.000 C 
ATOM      4  C   UNL     1       2.835   2.005  18.058  0.00  0.00    +0.000 C 
ATOM      5  C   UNL     1       3.701   2.603  20.305  0.00  0.00    +0.000 C 
BRANCH   3   9
ATOM      6  C   UNL     1       7.740   5.454  18.728  0.00  0.00    +0.000 C 
ATOM      7  C   UNL     1       6.532   4.836  18.123  0.00  0.00    +0.000 A 
ATOM      8  N   UNL     1       5.565   4.332  18.970  0.00  0.00    +0.000 NA
ATOM      9  C   UNL     1       4.549   3.840  18.286  0.00  0.00    +0.000 A 
ATOM     10  S   UNL     1       4.732   3.938  16.572  0.00  0.00    +0.000 S 
ATOM     11  C   UNL     1       6.252   4.701  16.774  0.00  0.00    +0.000 A 
ATOM     12  C   UNL     1       7.069   5.114  15.603  0.00  0.00    +0.000 C 
ENDBRANCH   3   9
ENDBRANCH   1   3
BRANCH   1  13
ATOM     13  C   UNL     1       2.256   4.830  20.462  0.00  0.00    +0.000 C 
BRANCH  13  14
ATOM     14  C   UNL     1       1.979   6.290  20.323  0.00  0.00    +0.000 A 
ATOM     15  N   UNL     1       2.411   7.140  19.414  0.00  0.00    +0.000 NA
ATOM     16  N   UNL     1       1.854   8.360  19.736  0.00  0.00    +0.000 NA
ATOM     17  C   UNL     1       1.125   8.179  20.825  0.00  0.00    +0.000 A 
ATOM     18  O   UNL     1       1.159   6.872  21.250  0.00  0.00    +0.000 OA
BRANCH  17  19
ATOM     19  C   UNL     1       0.383   9.214  21.479  0.00  0.00    +0.000 A 
ATOM     20  C   UNL     1      -0.010   9.281  22.807  0.00  0.00    +0.000 A 
ATOM     21  C   UNL     1      -0.723  10.492  22.976  0.00  0.00    +0.000 A 
ATOM     22  C   UNL     1      -0.726  11.102  21.745  0.00  0.00    +0.000 A 
ATOM     23  O   UNL     1      -0.062  10.343  20.837  0.00  0.00    +0.000 OA
ENDBRANCH  17  19
ENDBRANCH  13  14
ENDBRANCH   1  13
TORSDOF 5
ENDMDL
