MODEL 1
REMARK VINA RESULT:      -8.9      0.000      0.000
REMARK  Name = 
REMARK  5 active torsions:
REMARK  status: ('A' for Active; 'I' for Inactive)
REMARK    1  A    between atoms: N_1  and  C_2
REMARK    2  A    between atoms: C_2  and  C_3
REMARK    3  A    between atoms: C_3  and  C_4
REMARK    4  A    between atoms: C_4  and  C_5
REMARK    5  A    between atoms: C_12  and  C_14
REMARK                            x       y       z     vdW  Elec       q    Type
REMARK                         _______ _______ _______ _____ _____    ______ ____
ROOT
ATOM      1  C   UNL     1       5.996   4.893  15.264  0.00  0.00    +0.000 C 
ATOM      2  O   UNL     1       6.669   5.886  15.016  0.00  0.00    +0.000 OA
ATOM      3  N   UNL     1       4.970   4.979  16.184  0.00  0.00    +0.000 N 
ATOM      4  C   UNL     1       4.092   3.856  16.509  0.00  0.00    +0.000 C 
ATOM      5  C   UNL     1       4.392   3.176  17.864  0.00  0.00    +0.000 C 
ATOM      6  C   UNL     1       4.528   4.061  19.124  0.00  0.00    +0.000 C 
ATOM      7  N   UNL     1       3.943   5.391  18.975  0.00  0.00    +0.000 N 
ATOM      8  C   UNL     1       2.847   5.793  19.717  0.00  0.00    +0.000 C 
ATOM      9  O   UNL     1       2.357   5.032  20.541  0.00  0.00    +0.000 OA
ATOM     10  C   UNL     1       4.772   6.356  18.246  0.00  0.00    +0.000 C 
ATOM     11  C   UNL     1       4.604   6.283  16.740  0.00  0.00    +0.000 C 
ENDROOT
BRANCH   8  12
ATOM     12  C   UNL     1       2.221   7.145  19.557  0.00  0.00    +0.000 A 
ATOM     13  C   UNL     1       1.407   7.716  20.567  0.00  0.00    +0.000 A 
ATOM     14  C   UNL     1       0.932   9.025  20.371  0.00  0.00    +0.000 A 
ATOM     15  C   UNL     1       1.215   9.695  19.186  0.00  0.00    +0.000 A 
ATOM     16  C   UNL     1       1.964   9.098  18.189  0.00  0.00    +0.000 A 
ATOM     17  N   UNL     1       2.450   7.853  18.408  0.00  0.00    +0.000 NA
ATOM     18  S   UNL     1       0.570  11.248  19.183  0.00  0.00    +0.000 S 
ATOM     19  C   UNL     1      -0.070  11.094  20.733  0.00  0.00    +0.000 A 
ATOM     20  C   UNL     1      -0.760  12.064  21.455  0.00  0.00    +0.000 A 
ATOM     21  C   UNL     1      -1.199  11.745  22.745  0.00  0.00    +0.000 A 
ATOM     22  C   UNL     1      -0.950  10.469  23.288  0.00  0.00    +0.000 A 
ATOM     23  C   UNL     1      -0.250   9.501  22.545  0.00  0.00    +0.000 A 
ATOM     24  C   UNL     1       0.191   9.828  21.257  0.00  0.00    +0.000 A 
ENDBRANCH   8  12
BRANCH   1  25
ATOM     25  C   UNL     1       6.311   3.626  14.486  0.00  0.00    +0.000 C 
BRANCH  25  26
ATOM     26  C   UNL     1       6.596   3.887  12.995  0.00  0.00    +0.000 C 
BRANCH  26  27
ATOM     27  C   UNL     1       5.548   3.204  12.103  0.00  0.00    +0.000 C 
BRANCH  27  28
ATOM     28  N   UNL     1       5.942   1.833  11.811  0.00  0.00    +0.000 NA
ATOM     29  H   UNL     1       5.502   1.552  10.905  0.00  0.00    +0.000 HD
ATOM     30  H   UNL     1       5.563   1.204  12.556  0.00  0.00    +0.000 HD
ENDBRANCH  27  28
ENDBRANCH  26  27
ENDBRANCH  25  26
ENDBRANCH   1  25
TORSDOF 5
ENDMDL
MODEL 2
REMARK VINA RESULT:      -7.3      3.787     10.204
REMARK  Name = 
REMARK  5 active torsions:
REMARK  status: ('A' for Active; 'I' for Inactive)
REMARK    1  A    between atoms: N_1  and  C_2
REMARK    2  A    between atoms: C_2  and  C_3
REMARK    3  A    between atoms: C_3  and  C_4
REMARK    4  A    between atoms: C_4  and  C_5
REMARK    5  A    between atoms: C_12  and  C_14
REMARK                            x       y       z     vdW  Elec       q    Type
REMARK                         _______ _______ _______ _____ _____    ______ ____
ROOT
ATOM      1  C   UNL     1      -1.803  12.458  22.377  0.00  0.00    +0.000 C 
ATOM      2  O   UNL     1      -1.431  12.088  23.484  0.00  0.00    +0.000 OA
ATOM      3  N   UNL     1      -1.221  11.917  21.248  0.00  0.00    +0.000 N 
ATOM      4  C   UNL     1      -1.631  12.271  19.890  0.00  0.00    +0.000 C 
ATOM      5  C   UNL     1      -0.664  13.224  19.153  0.00  0.00    +0.000 C 
ATOM      6  C   UNL     1       0.842  12.877  19.125  0.00  0.00    +0.000 C 
ATOM      7  N   UNL     1       1.129  11.478  19.432  0.00  0.00    +0.000 N 
ATOM      8  C   UNL     1       1.674  10.623  18.491  0.00  0.00    +0.000 C 
ATOM      9  O   UNL     1       1.948  11.040  17.374  0.00  0.00    +0.000 OA
ATOM     10  C   UNL     1       1.110  11.138  20.858  0.00  0.00    +0.000 C 
ATOM     11  C   UNL     1      -0.275  10.807  21.382  0.00  0.00    +0.000 C 
ENDROOT
BRANCH   8  12
ATOM     12  C   UNL     1       1.950   9.179  18.784  0.00  0.00    +0.000 A 
ATOM     13  C   UNL     1       2.736   8.379  17.918  0.00  0.00    +0.000 A 
ATOM     14  C   UNL     1       3.019   7.059  18.314  0.00  0.00    +0.000 A 
ATOM     15  C   UNL     1       2.480   6.559  19.493  0.00  0.00    +0.000 A 
ATOM     16  C   UNL     1       1.670   7.339  20.296  0.00  0.00    +0.000 A 
ATOM     17  N   UNL     1       1.439   8.621  19.924  0.00  0.00    +0.000 NA
ATOM     18  S   UNL     1       2.971   4.975  19.776  0.00  0.00    +0.000 S 
ATOM     19  C   UNL     1       3.916   4.912  18.383  0.00  0.00    +0.000 A 
ATOM     20  C   UNL     1       4.701   3.848  17.950  0.00  0.00    +0.000 A 
ATOM     21  C   UNL     1       5.432   3.999  16.767  0.00  0.00    +0.000 A 
ATOM     22  C   UNL     1       5.362   5.201  16.034  0.00  0.00    +0.000 A 
ATOM     23  C   UNL     1       4.564   6.268  16.486  0.00  0.00    +0.000 A 
ATOM     24  C   UNL     1       3.840   6.112  17.674  0.00  0.00    +0.000 A 
ENDBRANCH   8  12
BRANCH   1  25
ATOM     25  C   UNL     1      -2.939  13.467  22.325  0.00  0.00    +0.000 C 
BRANCH  25  26
ATOM     26  C   UNL     1      -4.318  12.840  22.602  0.00  0.00    +0.000 C 
BRANCH  26  27
ATOM     27  C   UNL     1      -4.755  13.082  24.055  0.00  0.00    +0.000 C 
BRANCH  27  28
ATOM     28  N   UNL     1      -4.568  11.877  24.851  0.00  0.00    +0.000 NA
ATOM     29  H   UNL     1      -4.227  11.117  24.218  0.00  0.00    +0.000 HD
ATOM     30  H   UNL     1      -5.492  11.577  25.237  0.00  0.00    +0.000 HD
ENDBRANCH  27  28
ENDBRANCH  26  27
ENDBRANCH  25  26
ENDBRANCH   1  25
TORSDOF 5
ENDMDL
MODEL 3
REMARK VINA RESULT:      -7.2      3.056      9.380
REMARK  Name = 
REMARK  5 active torsions:
REMARK  status: ('A' for Active; 'I' for Inactive)
REMARK    1  A    between atoms: N_1  and  C_2
REMARK    2  A    between atoms: C_2  and  C_3
REMARK    3  A    between atoms: C_3  and  C_4
REMARK    4  A    between atoms: C_4  and  C_5
REMARK    5  A    between atoms: C_12  and  C_14
REMARK                            x       y       z     vdW  Elec       q    Type
REMARK                         _______ _______ _______ _____ _____    ______ ____
ROOT
ATOM      1  C   UNL     1       1.107   7.997  20.549  0.00  0.00    +0.000 C 
ATOM      2  O   UNL     1       1.057   8.904  19.727  0.00  0.00    +0.000 OA
ATOM      3  N   UNL     1       1.826   6.855  20.258  0.00  0.00    +0.000 N 
ATOM      4  C   UNL     1       1.973   5.742  21.195  0.00  0.00    +0.000 C 
ATOM      5  C   UNL     1       1.103   4.508  20.870  0.00  0.00    +0.000 C 
ATOM      6  C   UNL     1       1.135   3.934  19.435  0.00  0.00    +0.000 C 
ATOM      7  N   UNL     1       2.297   4.358  18.659  0.00  0.00    +0.000 N 
ATOM      8  C   UNL     1       3.263   3.459  18.243  0.00  0.00    +0.000 C 
ATOM      9  O   UNL     1       3.143   2.270  18.507  0.00  0.00    +0.000 OA
ATOM     10  C   UNL     1       2.204   5.704  18.085  0.00  0.00    +0.000 C 
ATOM     11  C   UNL     1       2.637   6.801  19.040  0.00  0.00    +0.000 C 
ENDROOT
BRANCH   8  12
ATOM     12  C   UNL     1       4.474   3.883  17.468  0.00  0.00    +0.000 A 
ATOM     13  C   UNL     1       4.616   3.591  16.089  0.00  0.00    +0.000 A 
ATOM     14  C   UNL     1       5.743   4.102  15.418  0.00  0.00    +0.000 A 
ATOM     15  C   UNL     1       6.703   4.817  16.124  0.00  0.00    +0.000 A 
ATOM     16  C   UNL     1       6.573   5.043  17.481  0.00  0.00    +0.000 A 
ATOM     17  N   UNL     1       5.463   4.580  18.106  0.00  0.00    +0.000 NA
ATOM     18  S   UNL     1       7.942   5.350  15.118  0.00  0.00    +0.000 S 
ATOM     19  C   UNL     1       7.243   4.685  13.737  0.00  0.00    +0.000 A 
ATOM     20  C   UNL     1       7.724   4.762  12.434  0.00  0.00    +0.000 A 
ATOM     21  C   UNL     1       6.984   4.154  11.414  0.00  0.00    +0.000 A 
ATOM     22  C   UNL     1       5.786   3.476  11.711  0.00  0.00    +0.000 A 
ATOM     23  C   UNL     1       5.312   3.407  13.034  0.00  0.00    +0.000 A 
ATOM     24  C   UNL     1       6.055   4.023  14.049  0.00  0.00    +0.000 A 
ENDBRANCH   8  12
BRANCH   1  25
ATOM     25  C   UNL     1       0.405   8.222  21.878  0.00  0.00    +0.000 C 
BRANCH  25  26
ATOM     26  C   UNL     1       0.635   9.632  22.452  0.00  0.00    +0.000 C 
BRANCH  26  27
ATOM     27  C   UNL     1      -0.681  10.421  22.529  0.00  0.00    +0.000 C 
BRANCH  27  28
ATOM     28  N   UNL     1      -0.418  11.828  22.799  0.00  0.00    +0.000 NA
ATOM     29  H   UNL     1      -1.277  12.244  23.228  0.00  0.00    +0.000 HD
ATOM     30  H   UNL     1      -0.244  12.321  21.894  0.00  0.00    +0.000 HD
ENDBRANCH  27  28
ENDBRANCH  26  27
ENDBRANCH  25  26
ENDBRANCH   1  25
TORSDOF 5
ENDMDL
MODEL 4
REMARK VINA RESULT:      -7.2      3.953      9.804
REMARK  Name = 
REMARK  5 active torsions:
REMARK  status: ('A' for Active; 'I' for Inactive)
REMARK    1  A    between atoms: N_1  and  C_2
REMARK    2  A    between atoms: C_2  and  C_3
REMARK    3  A    between atoms: C_3  and  C_4
REMARK    4  A    between atoms: C_4  and  C_5
REMARK    5  A    between atoms: C_12  and  C_14
REMARK                            x       y       z     vdW  Elec       q    Type
REMARK                         _______ _______ _______ _____ _____    ______ ____
ROOT
ATOM      1  C   UNL     1      -2.458  12.673  21.247  0.00  0.00    +0.000 C 
ATOM      2  O   UNL     1      -2.377  12.455  22.450  0.00  0.00    +0.000 OA
ATOM      3  N   UNL     1      -1.675  11.948  20.371  0.00  0.00    +0.000 N 
ATOM      4  C   UNL     1      -1.738  12.115  18.919  0.00  0.00    +0.000 C 
ATOM      5  C   UNL     1      -0.560  12.909  18.311  0.00  0.00    +0.000 C 
ATOM      6  C   UNL     1       0.883  12.501  18.687  0.00  0.00    +0.000 C 
ATOM      7  N   UNL     1       0.988  11.152  19.236  0.00  0.00    +0.000 N 
ATOM      8  C   UNL     1       1.668  10.146  18.573  0.00  0.00    +0.000 C 
ATOM      9  O   UNL     1       2.220  10.383  17.507  0.00  0.00    +0.000 OA
ATOM     10  C   UNL     1       0.619  11.026  20.650  0.00  0.00    +0.000 C 
ATOM     11  C   UNL     1      -0.870  10.833  20.871  0.00  0.00    +0.000 C 
ENDROOT
BRANCH   8  12
ATOM     12  C   UNL     1       1.763   8.751  19.113  0.00  0.00    +0.000 A 
ATOM     13  C   UNL     1       2.330   7.695  18.358  0.00  0.00    +0.000 A 
ATOM     14  C   UNL     1       2.460   6.437  18.974  0.00  0.00    +0.000 A 
ATOM     15  C   UNL     1       1.981   6.246  20.265  0.00  0.00    +0.000 A 
ATOM     16  C   UNL     1       1.380   7.275  20.964  0.00  0.00    +0.000 A 
ATOM     17  N   UNL     1       1.299   8.492  20.374  0.00  0.00    +0.000 NA
ATOM     18  S   UNL     1       2.266   4.678  20.805  0.00  0.00    +0.000 S 
ATOM     19  C   UNL     1       3.040   4.221  19.381  0.00  0.00    +0.000 A 
ATOM     20  C   UNL     1       3.614   2.984  19.100  0.00  0.00    +0.000 A 
ATOM     21  C   UNL     1       4.231   2.805  17.857  0.00  0.00    +0.000 A 
ATOM     22  C   UNL     1       4.259   3.855  16.917  0.00  0.00    +0.000 A 
ATOM     23  C   UNL     1       3.675   5.099  17.218  0.00  0.00    +0.000 A 
ATOM     24  C   UNL     1       3.064   5.273  18.466  0.00  0.00    +0.000 A 
ENDBRANCH   8  12
BRANCH   1  25
ATOM     25  C   UNL     1      -3.475  13.708  20.795  0.00  0.00    +0.000 C 
BRANCH  25  26
ATOM     26  C   UNL     1      -4.921  13.345  21.179  0.00  0.00    +0.000 C 
BRANCH  26  27
ATOM     27  C   UNL     1      -5.567  12.445  20.115  0.00  0.00    +0.000 C 
BRANCH  27  28
ATOM     28  N   UNL     1      -5.273  12.944  18.779  0.00  0.00    +0.000 NA
ATOM     29  H   UNL     1      -6.065  13.557  18.477  0.00  0.00    +0.000 HD
ATOM     30  H   UNL     1      -5.228  12.136  18.116  0.00  0.00    +0.000 HD
ENDBRANCH  27  28
ENDBRANCH  26  27
ENDBRANCH  25  26
ENDBRANCH   1  25
TORSDOF 5
ENDMDL
MODEL 5
REMARK VINA RESULT:      -7.1      3.667      9.288
REMARK  Name = 
REMARK  5 active torsions:
REMARK  status: ('A' for Active; 'I' for Inactive)
REMARK    1  A    between atoms: N_1  and  C_2
REMARK    2  A    between atoms: C_2  and  C_3
REMARK    3  A    between atoms: C_3  and  C_4
REMARK    4  A    between atoms: C_4  and  C_5
REMARK    5  A    between atoms: C_12  and  C_14
REMARK                            x       y       z     vdW  Elec       q    Type
REMARK                         _______ _______ _______ _____ _____    ______ ____
ROOT
ATOM      1  C   UNL     1      -0.661  10.281  22.930  0.00  0.00    +0.000 C 
ATOM      2  O   UNL     1       0.070  10.000  23.872  0.00  0.00    +0.000 OA
ATOM      3  N   UNL     1      -0.296   9.907  21.652  0.00  0.00    +0.000 N 
ATOM      4  C   UNL     1      -1.127  10.165  20.477  0.00  0.00    +0.000 C 
ATOM      5  C   UNL     1      -0.639  11.331  19.587  0.00  0.00    +0.000 C 
ATOM      6  C   UNL     1       0.842  11.357  19.145  0.00  0.00    +0.000 C 
ATOM      7  N   UNL     1       1.513  10.065  19.261  0.00  0.00    +0.000 N 
ATOM      8  C   UNL     1       1.965   9.375  18.151  0.00  0.00    +0.000 C 
ATOM      9  O   UNL     1       1.825   9.858  17.035  0.00  0.00    +0.000 OA
ATOM     10  C   UNL     1       1.957   9.715  20.615  0.00  0.00    +0.000 C 
ATOM     11  C   UNL     1       0.879   9.056  21.454  0.00  0.00    +0.000 C 
ENDROOT
BRANCH   8  12
ATOM     12  C   UNL     1       2.633   8.037  18.254  0.00  0.00    +0.000 A 
ATOM     13  C   UNL     1       2.153   7.028  19.124  0.00  0.00    +0.000 A 
ATOM     14  C   UNL     1       2.787   5.772  19.093  0.00  0.00    +0.000 A 
ATOM     15  C   UNL     1       3.888   5.573  18.270  0.00  0.00    +0.000 A 
ATOM     16  C   UNL     1       4.377   6.588  17.471  0.00  0.00    +0.000 A 
ATOM     17  N   UNL     1       3.731   7.780  17.479  0.00  0.00    +0.000 NA
ATOM     18  S   UNL     1       4.465   3.996  18.378  0.00  0.00    +0.000 S 
ATOM     19  C   UNL     1       3.278   3.530  19.479  0.00  0.00    +0.000 A 
ATOM     20  C   UNL     1       3.094   2.265  20.028  0.00  0.00    +0.000 A 
ATOM     21  C   UNL     1       2.031   2.073  20.917  0.00  0.00    +0.000 A 
ATOM     22  C   UNL     1       1.178   3.144  21.248  0.00  0.00    +0.000 A 
ATOM     23  C   UNL     1       1.377   4.417  20.684  0.00  0.00    +0.000 A 
ATOM     24  C   UNL     1       2.439   4.601  19.790  0.00  0.00    +0.000 A 
ENDBRANCH   8  12
BRANCH   1  25
ATOM     25  C   UNL     1      -1.968  10.987  23.250  0.00  0.00    +0.000 C 
BRANCH  25  26
ATOM     26  C   UNL     1      -1.855  12.522  23.199  0.00  0.00    +0.000 C 
BRANCH  26  27
ATOM     27  C   UNL     1      -3.145  13.189  23.700  0.00  0.00    +0.000 C 
BRANCH  27  28
ATOM     28  N   UNL     1      -4.072  12.188  24.210  0.00  0.00    +0.000 NA
ATOM     29  H   UNL     1      -3.866  12.040  25.225  0.00  0.00    +0.000 HD
ATOM     30  H   UNL     1      -3.900  11.283  23.716  0.00  0.00    +0.000 HD
ENDBRANCH  27  28
ENDBRANCH  26  27
ENDBRANCH  25  26
ENDBRANCH   1  25
TORSDOF 5
ENDMDL
MODEL 6
REMARK VINA RESULT:      -7.1      2.947      9.288
REMARK  Name = 
REMARK  5 active torsions:
REMARK  status: ('A' for Active; 'I' for Inactive)
REMARK    1  A    between atoms: N_1  and  C_2
REMARK    2  A    between atoms: C_2  and  C_3
REMARK    3  A    between atoms: C_3  and  C_4
REMARK    4  A    between atoms: C_4  and  C_5
REMARK    5  A    between atoms: C_12  and  C_14
REMARK                            x       y       z     vdW  Elec       q    Type
REMARK                         _______ _______ _______ _____ _____    ______ ____
ROOT
ATOM      1  C   UNL     1       1.078   8.952  19.591  0.00  0.00    +0.000 C 
ATOM      2  O   UNL     1       0.889   9.549  18.538  0.00  0.00    +0.000 OA
ATOM      3  N   UNL     1       1.908   7.849  19.607  0.00  0.00    +0.000 N 
ATOM      4  C   UNL     1       2.221   7.103  20.825  0.00  0.00    +0.000 C 
ATOM      5  C   UNL     1       1.483   5.753  20.961  0.00  0.00    +0.000 C 
ATOM      6  C   UNL     1       1.516   4.766  19.771  0.00  0.00    +0.000 C 
ATOM      7  N   UNL     1       2.588   5.034  18.815  0.00  0.00    +0.000 N 
ATOM      8  C   UNL     1       3.630   4.145  18.621  0.00  0.00    +0.000 C 
ATOM      9  O   UNL     1       3.657   3.092  19.244  0.00  0.00    +0.000 OA
ATOM     10  C   UNL     1       2.318   6.119  17.867  0.00  0.00    +0.000 C 
ATOM     11  C   UNL     1       2.665   7.494  18.405  0.00  0.00    +0.000 C 
ENDROOT
BRANCH   8  12
ATOM     12  C   UNL     1       4.749   4.418  17.662  0.00  0.00    +0.000 A 
ATOM     13  C   UNL     1       4.725   3.935  16.330  0.00  0.00    +0.000 A 
ATOM     14  C   UNL     1       5.774   4.312  15.472  0.00  0.00    +0.000 A 
ATOM     15  C   UNL     1       6.822   5.084  15.957  0.00  0.00    +0.000 A 
ATOM     16  C   UNL     1       6.855   5.499  17.275  0.00  0.00    +0.000 A 
ATOM     17  N   UNL     1       5.817   5.163  18.080  0.00  0.00    +0.000 NA
ATOM     18  S   UNL     1       7.945   5.433  14.753  0.00  0.00    +0.000 S 
ATOM     19  C   UNL     1       7.079   4.607  13.568  0.00  0.00    +0.000 A 
ATOM     20  C   UNL     1       7.406   4.489  12.220  0.00  0.00    +0.000 A 
ATOM     21  C   UNL     1       6.542   3.772  11.386  0.00  0.00    +0.000 A 
ATOM     22  C   UNL     1       5.375   3.180  11.908  0.00  0.00    +0.000 A 
ATOM     23  C   UNL     1       5.057   3.310  13.273  0.00  0.00    +0.000 A 
ATOM     24  C   UNL     1       5.924   4.034  14.101  0.00  0.00    +0.000 A 
ENDBRANCH   8  12
BRANCH   1  25
ATOM     25  C   UNL     1       0.414   9.513  20.838  0.00  0.00    +0.000 C 
BRANCH  25  26
ATOM     26  C   UNL     1      -0.597  10.633  20.532  0.00  0.00    +0.000 C 
BRANCH  26  27
ATOM     27  C   UNL     1      -0.448  11.800  21.522  0.00  0.00    +0.000 C 
BRANCH  27  28
ATOM     28  N   UNL     1      -0.412  11.305  22.891  0.00  0.00    +0.000 NA
ATOM     29  H   UNL     1       0.150  11.975  23.466  0.00  0.00    +0.000 HD
ATOM     30  H   UNL     1       0.081  10.383  22.907  0.00  0.00    +0.000 HD
ENDBRANCH  27  28
ENDBRANCH  26  27
ENDBRANCH  25  26
ENDBRANCH   1  25
TORSDOF 5
ENDMDL
MODEL 7
REMARK VINA RESULT:      -7.1      4.409      9.336
REMARK  Name = 
REMARK  5 active torsions:
REMARK  status: ('A' for Active; 'I' for Inactive)
REMARK    1  A    between atoms: N_1  and  C_2
REMARK    2  A    between atoms: C_2  and  C_3
REMARK    3  A    between atoms: C_3  and  C_4
REMARK    4  A    between atoms: C_4  and  C_5
REMARK    5  A    between atoms: C_12  and  C_14
REMARK                            x       y       z     vdW  Elec       q    Type
REMARK                         _______ _______ _______ _____ _____    ______ ____
ROOT
ATOM      1  C   UNL     1      -3.975  11.127  17.941  0.00  0.00    +0.000 C 
ATOM      2  O   UNL     1      -4.534  10.062  17.709  0.00  0.00    +0.000 OA
ATOM      3  N   UNL     1      -2.666  11.127  18.378  0.00  0.00    +0.000 N 
ATOM      4  C   UNL     1      -1.910  12.351  18.639  0.00  0.00    +0.000 C 
ATOM      5  C   UNL     1      -1.739  12.695  20.135  0.00  0.00    +0.000 C 
ATOM      6  C   UNL     1      -1.222  11.597  21.094  0.00  0.00    +0.000 C 
ATOM      7  N   UNL     1      -0.554  10.490  20.415  0.00  0.00    +0.000 N 
ATOM      8  C   UNL     1       0.794  10.235  20.589  0.00  0.00    +0.000 C 
ATOM      9  O   UNL     1       1.454  10.935  21.346  0.00  0.00    +0.000 OA
ATOM     10  C   UNL     1      -1.451   9.498  19.814  0.00  0.00    +0.000 C 
ATOM     11  C   UNL     1      -1.917   9.869  18.418  0.00  0.00    +0.000 C 
ENDROOT
BRANCH   8  12
ATOM     12  C   UNL     1       1.498   9.118  19.879  0.00  0.00    +0.000 A 
ATOM     13  C   UNL     1       1.648   7.838  20.467  0.00  0.00    +0.000 A 
ATOM     14  C   UNL     1       2.244   6.823  19.697  0.00  0.00    +0.000 A 
ATOM     15  C   UNL     1       2.718   7.109  18.422  0.00  0.00    +0.000 A 
ATOM     16  C   UNL     1       2.612   8.379  17.888  0.00  0.00    +0.000 A 
ATOM     17  N   UNL     1       1.999   9.337  18.625  0.00  0.00    +0.000 NA
ATOM     18  S   UNL     1       3.364   5.744  17.681  0.00  0.00    +0.000 S 
ATOM     19  C   UNL     1       3.018   4.744  18.992  0.00  0.00    +0.000 A 
ATOM     20  C   UNL     1       3.255   3.376  19.088  0.00  0.00    +0.000 A 
ATOM     21  C   UNL     1       2.876   2.717  20.263  0.00  0.00    +0.000 A 
ATOM     22  C   UNL     1       2.277   3.431  21.319  0.00  0.00    +0.000 A 
ATOM     23  C   UNL     1       2.044   4.814  21.205  0.00  0.00    +0.000 A 
ATOM     24  C   UNL     1       2.420   5.466  20.025  0.00  0.00    +0.000 A 
ENDBRANCH   8  12
BRANCH   1  25
ATOM     25  C   UNL     1      -4.763  12.399  17.673  0.00  0.00    +0.000 C 
BRANCH  25  26
ATOM     26  C   UNL     1      -6.201  12.130  17.191  0.00  0.00    +0.000 C 
BRANCH  26  27
ATOM     27  C   UNL     1      -7.190  12.145  18.366  0.00  0.00    +0.000 C 
BRANCH  27  28
ATOM     28  N   UNL     1      -7.312  10.814  18.946  0.00  0.00    +0.000 NA
ATOM     29  H   UNL     1      -7.175  10.111  18.183  0.00  0.00    +0.000 HD
ATOM     30  H   UNL     1      -8.282  10.693  19.319  0.00  0.00    +0.000 HD
ENDBRANCH  27  28
ENDBRANCH  26  27
ENDBRANCH  25  26
ENDBRANCH   1  25
TORSDOF 5
ENDMDL
MODEL 8
REMARK VINA RESULT:      -7.1      4.456      9.229
REMARK  Name = 
REMARK  5 active torsions:
REMARK  status: ('A' for Active; 'I' for Inactive)
REMARK    1  A    between atoms: N_1  and  C_2
REMARK    2  A    between atoms: C_2  and  C_3
REMARK    3  A    between atoms: C_3  and  C_4
REMARK    4  A    between atoms: C_4  and  C_5
REMARK    5  A    between atoms: C_12  and  C_14
REMARK                            x       y       z     vdW  Elec       q    Type
REMARK                         _______ _______ _______ _____ _____    ______ ____
ROOT
ATOM      1  C   UNL     1      -0.177  13.980  18.757  0.00  0.00    +0.000 C 
ATOM      2  O   UNL     1      -0.602  13.732  17.636  0.00  0.00    +0.000 OA
ATOM      3  N   UNL     1       0.299  12.952  19.546  0.00  0.00    +0.000 N 
ATOM      4  C   UNL     1       0.861  13.163  20.880  0.00  0.00    +0.000 C 
ATOM      5  C   UNL     1      -0.075  12.769  22.043  0.00  0.00    +0.000 C 
ATOM      6  C   UNL     1      -0.743  11.375  22.019  0.00  0.00    +0.000 C 
ATOM      7  N   UNL     1      -0.090  10.426  21.121  0.00  0.00    +0.000 N 
ATOM      8  C   UNL     1       0.546   9.293  21.596  0.00  0.00    +0.000 C 
ATOM      9  O   UNL     1       0.551   9.055  22.797  0.00  0.00    +0.000 OA
ATOM     10  C   UNL     1      -0.428  10.578  19.703  0.00  0.00    +0.000 C 
ATOM     11  C   UNL     1       0.425  11.606  18.984  0.00  0.00    +0.000 C 
ENDROOT
BRANCH   8  12
ATOM     12  C   UNL     1       1.242   8.323  20.689  0.00  0.00    +0.000 A 
ATOM     13  C   UNL     1       1.265   6.933  20.960  0.00  0.00    +0.000 A 
ATOM     14  C   UNL     1       1.865   6.085  20.011  0.00  0.00    +0.000 A 
ATOM     15  C   UNL     1       2.464   6.626  18.880  0.00  0.00    +0.000 A 
ATOM     16  C   UNL     1       2.481   7.990  18.663  0.00  0.00    +0.000 A 
ATOM     17  N   UNL     1       1.863   8.792  19.564  0.00  0.00    +0.000 NA
ATOM     18  S   UNL     1       3.092   5.429  17.878  0.00  0.00    +0.000 S 
ATOM     19  C   UNL     1       2.574   4.178  18.881  0.00  0.00    +0.000 A 
ATOM     20  C   UNL     1       2.721   2.812  18.661  0.00  0.00    +0.000 A 
ATOM     21  C   UNL     1       2.203   1.925  19.611  0.00  0.00    +0.000 A 
ATOM     22  C   UNL     1       1.557   2.414  20.764  0.00  0.00    +0.000 A 
ATOM     23  C   UNL     1       1.416   3.798  20.971  0.00  0.00    +0.000 A 
ATOM     24  C   UNL     1       1.931   4.680  20.013  0.00  0.00    +0.000 A 
ENDBRANCH   8  12
BRANCH   1  25
ATOM     25  C   UNL     1      -0.153  15.439  19.186  0.00  0.00    +0.000 C 
BRANCH  25  26
ATOM     26  C   UNL     1       1.041  16.220  18.605  0.00  0.00    +0.000 C 
BRANCH  26  27
ATOM     27  C   UNL     1       0.631  17.649  18.219  0.00  0.00    +0.000 C 
BRANCH  27  28
ATOM     28  N   UNL     1       1.705  18.306  17.485  0.00  0.00    +0.000 NA
ATOM     29  H   UNL     1       2.341  17.567  17.105  0.00  0.00    +0.000 HD
ATOM     30  H   UNL     1       2.261  18.892  18.149  0.00  0.00    +0.000 HD
ENDBRANCH  27  28
ENDBRANCH  26  27
ENDBRANCH  25  26
ENDBRANCH   1  25
TORSDOF 5
ENDMDL
MODEL 9
REMARK VINA RESULT:      -7.0      7.038     10.618
REMARK  Name = 
REMARK  5 active torsions:
REMARK  status: ('A' for Active; 'I' for Inactive)
REMARK    1  A    between atoms: N_1  and  C_2
REMARK    2  A    between atoms: C_2  and  C_3
REMARK    3  A    between atoms: C_3  and  C_4
REMARK    4  A    between atoms: C_4  and  C_5
REMARK    5  A    between atoms: C_12  and  C_14
REMARK                            x       y       z     vdW  Elec       q    Type
REMARK                         _______ _______ _______ _____ _____    ______ ____
ROOT
ATOM      1  C   UNL     1       0.414  12.232  20.684  0.00  0.00    +0.000 C 
ATOM      2  O   UNL     1       0.834  11.984  21.808  0.00  0.00    +0.000 OA
ATOM      3  N   UNL     1       1.052  13.185  19.915  0.00  0.00    +0.000 N 
ATOM      4  C   UNL     1       0.643  13.514  18.550  0.00  0.00    +0.000 C 
ATOM      5  C   UNL     1      -0.132  14.844  18.413  0.00  0.00    +0.000 C 
ATOM      6  C   UNL     1       0.462  16.118  19.058  0.00  0.00    +0.000 C 
ATOM      7  N   UNL     1       1.887  16.015  19.359  0.00  0.00    +0.000 N 
ATOM      8  C   UNL     1       2.827  16.799  18.716  0.00  0.00    +0.000 C 
ATOM      9  O   UNL     1       2.468  17.622  17.884  0.00  0.00    +0.000 OA
ATOM     10  C   UNL     1       2.211  15.281  20.587  0.00  0.00    +0.000 C 
ATOM     11  C   UNL     1       2.303  13.780  20.389  0.00  0.00    +0.000 C 
ENDROOT
BRANCH   8  12
ATOM     12  C   UNL     1       4.295  16.687  18.998  0.00  0.00    +0.000 A 
ATOM     13  C   UNL     1       5.057  15.578  18.555  0.00  0.00    +0.000 A 
ATOM     14  C   UNL     1       6.445  15.595  18.787  0.00  0.00    +0.000 A 
ATOM     15  C   UNL     1       7.017  16.651  19.486  0.00  0.00    +0.000 A 
ATOM     16  C   UNL     1       6.247  17.697  19.958  0.00  0.00    +0.000 A 
ATOM     17  N   UNL     1       4.918  17.688  19.692  0.00  0.00    +0.000 NA
ATOM     18  S   UNL     1       8.685  16.473  19.621  0.00  0.00    +0.000 S 
ATOM     19  C   UNL     1       8.702  15.031  18.751  0.00  0.00    +0.000 A 
ATOM     20  C   UNL     1       9.817  14.271  18.412  0.00  0.00    +0.000 A 
ATOM     21  C   UNL     1       9.625  13.104  17.664  0.00  0.00    +0.000 A 
ATOM     22  C   UNL     1       8.328  12.713  17.275  0.00  0.00    +0.000 A 
ATOM     23  C   UNL     1       7.211  13.494  17.625  0.00  0.00    +0.000 A 
ATOM     24  C   UNL     1       7.412  14.663  18.369  0.00  0.00    +0.000 A 
ENDBRANCH   8  12
BRANCH   1  25
ATOM     25  C   UNL     1      -0.770  11.418  20.188  0.00  0.00    +0.000 C 
BRANCH  25  26
ATOM     26  C   UNL     1      -0.468   9.911  20.090  0.00  0.00    +0.000 C 
BRANCH  26  27
ATOM     27  C   UNL     1       0.689   9.640  19.117  0.00  0.00    +0.000 C 
BRANCH  27  28
ATOM     28  N   UNL     1       0.311  10.008  17.759  0.00  0.00    +0.000 NA
ATOM     29  H   UNL     1       1.089  10.570  17.344  0.00  0.00    +0.000 HD
ATOM     30  H   UNL     1      -0.537  10.620  17.797  0.00  0.00    +0.000 HD
ENDBRANCH  27  28
ENDBRANCH  26  27
ENDBRANCH  25  26
ENDBRANCH   1  25
TORSDOF 5
ENDMDL
