MODEL 1
REMARK VINA RESULT:      -7.5      0.000      0.000
REMARK  Name = 
REMARK  9 active torsions:
REMARK  status: ('A' for Active; 'I' for Inactive)
REMARK    1  A    between atoms: C_1  and  N_2
REMARK    2  A    between atoms: C_4  and  C_5
REMARK    3  A    between atoms: C_5  and  N_6
REMARK    4  A    between atoms: N_6  and  C_7
REMARK    5  A    between atoms: N_6  and  C_14
REMARK    6  A    between atoms: C_7  and  C_8
REMARK    7  A    between atoms: C_14  and  C_15
REMARK    8  A    between atoms: C_15  and  O_16
REMARK    9  A    between atoms: C_15  and  C_17
REMARK                            x       y       z     vdW  Elec       q    Type
REMARK                         _______ _______ _______ _____ _____    ______ ____
ROOT
ATOM      1  N   UNL     1       4.154   4.689  17.805  0.00  0.00    +0.000 NA
ENDROOT
BRANCH   1   2
ATOM      2  C   UNL     1       5.579   4.301  17.663  0.00  0.00    +0.000 C 
BRANCH   2   6
ATOM      3  C   UNL     1       6.717   3.843  12.802  0.00  0.00    +0.000 C 
ATOM      4  N   UNL     1       6.567   4.361  14.140  0.00  0.00    +0.000 N 
ATOM      5  C   UNL     1       5.692   3.931  15.094  0.00  0.00    +0.000 A 
ATOM      6  C   UNL     1       6.101   4.510  16.280  0.00  0.00    +0.000 A 
ATOM      7  C   UNL     1       7.146   5.380  15.888  0.00  0.00    +0.000 A 
ATOM      8  N   UNL     1       7.426   5.296  14.586  0.00  0.00    +0.000 NA
ENDBRANCH   2   6
ENDBRANCH   1   2
BRANCH   1   9
ATOM      9  C   UNL     1       3.922   6.072  17.311  0.00  0.00    +0.000 C 
BRANCH   9  10
ATOM     10  C   UNL     1       3.053   6.923  18.223  0.00  0.00    +0.000 A 
ATOM     11  C   UNL     1       2.724   6.486  19.512  0.00  0.00    +0.000 A 
ATOM     12  C   UNL     1       1.905   7.270  20.337  0.00  0.00    +0.000 A 
ATOM     13  C   UNL     1       1.420   8.493  19.880  0.00  0.00    +0.000 A 
ATOM     14  C   UNL     1       1.755   8.946  18.605  0.00  0.00    +0.000 A 
ATOM     15  C   UNL     1       2.571   8.165  17.781  0.00  0.00    +0.000 A 
ENDBRANCH   9  10
ENDBRANCH   1   9
BRANCH   1  16
ATOM     16  C   UNL     1       3.297   3.725  17.047  0.00  0.00    +0.000 C 
BRANCH  16  17
ATOM     17  C   UNL     1       2.875   2.424  17.789  0.00  0.00    +0.000 C 
BRANCH  17  18
ATOM     18  C   UNL     1       2.389   2.699  19.191  0.00  0.00    +0.000 A 
ATOM     19  C   UNL     1       1.138   3.103  19.624  0.00  0.00    +0.000 A 
ATOM     20  C   UNL     1       1.090   3.318  21.032  0.00  0.00    +0.000 A 
ATOM     21  C   UNL     1       2.298   3.053  21.635  0.00  0.00    +0.000 A 
ATOM     22  S   UNL     1       3.475   2.533  20.512  0.00  0.00    +0.000 S 
ENDBRANCH  17  18
BRANCH  17  23
ATOM     23  O   UNL     1       3.966   1.511  17.913  0.00  0.00    +0.000 OA
ATOM     24  H   UNL     1       3.595   0.658  18.188  0.00  0.00    +0.000 HD
ENDBRANCH  17  23
ENDBRANCH  16  17
ENDBRANCH   1  16
TORSDOF 8
ENDMDL
MODEL 2
REMARK VINA RESULT:      -7.4      1.557      2.287
REMARK  Name = 
REMARK  9 active torsions:
REMARK  status: ('A' for Active; 'I' for Inactive)
REMARK    1  A    between atoms: C_1  and  N_2
REMARK    2  A    between atoms: C_4  and  C_5
REMARK    3  A    between atoms: C_5  and  N_6
REMARK    4  A    between atoms: N_6  and  C_7
REMARK    5  A    between atoms: N_6  and  C_14
REMARK    6  A    between atoms: C_7  and  C_8
REMARK    7  A    between atoms: C_14  and  C_15
REMARK    8  A    between atoms: C_15  and  O_16
REMARK    9  A    between atoms: C_15  and  C_17
REMARK                            x       y       z     vdW  Elec       q    Type
REMARK                         _______ _______ _______ _____ _____    ______ ____
ROOT
ATOM      1  N   UNL     1       4.292   4.434  18.065  0.00  0.00    +0.000 NA
ENDROOT
BRANCH   1   2
ATOM      2  C   UNL     1       5.747   4.182  18.204  0.00  0.00    +0.000 C 
BRANCH   2   6
ATOM      3  C   UNL     1       8.131   8.582  17.920  0.00  0.00    +0.000 C 
ATOM      4  N   UNL     1       7.679   7.240  17.650  0.00  0.00    +0.000 N 
ATOM      5  C   UNL     1       7.100   6.376  18.532  0.00  0.00    +0.000 A 
ATOM      6  C   UNL     1       6.580   5.343  17.775  0.00  0.00    +0.000 A 
ATOM      7  C   UNL     1       7.034   5.626  16.464  0.00  0.00    +0.000 A 
ATOM      8  N   UNL     1       7.708   6.774  16.388  0.00  0.00    +0.000 NA
ENDBRANCH   2   6
ENDBRANCH   1   2
BRANCH   1   9
ATOM      9  C   UNL     1       4.034   5.763  17.450  0.00  0.00    +0.000 C 
BRANCH   9  10
ATOM     10  C   UNL     1       3.155   6.679  18.286  0.00  0.00    +0.000 A 
ATOM     11  C   UNL     1       2.747   6.303  19.572  0.00  0.00    +0.000 A 
ATOM     12  C   UNL     1       1.919   7.146  20.327  0.00  0.00    +0.000 A 
ATOM     13  C   UNL     1       1.504   8.368  19.803  0.00  0.00    +0.000 A 
ATOM     14  C   UNL     1       1.918   8.760  18.531  0.00  0.00    +0.000 A 
ATOM     15  C   UNL     1       2.742   7.921  17.776  0.00  0.00    +0.000 A 
ENDBRANCH   9  10
ENDBRANCH   1   9
BRANCH   1  16
ATOM     16  C   UNL     1       3.676   3.356  17.230  0.00  0.00    +0.000 C 
BRANCH  16  17
ATOM     17  C   UNL     1       3.104   2.121  17.984  0.00  0.00    +0.000 C 
BRANCH  17  18
ATOM     18  C   UNL     1       2.594   2.478  19.359  0.00  0.00    +0.000 A 
ATOM     19  C   UNL     1       3.271   2.512  20.566  0.00  0.00    +0.000 A 
ATOM     20  C   UNL     1       2.419   2.841  21.661  0.00  0.00    +0.000 A 
ATOM     21  C   UNL     1       1.123   3.066  21.256  0.00  0.00    +0.000 A 
ATOM     22  S   UNL     1       0.941   2.899  19.566  0.00  0.00    +0.000 S 
ENDBRANCH  17  18
BRANCH  17  23
ATOM     23  O   UNL     1       4.099   1.114  18.172  0.00  0.00    +0.000 OA
ATOM     24  H   UNL     1       4.904   1.561  18.478  0.00  0.00    +0.000 HD
ENDBRANCH  17  23
ENDBRANCH  16  17
ENDBRANCH   1  16
TORSDOF 8
ENDMDL
MODEL 3
REMARK VINA RESULT:      -7.3      1.200      1.699
REMARK  Name = 
REMARK  9 active torsions:
REMARK  status: ('A' for Active; 'I' for Inactive)
REMARK    1  A    between atoms: C_1  and  N_2
REMARK    2  A    between atoms: C_4  and  C_5
REMARK    3  A    between atoms: C_5  and  N_6
REMARK    4  A    between atoms: N_6  and  C_7
REMARK    5  A    between atoms: N_6  and  C_14
REMARK    6  A    between atoms: C_7  and  C_8
REMARK    7  A    between atoms: C_14  and  C_15
REMARK    8  A    between atoms: C_15  and  O_16
REMARK    9  A    between atoms: C_15  and  C_17
REMARK                            x       y       z     vdW  Elec       q    Type
REMARK                         _______ _______ _______ _____ _____    ______ ____
ROOT
ATOM      1  N   UNL     1       3.830   5.704  18.400  0.00  0.00    +0.000 NA
ENDROOT
BRANCH   1   2
ATOM      2  C   UNL     1       5.281   5.767  18.700  0.00  0.00    +0.000 C 
BRANCH   2   6
ATOM      3  C   UNL     1       7.048   4.897  14.090  0.00  0.00    +0.000 C 
ATOM      4  N   UNL     1       6.949   5.070  15.519  0.00  0.00    +0.000 N 
ATOM      5  C   UNL     1       5.982   5.750  16.199  0.00  0.00    +0.000 A 
ATOM      6  C   UNL     1       6.132   5.407  17.529  0.00  0.00    +0.000 A 
ATOM      7  C   UNL     1       7.313   4.625  17.543  0.00  0.00    +0.000 A 
ATOM      8  N   UNL     1       7.814   4.426  16.323  0.00  0.00    +0.000 NA
ENDBRANCH   2   6
ENDBRANCH   1   2
BRANCH   1   9
ATOM      9  C   UNL     1       3.367   6.949  17.731  0.00  0.00    +0.000 C 
BRANCH   9  10
ATOM     10  C   UNL     1       2.441   7.806  18.580  0.00  0.00    +0.000 A 
ATOM     11  C   UNL     1       1.893   8.990  18.071  0.00  0.00    +0.000 A 
ATOM     12  C   UNL     1       1.058   9.783  18.869  0.00  0.00    +0.000 A 
ATOM     13  C   UNL     1       0.761   9.393  20.174  0.00  0.00    +0.000 A 
ATOM     14  C   UNL     1       1.288   8.209  20.685  0.00  0.00    +0.000 A 
ATOM     15  C   UNL     1       2.122   7.416  19.891  0.00  0.00    +0.000 A 
ENDBRANCH   9  10
ENDBRANCH   1   9
BRANCH   1  16
ATOM     16  C   UNL     1       3.552   4.522  17.526  0.00  0.00    +0.000 C 
BRANCH  16  17
ATOM     17  C   UNL     1       2.245   3.727  17.813  0.00  0.00    +0.000 C 
BRANCH  17  18
ATOM     18  C   UNL     1       2.105   3.366  19.272  0.00  0.00    +0.000 A 
ATOM     19  C   UNL     1       1.040   3.574  20.130  0.00  0.00    +0.000 A 
ATOM     20  C   UNL     1       1.318   3.143  21.461  0.00  0.00    +0.000 A 
ATOM     21  C   UNL     1       2.579   2.604  21.574  0.00  0.00    +0.000 A 
ATOM     22  S   UNL     1       3.412   2.601  20.084  0.00  0.00    +0.000 S 
ENDBRANCH  17  18
BRANCH  17  23
ATOM     23  O   UNL     1       2.208   2.497  17.088  0.00  0.00    +0.000 OA
ATOM     24  H   UNL     1       2.691   2.640  16.259  0.00  0.00    +0.000 HD
ENDBRANCH  17  23
ENDBRANCH  16  17
ENDBRANCH   1  16
TORSDOF 8
ENDMDL
MODEL 4
REMARK VINA RESULT:      -7.3      2.703      4.632
REMARK  Name = 
REMARK  9 active torsions:
REMARK  status: ('A' for Active; 'I' for Inactive)
REMARK    1  A    between atoms: C_1  and  N_2
REMARK    2  A    between atoms: C_4  and  C_5
REMARK    3  A    between atoms: C_5  and  N_6
REMARK    4  A    between atoms: N_6  and  C_7
REMARK    5  A    between atoms: N_6  and  C_14
REMARK    6  A    between atoms: C_7  and  C_8
REMARK    7  A    between atoms: C_14  and  C_15
REMARK    8  A    between atoms: C_15  and  O_16
REMARK    9  A    between atoms: C_15  and  C_17
REMARK                            x       y       z     vdW  Elec       q    Type
REMARK                         _______ _______ _______ _____ _____    ______ ____
ROOT
ATOM      1  N   UNL     1       3.564   6.119  17.878  0.00  0.00    +0.000 NA
ENDROOT
BRANCH   1   2
ATOM      2  C   UNL     1       4.687   6.927  17.344  0.00  0.00    +0.000 C 
BRANCH   2   6
ATOM      3  C   UNL     1       6.522   4.008  13.705  0.00  0.00    +0.000 C 
ATOM      4  N   UNL     1       6.412   4.922  14.815  0.00  0.00    +0.000 N 
ATOM      5  C   UNL     1       5.320   5.661  15.165  0.00  0.00    +0.000 A 
ATOM      6  C   UNL     1       5.577   6.151  16.431  0.00  0.00    +0.000 A 
ATOM      7  C   UNL     1       6.915   5.759  16.679  0.00  0.00    +0.000 A 
ATOM      8  N   UNL     1       7.426   5.018  15.694  0.00  0.00    +0.000 NA
ENDBRANCH   2   6
ENDBRANCH   1   2
BRANCH   1   9
ATOM      9  C   UNL     1       3.851   5.648  19.259  0.00  0.00    +0.000 C 
BRANCH   9  10
ATOM     10  C   UNL     1       2.988   4.482  19.713  0.00  0.00    +0.000 A 
ATOM     11  C   UNL     1       2.837   3.345  18.909  0.00  0.00    +0.000 A 
ATOM     12  C   UNL     1       2.023   2.285  19.328  0.00  0.00    +0.000 A 
ATOM     13  C   UNL     1       1.362   2.353  20.553  0.00  0.00    +0.000 A 
ATOM     14  C   UNL     1       1.517   3.473  21.368  0.00  0.00    +0.000 A 
ATOM     15  C   UNL     1       2.329   4.532  20.952  0.00  0.00    +0.000 A 
ENDBRANCH   9  10
ENDBRANCH   1   9
BRANCH   1  16
ATOM     16  C   UNL     1       2.311   6.937  17.868  0.00  0.00    +0.000 C 
BRANCH  16  17
ATOM     17  C   UNL     1       2.440   8.427  18.295  0.00  0.00    +0.000 C 
BRANCH  17  18
ATOM     18  C   UNL     1       1.566   8.759  19.480  0.00  0.00    +0.000 A 
ATOM     19  C   UNL     1       1.471   8.125  20.707  0.00  0.00    +0.000 A 
ATOM     20  C   UNL     1       0.476   8.706  21.546  0.00  0.00    +0.000 A 
ATOM     21  C   UNL     1      -0.145   9.777  20.944  0.00  0.00    +0.000 A 
ATOM     22  S   UNL     1       0.481  10.087  19.386  0.00  0.00    +0.000 S 
ENDBRANCH  17  18
BRANCH  17  23
ATOM     23  O   UNL     1       2.049   9.312  17.245  0.00  0.00    +0.000 OA
ATOM     24  H   UNL     1       1.746  10.134  17.663  0.00  0.00    +0.000 HD
ENDBRANCH  17  23
ENDBRANCH  16  17
ENDBRANCH   1  16
TORSDOF 8
ENDMDL
MODEL 5
REMARK VINA RESULT:      -7.2      1.236      1.426
REMARK  Name = 
REMARK  9 active torsions:
REMARK  status: ('A' for Active; 'I' for Inactive)
REMARK    1  A    between atoms: C_1  and  N_2
REMARK    2  A    between atoms: C_4  and  C_5
REMARK    3  A    between atoms: C_5  and  N_6
REMARK    4  A    between atoms: N_6  and  C_7
REMARK    5  A    between atoms: N_6  and  C_14
REMARK    6  A    between atoms: C_7  and  C_8
REMARK    7  A    between atoms: C_14  and  C_15
REMARK    8  A    between atoms: C_15  and  O_16
REMARK    9  A    between atoms: C_15  and  C_17
REMARK                            x       y       z     vdW  Elec       q    Type
REMARK                         _______ _______ _______ _____ _____    ______ ____
ROOT
ATOM      1  N   UNL     1       3.860   5.835  18.422  0.00  0.00    +0.000 NA
ENDROOT
BRANCH   1   2
ATOM      2  C   UNL     1       5.317   5.986  18.658  0.00  0.00    +0.000 C 
BRANCH   2   6
ATOM      3  C   UNL     1       7.021   4.830  14.088  0.00  0.00    +0.000 C 
ATOM      4  N   UNL     1       6.935   5.062  15.509  0.00  0.00    +0.000 N 
ATOM      5  C   UNL     1       6.015   5.829  16.161  0.00  0.00    +0.000 A 
ATOM      6  C   UNL     1       6.142   5.527  17.503  0.00  0.00    +0.000 A 
ATOM      7  C   UNL     1       7.269   4.671  17.549  0.00  0.00    +0.000 A 
ATOM      8  N   UNL     1       7.756   4.393  16.338  0.00  0.00    +0.000 NA
ENDBRANCH   2   6
ENDBRANCH   1   2
BRANCH   1   9
ATOM      9  C   UNL     1       3.295   7.044  17.767  0.00  0.00    +0.000 C 
BRANCH   9  10
ATOM     10  C   UNL     1       2.369   7.860  18.655  0.00  0.00    +0.000 A 
ATOM     11  C   UNL     1       2.114   7.470  19.975  0.00  0.00    +0.000 A 
ATOM     12  C   UNL     1       1.243   8.219  20.779  0.00  0.00    +0.000 A 
ATOM     13  C   UNL     1       0.629   9.361  20.268  0.00  0.00    +0.000 A 
ATOM     14  C   UNL     1       0.888   9.767  18.960  0.00  0.00    +0.000 A 
ATOM     15  C   UNL     1       1.756   9.022  18.157  0.00  0.00    +0.000 A 
ENDBRANCH   9  10
ENDBRANCH   1   9
BRANCH   1  16
ATOM     16  C   UNL     1       3.615   4.630  17.570  0.00  0.00    +0.000 C 
BRANCH  16  17
ATOM     17  C   UNL     1       2.293   3.848  17.821  0.00  0.00    +0.000 C 
BRANCH  17  18
ATOM     18  C   UNL     1       2.133   3.449  19.267  0.00  0.00    +0.000 A 
ATOM     19  C   UNL     1       1.066   3.660  20.124  0.00  0.00    +0.000 A 
ATOM     20  C   UNL     1       1.323   3.183  21.443  0.00  0.00    +0.000 A 
ATOM     21  C   UNL     1       2.567   2.606  21.549  0.00  0.00    +0.000 A 
ATOM     22  S   UNL     1       3.412   2.624  20.065  0.00  0.00    +0.000 S 
ENDBRANCH  17  18
BRANCH  17  23
ATOM     23  O   UNL     1       2.245   2.640  17.061  0.00  0.00    +0.000 OA
ATOM     24  H   UNL     1       2.746   2.796  16.244  0.00  0.00    +0.000 HD
ENDBRANCH  17  23
ENDBRANCH  16  17
ENDBRANCH   1  16
TORSDOF 8
ENDMDL
MODEL 6
REMARK VINA RESULT:      -7.1      1.318      2.023
REMARK  Name = 
REMARK  9 active torsions:
REMARK  status: ('A' for Active; 'I' for Inactive)
REMARK    1  A    between atoms: C_1  and  N_2
REMARK    2  A    between atoms: C_4  and  C_5
REMARK    3  A    between atoms: C_5  and  N_6
REMARK    4  A    between atoms: N_6  and  C_7
REMARK    5  A    between atoms: N_6  and  C_14
REMARK    6  A    between atoms: C_7  and  C_8
REMARK    7  A    between atoms: C_14  and  C_15
REMARK    8  A    between atoms: C_15  and  O_16
REMARK    9  A    between atoms: C_15  and  C_17
REMARK                            x       y       z     vdW  Elec       q    Type
REMARK                         _______ _______ _______ _____ _____    ______ ____
ROOT
ATOM      1  N   UNL     1       3.969   4.353  17.654  0.00  0.00    +0.000 NA
ENDROOT
BRANCH   1   2
ATOM      2  C   UNL     1       5.303   3.940  17.153  0.00  0.00    +0.000 C 
BRANCH   2   6
ATOM      3  C   UNL     1       8.166   7.841  18.460  0.00  0.00    +0.000 C 
ATOM      4  N   UNL     1       7.606   6.721  17.745  0.00  0.00    +0.000 N 
ATOM      5  C   UNL     1       6.838   5.718  18.261  0.00  0.00    +0.000 A 
ATOM      6  C   UNL     1       6.301   5.048  17.179  0.00  0.00    +0.000 A 
ATOM      7  C   UNL     1       6.932   5.651  16.064  0.00  0.00    +0.000 A 
ATOM      8  N   UNL     1       7.731   6.663  16.407  0.00  0.00    +0.000 NA
ENDBRANCH   2   6
ENDBRANCH   1   2
BRANCH   1   9
ATOM      9  C   UNL     1       3.649   5.745  17.240  0.00  0.00    +0.000 C 
BRANCH   9  10
ATOM     10  C   UNL     1       2.933   6.563  18.303  0.00  0.00    +0.000 A 
ATOM     11  C   UNL     1       2.721   6.043  19.586  0.00  0.00    +0.000 A 
ATOM     12  C   UNL     1       2.041   6.798  20.552  0.00  0.00    +0.000 A 
ATOM     13  C   UNL     1       1.579   8.075  20.242  0.00  0.00    +0.000 A 
ATOM     14  C   UNL     1       1.799   8.609  18.974  0.00  0.00    +0.000 A 
ATOM     15  C   UNL     1       2.476   7.858  18.009  0.00  0.00    +0.000 A 
ENDBRANCH   9  10
ENDBRANCH   1   9
BRANCH   1  16
ATOM     16  C   UNL     1       2.927   3.413  17.133  0.00  0.00    +0.000 C 
BRANCH  16  17
ATOM     17  C   UNL     1       2.670   2.121  17.960  0.00  0.00    +0.000 C 
BRANCH  17  18
ATOM     18  C   UNL     1       2.283   2.423  19.387  0.00  0.00    +0.000 A 
ATOM     19  C   UNL     1       1.043   2.744  19.912  0.00  0.00    +0.000 A 
ATOM     20  C   UNL     1       1.098   3.023  21.309  0.00  0.00    +0.000 A 
ATOM     21  C   UNL     1       2.371   2.890  21.812  0.00  0.00    +0.000 A 
ATOM     22  S   UNL     1       3.488   2.414  20.611  0.00  0.00    +0.000 S 
ENDBRANCH  17  18
BRANCH  17  23
ATOM     23  O   UNL     1       3.834   1.297  18.024  0.00  0.00    +0.000 OA
ATOM     24  H   UNL     1       3.570   0.462  18.445  0.00  0.00    +0.000 HD
ENDBRANCH  17  23
ENDBRANCH  16  17
ENDBRANCH   1  16
TORSDOF 8
ENDMDL
MODEL 7
REMARK VINA RESULT:      -7.1      1.169      1.280
REMARK  Name = 
REMARK  9 active torsions:
REMARK  status: ('A' for Active; 'I' for Inactive)
REMARK    1  A    between atoms: C_1  and  N_2
REMARK    2  A    between atoms: C_4  and  C_5
REMARK    3  A    between atoms: C_5  and  N_6
REMARK    4  A    between atoms: N_6  and  C_7
REMARK    5  A    between atoms: N_6  and  C_14
REMARK    6  A    between atoms: C_7  and  C_8
REMARK    7  A    between atoms: C_14  and  C_15
REMARK    8  A    between atoms: C_15  and  O_16
REMARK    9  A    between atoms: C_15  and  C_17
REMARK                            x       y       z     vdW  Elec       q    Type
REMARK                         _______ _______ _______ _____ _____    ______ ____
ROOT
ATOM      1  N   UNL     1       4.021   5.807  18.188  0.00  0.00    +0.000 NA
ENDROOT
BRANCH   1   2
ATOM      2  C   UNL     1       5.386   6.359  18.013  0.00  0.00    +0.000 C 
BRANCH   2   6
ATOM      3  C   UNL     1       6.756   4.372  13.619  0.00  0.00    +0.000 C 
ATOM      4  N   UNL     1       6.779   4.886  14.967  0.00  0.00    +0.000 N 
ATOM      5  C   UNL     1       5.871   5.727  15.540  0.00  0.00    +0.000 A 
ATOM      6  C   UNL     1       6.135   5.712  16.897  0.00  0.00    +0.000 A 
ATOM      7  C   UNL     1       7.314   4.936  17.001  0.00  0.00    +0.000 A 
ATOM      8  N   UNL     1       7.711   4.439  15.828  0.00  0.00    +0.000 NA
ENDBRANCH   2   6
ENDBRANCH   1   2
BRANCH   1   9
ATOM      9  C   UNL     1       2.996   6.714  17.607  0.00  0.00    +0.000 C 
BRANCH   9  10
ATOM     10  C   UNL     1       2.280   7.583  18.628  0.00  0.00    +0.000 A 
ATOM     11  C   UNL     1       2.131   7.156  19.954  0.00  0.00    +0.000 A 
ATOM     12  C   UNL     1       1.451   7.956  20.882  0.00  0.00    +0.000 A 
ATOM     13  C   UNL     1       0.925   9.186  20.492  0.00  0.00    +0.000 A 
ATOM     14  C   UNL     1       1.081   9.628  19.180  0.00  0.00    +0.000 A 
ATOM     15  C   UNL     1       1.758   8.831  18.252  0.00  0.00    +0.000 A 
ENDBRANCH   9  10
ENDBRANCH   1   9
BRANCH   1  16
ATOM     16  C   UNL     1       3.939   4.462  17.537  0.00  0.00    +0.000 C 
BRANCH  16  17
ATOM     17  C   UNL     1       3.986   3.222  18.476  0.00  0.00    +0.000 C 
BRANCH  17  18
ATOM     18  C   UNL     1       2.812   3.179  19.423  0.00  0.00    +0.000 A 
ATOM     19  C   UNL     1       1.494   3.539  19.206  0.00  0.00    +0.000 A 
ATOM     20  C   UNL     1       0.692   3.411  20.378  0.00  0.00    +0.000 A 
ATOM     21  C   UNL     1       1.416   2.940  21.449  0.00  0.00    +0.000 A 
ATOM     22  S   UNL     1       3.046   2.638  21.037  0.00  0.00    +0.000 S 
ENDBRANCH  17  18
BRANCH  17  23
ATOM     23  O   UNL     1       5.160   3.221  19.289  0.00  0.00    +0.000 OA
ATOM     24  H   UNL     1       4.867   3.231  20.214  0.00  0.00    +0.000 HD
ENDBRANCH  17  23
ENDBRANCH  16  17
ENDBRANCH   1  16
TORSDOF 8
ENDMDL
MODEL 8
REMARK VINA RESULT:      -7.0      1.069      1.581
REMARK  Name = 
REMARK  9 active torsions:
REMARK  status: ('A' for Active; 'I' for Inactive)
REMARK    1  A    between atoms: C_1  and  N_2
REMARK    2  A    between atoms: C_4  and  C_5
REMARK    3  A    between atoms: C_5  and  N_6
REMARK    4  A    between atoms: N_6  and  C_7
REMARK    5  A    between atoms: N_6  and  C_14
REMARK    6  A    between atoms: C_7  and  C_8
REMARK    7  A    between atoms: C_14  and  C_15
REMARK    8  A    between atoms: C_15  and  O_16
REMARK    9  A    between atoms: C_15  and  C_17
REMARK                            x       y       z     vdW  Elec       q    Type
REMARK                         _______ _______ _______ _____ _____    ______ ____
ROOT
ATOM      1  N   UNL     1       5.136   4.733  17.824  0.00  0.00    +0.000 NA
ENDROOT
BRANCH   1   2
ATOM      2  C   UNL     1       6.503   4.458  17.315  0.00  0.00    +0.000 C 
BRANCH   2   6
ATOM      3  C   UNL     1       6.364   3.451  12.406  0.00  0.00    +0.000 C 
ATOM      4  N   UNL     1       6.489   4.134  13.670  0.00  0.00    +0.000 N 
ATOM      5  C   UNL     1       5.989   3.733  14.874  0.00  0.00    +0.000 A 
ATOM      6  C   UNL     1       6.593   4.530  15.827  0.00  0.00    +0.000 A 
ATOM      7  C   UNL     1       7.328   5.469  15.064  0.00  0.00    +0.000 A 
ATOM      8  N   UNL     1       7.260   5.234  13.752  0.00  0.00    +0.000 NA
ENDBRANCH   2   6
ENDBRANCH   1   2
BRANCH   1   9
ATOM      9  C   UNL     1       4.556   5.939  17.178  0.00  0.00    +0.000 C 
BRANCH   9  10
ATOM     10  C   UNL     1       3.550   6.686  18.039  0.00  0.00    +0.000 A 
ATOM     11  C   UNL     1       2.980   7.887  17.598  0.00  0.00    +0.000 A 
ATOM     12  C   UNL     1       2.069   8.578  18.409  0.00  0.00    +0.000 A 
ATOM     13  C   UNL     1       1.720   8.069  19.658  0.00  0.00    +0.000 A 
ATOM     14  C   UNL     1       2.269   6.866  20.100  0.00  0.00    +0.000 A 
ATOM     15  C   UNL     1       3.178   6.176  19.293  0.00  0.00    +0.000 A 
ENDBRANCH   9  10
ENDBRANCH   1   9
BRANCH   1  16
ATOM     16  C   UNL     1       4.261   3.546  17.569  0.00  0.00    +0.000 C 
BRANCH  16  17
ATOM     17  C   UNL     1       4.109   2.522  18.731  0.00  0.00    +0.000 C 
BRANCH  17  18
ATOM     18  C   UNL     1       2.866   2.770  19.551  0.00  0.00    +0.000 A 
ATOM     19  C   UNL     1       2.716   2.820  20.926  0.00  0.00    +0.000 A 
ATOM     20  C   UNL     1       1.361   3.018  21.320  0.00  0.00    +0.000 A 
ATOM     21  C   UNL     1       0.520   3.132  20.237  0.00  0.00    +0.000 A 
ATOM     22  S   UNL     1       1.363   3.018  18.757  0.00  0.00    +0.000 S 
ENDBRANCH  17  18
BRANCH  17  23
ATOM     23  O   UNL     1       5.210   2.587  19.637  0.00  0.00    +0.000 OA
ATOM     24  H   UNL     1       5.283   1.717  20.061  0.00  0.00    +0.000 HD
ENDBRANCH  17  23
ENDBRANCH  16  17
ENDBRANCH   1  16
TORSDOF 8
ENDMDL
MODEL 9
REMARK VINA RESULT:      -7.0      1.183      1.401
REMARK  Name = 
REMARK  9 active torsions:
REMARK  status: ('A' for Active; 'I' for Inactive)
REMARK    1  A    between atoms: C_1  and  N_2
REMARK    2  A    between atoms: C_4  and  C_5
REMARK    3  A    between atoms: C_5  and  N_6
REMARK    4  A    between atoms: N_6  and  C_7
REMARK    5  A    between atoms: N_6  and  C_14
REMARK    6  A    between atoms: C_7  and  C_8
REMARK    7  A    between atoms: C_14  and  C_15
REMARK    8  A    between atoms: C_15  and  O_16
REMARK    9  A    between atoms: C_15  and  C_17
REMARK                            x       y       z     vdW  Elec       q    Type
REMARK                         _______ _______ _______ _____ _____    ______ ____
ROOT
ATOM      1  N   UNL     1       4.525   4.746  17.652  0.00  0.00    +0.000 NA
ENDROOT
BRANCH   1   2
ATOM      2  C   UNL     1       4.939   3.794  16.593  0.00  0.00    +0.000 C 
BRANCH   2   6
ATOM      3  C   UNL     1       7.628   4.888  12.506  0.00  0.00    +0.000 C 
ATOM      4  N   UNL     1       7.046   4.930  13.825  0.00  0.00    +0.000 N 
ATOM      5  C   UNL     1       5.899   4.317  14.236  0.00  0.00    +0.000 A 
ATOM      6  C   UNL     1       5.895   4.393  15.616  0.00  0.00    +0.000 A 
ATOM      7  C   UNL     1       7.020   5.199  15.912  0.00  0.00    +0.000 A 
ATOM      8  N   UNL     1       7.717   5.532  14.824  0.00  0.00    +0.000 NA
ENDBRANCH   2   6
ENDBRANCH   1   2
BRANCH   1   9
ATOM      9  C   UNL     1       3.070   5.040  17.570  0.00  0.00    +0.000 C 
BRANCH   9  10
ATOM     10  C   UNL     1       2.651   6.325  18.267  0.00  0.00    +0.000 A 
ATOM     11  C   UNL     1       2.282   6.320  19.617  0.00  0.00    +0.000 A 
ATOM     12  C   UNL     1       1.879   7.506  20.245  0.00  0.00    +0.000 A 
ATOM     13  C   UNL     1       1.849   8.701  19.528  0.00  0.00    +0.000 A 
ATOM     14  C   UNL     1       2.230   8.720  18.188  0.00  0.00    +0.000 A 
ATOM     15  C   UNL     1       2.632   7.538  17.560  0.00  0.00    +0.000 A 
ENDBRANCH   9  10
ENDBRANCH   1   9
BRANCH   1  16
ATOM     16  C   UNL     1       4.854   4.173  18.995  0.00  0.00    +0.000 C 
BRANCH  16  17
ATOM     17  C   UNL     1       4.326   2.741  19.298  0.00  0.00    +0.000 C 
BRANCH  17  18
ATOM     18  C   UNL     1       3.001   2.763  20.020  0.00  0.00    +0.000 A 
ATOM     19  C   UNL     1       2.735   2.972  21.362  0.00  0.00    +0.000 A 
ATOM     20  C   UNL     1       1.347   2.853  21.668  0.00  0.00    +0.000 A 
ATOM     21  C   UNL     1       0.594   2.576  20.550  0.00  0.00    +0.000 A 
ATOM     22  S   UNL     1       1.552   2.478  19.141  0.00  0.00    +0.000 S 
ENDBRANCH  17  18
BRANCH  17  23
ATOM     23  O   UNL     1       5.228   2.013  20.132  0.00  0.00    +0.000 OA
ATOM     24  H   UNL     1       6.077   2.484  20.113  0.00  0.00    +0.000 HD
ENDBRANCH  17  23
ENDBRANCH  16  17
ENDBRANCH   1  16
TORSDOF 8
ENDMDL
