MODEL 1
REMARK VINA RESULT:      -8.0      0.000      0.000
REMARK  Name = 
REMARK  9 active torsions:
REMARK  status: ('A' for Active; 'I' for Inactive)
REMARK    1  A    between atoms: C_1  and  C_2
REMARK    2  A    between atoms: C_4  and  C_5
REMARK    3  A    between atoms: C_7  and  N_8
REMARK    4  A    between atoms: N_8  and  C_9
REMARK    5  A    between atoms: N_8  and  S_21
REMARK    6  A    between atoms: C_9  and  C_10
REMARK    7  A    between atoms: S_21  and  C_24
REMARK    8  A    between atoms: C_25  and  C_26
REMARK    9  A    between atoms: C_29  and  C_30
REMARK                            x       y       z     vdW  Elec       q    Type
REMARK                         _______ _______ _______ _____ _____    ______ ____
ROOT
ATOM      1  N   UNL     1       3.699   5.531  18.412  0.00  0.00    +0.000 N 
ENDROOT
BRANCH   1   8
ATOM      2  C   UNL     1       6.402   4.674  14.333  0.00  0.00    +0.000 C 
ATOM      3  C   UNL     1       6.210   5.376  15.646  0.00  0.00    +0.000 A 
ATOM      4  C   UNL     1       7.162   6.294  16.107  0.00  0.00    +0.000 A 
ATOM      5  C   UNL     1       6.958   6.995  17.303  0.00  0.00    +0.000 A 
ATOM      6  C   UNL     1       8.009   7.935  17.821  0.00  0.00    +0.000 C 
ATOM      7  C   UNL     1       5.776   6.777  18.028  0.00  0.00    +0.000 A 
ATOM      8  C   UNL     1       4.831   5.841  17.590  0.00  0.00    +0.000 A 
ATOM      9  C   UNL     1       5.065   5.124  16.416  0.00  0.00    +0.000 A 
ENDBRANCH   1   8
BRANCH   1  10
ATOM     10  S   UNL     1       3.777   4.370  19.614  0.00  0.00    +0.000 S 
ATOM     11  O   UNL     1       5.016   3.634  19.469  0.00  0.00    +0.000 OA
ATOM     12  O   UNL     1       3.443   4.980  20.885  0.00  0.00    +0.000 OA
BRANCH  10  13
ATOM     13  C   UNL     1       2.558   3.193  19.382  0.00  0.00    +0.000 A 
ATOM     14  C   UNL     1       1.613   2.668  20.300  0.00  0.00    +0.000 A 
ATOM     15  C   UNL     1       1.370   2.926  21.741  0.00  0.00    +0.000 C 
ATOM     16  N   UNL     1       0.794   1.800  19.686  0.00  0.00    +0.000 NA
ATOM     17  O   UNL     1       1.202   1.745  18.371  0.00  0.00    +0.000 OA
ATOM     18  C   UNL     1       2.252   2.583  18.187  0.00  0.00    +0.000 A 
ATOM     19  C   UNL     1       2.782   2.665  16.813  0.00  0.00    +0.000 C 
ENDBRANCH  10  13
ENDBRANCH   1  10
BRANCH   1  20
ATOM     20  C   UNL     1       2.415   6.162  18.100  0.00  0.00    +0.000 C 
BRANCH  20  21
ATOM     21  C   UNL     1       2.426   7.680  18.115  0.00  0.00    +0.000 C 
ATOM     22  O   UNL     1       2.844   8.329  17.149  0.00  0.00    +0.000 OA
ATOM     23  N   UNL     1       1.883   8.226  19.267  0.00  0.00    +0.000 N 
ATOM     24  C   UNL     1       1.666   7.541  20.561  0.00  0.00    +0.000 C 
ATOM     25  C   UNL     1       0.539   8.292  21.268  0.00  0.00    +0.000 C 
ATOM     26  C   UNL     1       0.568   9.599  20.547  0.00  0.00    +0.000 A 
ATOM     27  C   UNL     1      -0.183  10.726  20.840  0.00  0.00    +0.000 A 
ATOM     28  C   UNL     1      -0.110  11.810  19.967  0.00  0.00    +0.000 A 
ATOM     29  C   UNL     1       0.704  11.752  18.824  0.00  0.00    +0.000 A 
ATOM     30  C   UNL     1       1.439  10.600  18.523  0.00  0.00    +0.000 A 
ATOM     31  C   UNL     1       1.354   9.527  19.392  0.00  0.00    +0.000 A 
ENDBRANCH  20  21
ENDBRANCH   1  20
TORSDOF 5
ENDMDL
MODEL 2
REMARK VINA RESULT:      -7.9      0.451      1.485
REMARK  Name = 
REMARK  9 active torsions:
REMARK  status: ('A' for Active; 'I' for Inactive)
REMARK    1  A    between atoms: C_1  and  C_2
REMARK    2  A    between atoms: C_4  and  C_5
REMARK    3  A    between atoms: C_7  and  N_8
REMARK    4  A    between atoms: N_8  and  C_9
REMARK    5  A    between atoms: N_8  and  S_21
REMARK    6  A    between atoms: C_9  and  C_10
REMARK    7  A    between atoms: S_21  and  C_24
REMARK    8  A    between atoms: C_25  and  C_26
REMARK    9  A    between atoms: C_29  and  C_30
REMARK                            x       y       z     vdW  Elec       q    Type
REMARK                         _______ _______ _______ _____ _____    ______ ____
ROOT
ATOM      1  N   UNL     1       3.488   5.752  18.424  0.00  0.00    +0.000 N 
ENDROOT
BRANCH   1   8
ATOM      2  C   UNL     1       6.188   4.635  14.406  0.00  0.00    +0.000 C 
ATOM      3  C   UNL     1       6.019   5.385  15.695  0.00  0.00    +0.000 A 
ATOM      4  C   UNL     1       7.012   6.265  16.142  0.00  0.00    +0.000 A 
ATOM      5  C   UNL     1       6.832   7.011  17.314  0.00  0.00    +0.000 A 
ATOM      6  C   UNL     1       7.926   7.910  17.818  0.00  0.00    +0.000 C 
ATOM      7  C   UNL     1       5.632   6.876  18.030  0.00  0.00    +0.000 A 
ATOM      8  C   UNL     1       4.644   5.978  17.608  0.00  0.00    +0.000 A 
ATOM      9  C   UNL     1       4.854   5.215  16.458  0.00  0.00    +0.000 A 
ENDBRANCH   1   8
BRANCH   1  10
ATOM     10  S   UNL     1       3.492   4.625  19.660  0.00  0.00    +0.000 S 
ATOM     11  O   UNL     1       4.768   3.939  19.659  0.00  0.00    +0.000 OA
ATOM     12  O   UNL     1       3.009   5.251  20.874  0.00  0.00    +0.000 OA
BRANCH  10  13
ATOM     13  C   UNL     1       2.350   3.392  19.341  0.00  0.00    +0.000 A 
ATOM     14  C   UNL     1       2.003   2.767  18.116  0.00  0.00    +0.000 A 
ATOM     15  C   UNL     1       2.474   2.970  16.723  0.00  0.00    +0.000 C 
ATOM     16  N   UNL     1       1.094   1.803  18.322  0.00  0.00    +0.000 NA
ATOM     17  O   UNL     1       0.834   1.796  19.675  0.00  0.00    +0.000 OA
ATOM     18  C   UNL     1       1.590   2.742  20.286  0.00  0.00    +0.000 A 
ATOM     19  C   UNL     1       1.452   2.834  21.751  0.00  0.00    +0.000 C 
ENDBRANCH  10  13
ENDBRANCH   1  10
BRANCH   1  20
ATOM     20  C   UNL     1       2.243   6.440  18.077  0.00  0.00    +0.000 C 
BRANCH  20  21
ATOM     21  C   UNL     1       2.311   7.955  18.127  0.00  0.00    +0.000 C 
ATOM     22  O   UNL     1       2.774   8.609  17.184  0.00  0.00    +0.000 OA
ATOM     23  N   UNL     1       1.766   8.496  19.281  0.00  0.00    +0.000 N 
ATOM     24  C   UNL     1       1.497   7.791  20.554  0.00  0.00    +0.000 C 
ATOM     25  C   UNL     1       0.386   8.569  21.256  0.00  0.00    +0.000 C 
ATOM     26  C   UNL     1       0.479   9.890  20.567  0.00  0.00    +0.000 A 
ATOM     27  C   UNL     1      -0.234  11.038  20.871  0.00  0.00    +0.000 A 
ATOM     28  C   UNL     1      -0.102  12.138  20.025  0.00  0.00    +0.000 A 
ATOM     29  C   UNL     1       0.732  12.073  18.897  0.00  0.00    +0.000 A 
ATOM     30  C   UNL     1       1.428  10.901  18.584  0.00  0.00    +0.000 A 
ATOM     31  C   UNL     1       1.285   9.814  19.426  0.00  0.00    +0.000 A 
ENDBRANCH  20  21
ENDBRANCH   1  20
TORSDOF 5
ENDMDL
MODEL 3
REMARK VINA RESULT:      -7.7      1.468      1.983
REMARK  Name = 
REMARK  9 active torsions:
REMARK  status: ('A' for Active; 'I' for Inactive)
REMARK    1  A    between atoms: C_1  and  C_2
REMARK    2  A    between atoms: C_4  and  C_5
REMARK    3  A    between atoms: C_7  and  N_8
REMARK    4  A    between atoms: N_8  and  C_9
REMARK    5  A    between atoms: N_8  and  S_21
REMARK    6  A    between atoms: C_9  and  C_10
REMARK    7  A    between atoms: S_21  and  C_24
REMARK    8  A    between atoms: C_25  and  C_26
REMARK    9  A    between atoms: C_29  and  C_30
REMARK                            x       y       z     vdW  Elec       q    Type
REMARK                         _______ _______ _______ _____ _____    ______ ____
ROOT
ATOM      1  N   UNL     1       3.378   4.399  17.843  0.00  0.00    +0.000 N 
ENDROOT
BRANCH   1   8
ATOM      2  C   UNL     1       6.696   4.967  14.189  0.00  0.00    +0.000 C 
ATOM      3  C   UNL     1       6.315   5.095  15.635  0.00  0.00    +0.000 A 
ATOM      4  C   UNL     1       7.215   5.634  16.563  0.00  0.00    +0.000 A 
ATOM      5  C   UNL     1       6.842   5.810  17.902  0.00  0.00    +0.000 A 
ATOM      6  C   UNL     1       7.832   6.336  18.903  0.00  0.00    +0.000 C 
ATOM      7  C   UNL     1       5.545   5.452  18.301  0.00  0.00    +0.000 A 
ATOM      8  C   UNL     1       4.647   4.886  17.388  0.00  0.00    +0.000 A 
ATOM      9  C   UNL     1       5.045   4.683  16.066  0.00  0.00    +0.000 A 
ENDBRANCH   1   8
BRANCH   1  10
ATOM     10  S   UNL     1       3.154   2.798  18.273  0.00  0.00    +0.000 S 
ATOM     11  O   UNL     1       1.933   2.318  17.658  0.00  0.00    +0.000 OA
ATOM     12  O   UNL     1       4.395   2.077  18.078  0.00  0.00    +0.000 OA
BRANCH  10  13
ATOM     13  C   UNL     1       2.857   2.673  19.954  0.00  0.00    +0.000 A 
ATOM     14  C   UNL     1       1.699   3.007  20.701  0.00  0.00    +0.000 A 
ATOM     15  C   UNL     1       0.389   3.584  20.309  0.00  0.00    +0.000 C 
ATOM     16  N   UNL     1       1.869   2.696  21.995  0.00  0.00    +0.000 NA
ATOM     17  O   UNL     1       3.136   2.168  22.104  0.00  0.00    +0.000 OA
ATOM     18  C   UNL     1       3.726   2.148  20.882  0.00  0.00    +0.000 A 
ATOM     19  C   UNL     1       5.082   1.572  20.827  0.00  0.00    +0.000 C 
ENDBRANCH  10  13
ENDBRANCH   1  10
BRANCH   1  20
ATOM     20  C   UNL     1       2.229   5.306  17.805  0.00  0.00    +0.000 C 
BRANCH  20  21
ATOM     21  C   UNL     1       2.576   6.784  17.806  0.00  0.00    +0.000 C 
ATOM     22  O   UNL     1       3.112   7.317  16.827  0.00  0.00    +0.000 OA
ATOM     23  N   UNL     1       2.188   7.444  18.960  0.00  0.00    +0.000 N 
ATOM     24  C   UNL     1       1.846   6.832  20.264  0.00  0.00    +0.000 C 
ATOM     25  C   UNL     1       0.927   7.818  20.981  0.00  0.00    +0.000 C 
ATOM     26  C   UNL     1       1.233   9.082  20.247  0.00  0.00    +0.000 A 
ATOM     27  C   UNL     1       0.756  10.349  20.541  0.00  0.00    +0.000 A 
ATOM     28  C   UNL     1       1.053  11.385  19.656  0.00  0.00    +0.000 A 
ATOM     29  C   UNL     1       1.814  11.140  18.501  0.00  0.00    +0.000 A 
ATOM     30  C   UNL     1       2.270   9.852  18.201  0.00  0.00    +0.000 A 
ATOM     31  C   UNL     1       1.964   8.831  19.081  0.00  0.00    +0.000 A 
ENDBRANCH  20  21
ENDBRANCH   1  20
TORSDOF 5
ENDMDL
MODEL 4
REMARK VINA RESULT:      -7.7      0.201      1.561
REMARK  Name = 
REMARK  9 active torsions:
REMARK  status: ('A' for Active; 'I' for Inactive)
REMARK    1  A    between atoms: C_1  and  C_2
REMARK    2  A    between atoms: C_4  and  C_5
REMARK    3  A    between atoms: C_7  and  N_8
REMARK    4  A    between atoms: N_8  and  C_9
REMARK    5  A    between atoms: N_8  and  S_21
REMARK    6  A    between atoms: C_9  and  C_10
REMARK    7  A    between atoms: S_21  and  C_24
REMARK    8  A    between atoms: C_25  and  C_26
REMARK    9  A    between atoms: C_29  and  C_30
REMARK                            x       y       z     vdW  Elec       q    Type
REMARK                         _______ _______ _______ _____ _____    ______ ____
ROOT
ATOM      1  N   UNL     1       3.737   5.395  18.406  0.00  0.00    +0.000 N 
ENDROOT
BRANCH   1   8
ATOM      2  C   UNL     1       7.967   7.942  17.857  0.00  0.00    +0.000 C 
ATOM      3  C   UNL     1       6.964   6.953  17.338  0.00  0.00    +0.000 A 
ATOM      4  C   UNL     1       7.161   6.324  16.102  0.00  0.00    +0.000 A 
ATOM      5  C   UNL     1       6.258   5.356  15.642  0.00  0.00    +0.000 A 
ATOM      6  C   UNL     1       6.444   4.727  14.290  0.00  0.00    +0.000 C 
ATOM      7  C   UNL     1       5.158   5.013  16.444  0.00  0.00    +0.000 A 
ATOM      8  C   UNL     1       4.937   5.657  17.667  0.00  0.00    +0.000 A 
ATOM      9  C   UNL     1       5.825   6.645  18.096  0.00  0.00    +0.000 A 
ENDBRANCH   1   8
BRANCH   1  10
ATOM     10  S   UNL     1       3.681   4.230  19.605  0.00  0.00    +0.000 S 
ATOM     11  O   UNL     1       4.870   3.407  19.510  0.00  0.00    +0.000 OA
ATOM     12  O   UNL     1       3.337   4.860  20.863  0.00  0.00    +0.000 OA
BRANCH  10  13
ATOM     13  C   UNL     1       2.392   3.143  19.315  0.00  0.00    +0.000 A 
ATOM     14  C   UNL     1       1.411   2.636  20.205  0.00  0.00    +0.000 A 
ATOM     15  C   UNL     1       1.177   2.842  21.656  0.00  0.00    +0.000 C 
ATOM     16  N   UNL     1       0.544   1.850  19.549  0.00  0.00    +0.000 NA
ATOM     17  O   UNL     1       0.955   1.830  18.235  0.00  0.00    +0.000 OA
ATOM     18  C   UNL     1       2.056   2.609  18.093  0.00  0.00    +0.000 A 
ATOM     19  C   UNL     1       2.597   2.720  16.725  0.00  0.00    +0.000 C 
ENDBRANCH  10  13
ENDBRANCH   1  10
BRANCH   1  20
ATOM     20  C   UNL     1       2.508   6.082  18.007  0.00  0.00    +0.000 C 
BRANCH  20  21
ATOM     21  C   UNL     1       2.579   7.598  18.039  0.00  0.00    +0.000 C 
ATOM     22  O   UNL     1       3.053   8.238  17.092  0.00  0.00    +0.000 OA
ATOM     23  N   UNL     1       2.025   8.155  19.180  0.00  0.00    +0.000 N 
ATOM     24  C   UNL     1       1.741   7.467  20.460  0.00  0.00    +0.000 C 
ATOM     25  C   UNL     1       0.626   8.256  21.141  0.00  0.00    +0.000 C 
ATOM     26  C   UNL     1       0.730   9.568  20.436  0.00  0.00    +0.000 A 
ATOM     27  C   UNL     1       0.017  10.722  20.719  0.00  0.00    +0.000 A 
ATOM     28  C   UNL     1       0.160  11.811  19.860  0.00  0.00    +0.000 A 
ATOM     29  C   UNL     1       1.005  11.729  18.740  0.00  0.00    +0.000 A 
ATOM     30  C   UNL     1       1.701  10.551  18.449  0.00  0.00    +0.000 A 
ATOM     31  C   UNL     1       1.546   9.475  19.304  0.00  0.00    +0.000 A 
ENDBRANCH  20  21
ENDBRANCH   1  20
TORSDOF 5
ENDMDL
MODEL 5
REMARK VINA RESULT:      -7.6      1.705      2.453
REMARK  Name = 
REMARK  9 active torsions:
REMARK  status: ('A' for Active; 'I' for Inactive)
REMARK    1  A    between atoms: C_1  and  C_2
REMARK    2  A    between atoms: C_4  and  C_5
REMARK    3  A    between atoms: C_7  and  N_8
REMARK    4  A    between atoms: N_8  and  C_9
REMARK    5  A    between atoms: N_8  and  S_21
REMARK    6  A    between atoms: C_9  and  C_10
REMARK    7  A    between atoms: S_21  and  C_24
REMARK    8  A    between atoms: C_25  and  C_26
REMARK    9  A    between atoms: C_29  and  C_30
REMARK                            x       y       z     vdW  Elec       q    Type
REMARK                         _______ _______ _______ _____ _____    ______ ____
ROOT
ATOM      1  N   UNL     1       2.828   5.888  19.186  0.00  0.00    +0.000 N 
ENDROOT
BRANCH   1   8
ATOM      2  C   UNL     1       5.544   5.795  15.027  0.00  0.00    +0.000 C 
ATOM      3  C   UNL     1       5.452   5.759  16.525  0.00  0.00    +0.000 A 
ATOM      4  C   UNL     1       6.611   5.669  17.307  0.00  0.00    +0.000 A 
ATOM      5  C   UNL     1       6.533   5.695  18.705  0.00  0.00    +0.000 A 
ATOM      6  C   UNL     1       7.775   5.540  19.537  0.00  0.00    +0.000 C 
ATOM      7  C   UNL     1       5.276   5.829  19.316  0.00  0.00    +0.000 A 
ATOM      8  C   UNL     1       4.110   5.891  18.545  0.00  0.00    +0.000 A 
ATOM      9  C   UNL     1       4.200   5.828  17.153  0.00  0.00    +0.000 A 
ENDBRANCH   1   8
BRANCH   1  10
ATOM     10  S   UNL     1       1.742   4.634  18.973  0.00  0.00    +0.000 S 
ATOM     11  O   UNL     1       0.852   4.590  20.115  0.00  0.00    +0.000 OA
ATOM     12  O   UNL     1       1.196   4.701  17.633  0.00  0.00    +0.000 OA
BRANCH  10  13
ATOM     13  C   UNL     1       2.558   3.131  19.016  0.00  0.00    +0.000 A 
ATOM     14  C   UNL     1       3.091   2.353  17.956  0.00  0.00    +0.000 A 
ATOM     15  C   UNL     1       3.109   2.549  16.485  0.00  0.00    +0.000 C 
ATOM     16  N   UNL     1       3.706   1.262  18.438  0.00  0.00    +0.000 NA
ATOM     17  O   UNL     1       3.571   1.313  19.807  0.00  0.00    +0.000 OA
ATOM     18  C   UNL     1       2.891   2.434  20.155  0.00  0.00    +0.000 A 
ATOM     19  C   UNL     1       2.698   2.652  21.600  0.00  0.00    +0.000 C 
ENDBRANCH  10  13
ENDBRANCH   1  10
BRANCH   1  20
ATOM     20  C   UNL     1       2.423   7.075  19.942  0.00  0.00    +0.000 C 
BRANCH  20  21
ATOM     21  C   UNL     1       1.796   8.182  19.114  0.00  0.00    +0.000 C 
ATOM     22  O   UNL     1       1.824   8.152  17.877  0.00  0.00    +0.000 OA
ATOM     23  N   UNL     1       1.171   9.156  19.873  0.00  0.00    +0.000 N 
ATOM     24  C   UNL     1       1.368   9.424  21.316  0.00  0.00    +0.000 C 
ATOM     25  C   UNL     1       0.092  10.102  21.812  0.00  0.00    +0.000 C 
ATOM     26  C   UNL     1      -0.489  10.595  20.528  0.00  0.00    +0.000 A 
ATOM     27  C   UNL     1      -1.617  11.385  20.376  0.00  0.00    +0.000 A 
ATOM     28  C   UNL     1      -2.077  11.633  19.084  0.00  0.00    +0.000 A 
ATOM     29  C   UNL     1      -1.411  11.090  17.973  0.00  0.00    +0.000 A 
ATOM     30  C   UNL     1      -0.287  10.272  18.138  0.00  0.00    +0.000 A 
ATOM     31  C   UNL     1       0.157  10.028  19.425  0.00  0.00    +0.000 A 
ENDBRANCH  20  21
ENDBRANCH   1  20
TORSDOF 5
ENDMDL
MODEL 6
REMARK VINA RESULT:      -7.6      0.388      2.135
REMARK  Name = 
REMARK  9 active torsions:
REMARK  status: ('A' for Active; 'I' for Inactive)
REMARK    1  A    between atoms: C_1  and  C_2
REMARK    2  A    between atoms: C_4  and  C_5
REMARK    3  A    between atoms: C_7  and  N_8
REMARK    4  A    between atoms: N_8  and  C_9
REMARK    5  A    between atoms: N_8  and  S_21
REMARK    6  A    between atoms: C_9  and  C_10
REMARK    7  A    between atoms: S_21  and  C_24
REMARK    8  A    between atoms: C_25  and  C_26
REMARK    9  A    between atoms: C_29  and  C_30
REMARK                            x       y       z     vdW  Elec       q    Type
REMARK                         _______ _______ _______ _____ _____    ______ ____
ROOT
ATOM      1  N   UNL     1       3.631   5.539  18.484  0.00  0.00    +0.000 N 
ENDROOT
BRANCH   1   8
ATOM      2  C   UNL     1       7.892   7.970  17.703  0.00  0.00    +0.000 C 
ATOM      3  C   UNL     1       6.853   6.984  17.255  0.00  0.00    +0.000 A 
ATOM      4  C   UNL     1       6.997   6.302  16.039  0.00  0.00    +0.000 A 
ATOM      5  C   UNL     1       6.060   5.338  15.646  0.00  0.00    +0.000 A 
ATOM      6  C   UNL     1       6.189   4.652  14.315  0.00  0.00    +0.000 C 
ATOM      7  C   UNL     1       4.979   5.051  16.495  0.00  0.00    +0.000 A 
ATOM      8  C   UNL     1       4.811   5.746  17.698  0.00  0.00    +0.000 A 
ATOM      9  C   UNL     1       5.733   6.730  18.060  0.00  0.00    +0.000 A 
ENDBRANCH   1   8
BRANCH   1  10
ATOM     10  S   UNL     1       3.595   4.438  19.743  0.00  0.00    +0.000 S 
ATOM     11  O   UNL     1       4.861   3.734  19.781  0.00  0.00    +0.000 OA
ATOM     12  O   UNL     1       3.098   5.096  20.935  0.00  0.00    +0.000 OA
BRANCH  10  13
ATOM     13  C   UNL     1       2.441   3.216  19.428  0.00  0.00    +0.000 A 
ATOM     14  C   UNL     1       2.130   2.549  18.215  0.00  0.00    +0.000 A 
ATOM     15  C   UNL     1       2.658   2.686  16.835  0.00  0.00    +0.000 C 
ATOM     16  N   UNL     1       1.193   1.611  18.422  0.00  0.00    +0.000 NA
ATOM     17  O   UNL     1       0.881   1.663  19.763  0.00  0.00    +0.000 OA
ATOM     18  C   UNL     1       1.632   2.618  20.366  0.00  0.00    +0.000 A 
ATOM     19  C   UNL     1       1.438   2.772  21.820  0.00  0.00    +0.000 C 
ENDBRANCH  10  13
ENDBRANCH   1  10
BRANCH   1  20
ATOM     20  C   UNL     1       2.399   6.222  18.086  0.00  0.00    +0.000 C 
BRANCH  20  21
ATOM     21  C   UNL     1       2.466   7.739  18.115  0.00  0.00    +0.000 C 
ATOM     22  O   UNL     1       2.947   8.378  17.171  0.00  0.00    +0.000 OA
ATOM     23  N   UNL     1       1.899   8.297  19.249  0.00  0.00    +0.000 N 
ATOM     24  C   UNL     1       1.605   7.612  20.528  0.00  0.00    +0.000 C 
ATOM     25  C   UNL     1       0.481   8.400  21.196  0.00  0.00    +0.000 C 
ATOM     26  C   UNL     1       0.589   9.710  20.488  0.00  0.00    +0.000 A 
ATOM     27  C   UNL     1      -0.130  10.863  20.762  0.00  0.00    +0.000 A 
ATOM     28  C   UNL     1       0.019  11.950  19.901  0.00  0.00    +0.000 A 
ATOM     29  C   UNL     1       0.875  11.868  18.790  0.00  0.00    +0.000 A 
ATOM     30  C   UNL     1       1.577  10.691  18.509  0.00  0.00    +0.000 A 
ATOM     31  C   UNL     1       1.416   9.617  19.365  0.00  0.00    +0.000 A 
ENDBRANCH  20  21
ENDBRANCH   1  20
TORSDOF 5
ENDMDL
MODEL 7
REMARK VINA RESULT:      -7.6      3.975      9.152
REMARK  Name = 
REMARK  9 active torsions:
REMARK  status: ('A' for Active; 'I' for Inactive)
REMARK    1  A    between atoms: C_1  and  C_2
REMARK    2  A    between atoms: C_4  and  C_5
REMARK    3  A    between atoms: C_7  and  N_8
REMARK    4  A    between atoms: N_8  and  C_9
REMARK    5  A    between atoms: N_8  and  S_21
REMARK    6  A    between atoms: C_9  and  C_10
REMARK    7  A    between atoms: S_21  and  C_24
REMARK    8  A    between atoms: C_25  and  C_26
REMARK    9  A    between atoms: C_29  and  C_30
REMARK                            x       y       z     vdW  Elec       q    Type
REMARK                         _______ _______ _______ _____ _____    ______ ____
ROOT
ATOM      1  N   UNL     1      -0.191  10.980  19.339  0.00  0.00    +0.000 N 
ENDROOT
BRANCH   1   8
ATOM      2  C   UNL     1      -2.908   9.694  15.384  0.00  0.00    +0.000 C 
ATOM      3  C   UNL     1      -2.783  10.384  16.711  0.00  0.00    +0.000 A 
ATOM      4  C   UNL     1      -3.885  11.035  17.281  0.00  0.00    +0.000 A 
ATOM      5  C   UNL     1      -3.789  11.629  18.545  0.00  0.00    +0.000 A 
ATOM      6  C   UNL     1      -4.958  12.374  19.125  0.00  0.00    +0.000 C 
ATOM      7  C   UNL     1      -2.574  11.552  19.245  0.00  0.00    +0.000 A 
ATOM      8  C   UNL     1      -1.458  10.928  18.672  0.00  0.00    +0.000 A 
ATOM      9  C   UNL     1      -1.559  10.372  17.396  0.00  0.00    +0.000 A 
ENDBRANCH   1   8
BRANCH   1  10
ATOM     10  S   UNL     1       0.131  12.112  20.527  0.00  0.00    +0.000 S 
ATOM     11  O   UNL     1      -0.936  12.076  21.506  0.00  0.00    +0.000 OA
ATOM     12  O   UNL     1       1.509  11.973  20.955  0.00  0.00    +0.000 OA
BRANCH  10  13
ATOM     13  C   UNL     1       0.054  13.692  19.876  0.00  0.00    +0.000 A 
ATOM     14  C   UNL     1      -0.829  14.760  20.181  0.00  0.00    +0.000 A 
ATOM     15  C   UNL     1      -1.970  14.875  21.122  0.00  0.00    +0.000 C 
ATOM     16  N   UNL     1      -0.504  15.853  19.474  0.00  0.00    +0.000 NA
ATOM     17  O   UNL     1       0.581  15.507  18.700  0.00  0.00    +0.000 OA
ATOM     18  C   UNL     1       0.919  14.217  18.944  0.00  0.00    +0.000 A 
ATOM     19  C   UNL     1       2.094  13.706  18.214  0.00  0.00    +0.000 C 
ENDBRANCH  10  13
ENDBRANCH   1  10
BRANCH   1  20
ATOM     20  C   UNL     1       0.879  10.096  18.873  0.00  0.00    +0.000 C 
BRANCH  20  21
ATOM     21  C   UNL     1       1.177   8.914  19.778  0.00  0.00    +0.000 C 
ATOM     22  O   UNL     1       0.622   8.791  20.877  0.00  0.00    +0.000 OA
ATOM     23  N   UNL     1       2.063   8.003  19.227  0.00  0.00    +0.000 N 
ATOM     24  C   UNL     1       2.988   8.234  18.094  0.00  0.00    +0.000 C 
ATOM     25  C   UNL     1       3.268   6.866  17.474  0.00  0.00    +0.000 C 
ATOM     26  C   UNL     1       2.884   5.959  18.596  0.00  0.00    +0.000 A 
ATOM     27  C   UNL     1       3.029   4.581  18.636  0.00  0.00    +0.000 A 
ATOM     28  C   UNL     1       2.488   3.895  19.722  0.00  0.00    +0.000 A 
ATOM     29  C   UNL     1       1.815   4.589  20.741  0.00  0.00    +0.000 A 
ATOM     30  C   UNL     1       1.653   5.977  20.679  0.00  0.00    +0.000 A 
ATOM     31  C   UNL     1       2.187   6.647  19.594  0.00  0.00    +0.000 A 
ENDBRANCH  20  21
ENDBRANCH   1  20
TORSDOF 5
ENDMDL
MODEL 8
REMARK VINA RESULT:      -7.4      1.701      2.760
REMARK  Name = 
REMARK  9 active torsions:
REMARK  status: ('A' for Active; 'I' for Inactive)
REMARK    1  A    between atoms: C_1  and  C_2
REMARK    2  A    between atoms: C_4  and  C_5
REMARK    3  A    between atoms: C_7  and  N_8
REMARK    4  A    between atoms: N_8  and  C_9
REMARK    5  A    between atoms: N_8  and  S_21
REMARK    6  A    between atoms: C_9  and  C_10
REMARK    7  A    between atoms: S_21  and  C_24
REMARK    8  A    between atoms: C_25  and  C_26
REMARK    9  A    between atoms: C_29  and  C_30
REMARK                            x       y       z     vdW  Elec       q    Type
REMARK                         _______ _______ _______ _____ _____    ______ ____
ROOT
ATOM      1  N   UNL     1       2.809   5.887  19.236  0.00  0.00    +0.000 N 
ENDROOT
BRANCH   1   8
ATOM      2  C   UNL     1       7.767   5.651  19.450  0.00  0.00    +0.000 C 
ATOM      3  C   UNL     1       6.504   5.840  18.661  0.00  0.00    +0.000 A 
ATOM      4  C   UNL     1       6.555   6.059  17.279  0.00  0.00    +0.000 A 
ATOM      5  C   UNL     1       5.377   6.178  16.530  0.00  0.00    +0.000 A 
ATOM      6  C   UNL     1       5.439   6.470  15.057  0.00  0.00    +0.000 C 
ATOM      7  C   UNL     1       4.139   6.058  17.182  0.00  0.00    +0.000 A 
ATOM      8  C   UNL     1       4.078   5.867  18.568  0.00  0.00    +0.000 A 
ATOM      9  C   UNL     1       5.259   5.788  19.306  0.00  0.00    +0.000 A 
ENDBRANCH   1   8
BRANCH   1  10
ATOM     10  S   UNL     1       1.710   4.637  19.069  0.00  0.00    +0.000 S 
ATOM     11  O   UNL     1       0.870   4.596  20.249  0.00  0.00    +0.000 OA
ATOM     12  O   UNL     1       1.106   4.709  17.754  0.00  0.00    +0.000 OA
BRANCH  10  13
ATOM     13  C   UNL     1       2.521   3.131  19.075  0.00  0.00    +0.000 A 
ATOM     14  C   UNL     1       3.065   2.386  17.998  0.00  0.00    +0.000 A 
ATOM     15  C   UNL     1       3.103   2.628  16.534  0.00  0.00    +0.000 C 
ATOM     16  N   UNL     1       3.670   1.277  18.452  0.00  0.00    +0.000 NA
ATOM     17  O   UNL     1       3.518   1.285  19.821  0.00  0.00    +0.000 OA
ATOM     18  C   UNL     1       2.837   2.397  20.195  0.00  0.00    +0.000 A 
ATOM     19  C   UNL     1       2.625   2.569  21.644  0.00  0.00    +0.000 C 
ENDBRANCH  10  13
ENDBRANCH   1  10
BRANCH   1  20
ATOM     20  C   UNL     1       2.429   7.091  19.976  0.00  0.00    +0.000 C 
BRANCH  20  21
ATOM     21  C   UNL     1       1.791   8.185  19.140  0.00  0.00    +0.000 C 
ATOM     22  O   UNL     1       1.795   8.133  17.904  0.00  0.00    +0.000 OA
ATOM     23  N   UNL     1       1.183   9.176  19.894  0.00  0.00    +0.000 N 
ATOM     24  C   UNL     1       1.408   9.469  21.327  0.00  0.00    +0.000 C 
ATOM     25  C   UNL     1       0.145  10.160  21.835  0.00  0.00    +0.000 C 
ATOM     26  C   UNL     1      -0.459  10.632  20.553  0.00  0.00    +0.000 A 
ATOM     27  C   UNL     1      -1.587  11.424  20.409  0.00  0.00    +0.000 A 
ATOM     28  C   UNL     1      -2.070  11.650  19.121  0.00  0.00    +0.000 A 
ATOM     29  C   UNL     1      -1.427  11.085  18.008  0.00  0.00    +0.000 A 
ATOM     30  C   UNL     1      -0.303  10.266  18.166  0.00  0.00    +0.000 A 
ATOM     31  C   UNL     1       0.164  10.043  19.448  0.00  0.00    +0.000 A 
ENDBRANCH  20  21
ENDBRANCH   1  20
TORSDOF 5
ENDMDL
MODEL 9
REMARK VINA RESULT:      -7.4      4.461     10.260
REMARK  Name = 
REMARK  9 active torsions:
REMARK  status: ('A' for Active; 'I' for Inactive)
REMARK    1  A    between atoms: C_1  and  C_2
REMARK    2  A    between atoms: C_4  and  C_5
REMARK    3  A    between atoms: C_7  and  N_8
REMARK    4  A    between atoms: N_8  and  C_9
REMARK    5  A    between atoms: N_8  and  S_21
REMARK    6  A    between atoms: C_9  and  C_10
REMARK    7  A    between atoms: S_21  and  C_24
REMARK    8  A    between atoms: C_25  and  C_26
REMARK    9  A    between atoms: C_29  and  C_30
REMARK                            x       y       z     vdW  Elec       q    Type
REMARK                         _______ _______ _______ _____ _____    ______ ____
ROOT
ATOM      1  N   UNL     1      -0.605  12.157  20.767  0.00  0.00    +0.000 N 
ENDROOT
BRANCH   1   8
ATOM      2  C   UNL     1      -5.359  13.039  19.629  0.00  0.00    +0.000 C 
ATOM      3  C   UNL     1      -4.285  12.809  20.652  0.00  0.00    +0.000 A 
ATOM      4  C   UNL     1      -4.596  12.786  22.017  0.00  0.00    +0.000 A 
ATOM      5  C   UNL     1      -3.607  12.513  22.971  0.00  0.00    +0.000 A 
ATOM      6  C   UNL     1      -3.936  12.546  24.437  0.00  0.00    +0.000 C 
ATOM      7  C   UNL     1      -2.298  12.246  22.539  0.00  0.00    +0.000 A 
ATOM      8  C   UNL     1      -1.971  12.294  21.178  0.00  0.00    +0.000 A 
ATOM      9  C   UNL     1      -2.959  12.604  20.243  0.00  0.00    +0.000 A 
ENDBRANCH   1   8
BRANCH   1  10
ATOM     10  S   UNL     1       0.561  13.273  21.204  0.00  0.00    +0.000 S 
ATOM     11  O   UNL     1       0.266  13.755  22.538  0.00  0.00    +0.000 OA
ATOM     12  O   UNL     1       1.872  12.734  20.903  0.00  0.00    +0.000 OA
BRANCH  10  13
ATOM     13  C   UNL     1       0.446  14.667  20.218  0.00  0.00    +0.000 A 
ATOM     14  C   UNL     1       1.220  15.052  19.094  0.00  0.00    +0.000 A 
ATOM     15  C   UNL     1       2.377  14.420  18.413  0.00  0.00    +0.000 C 
ATOM     16  N   UNL     1       0.755  16.199  18.575  0.00  0.00    +0.000 NA
ATOM     17  O   UNL     1      -0.315  16.573  19.357  0.00  0.00    +0.000 OA
ATOM     18  C   UNL     1      -0.505  15.654  20.336  0.00  0.00    +0.000 A 
ATOM     19  C   UNL     1      -1.644  15.896  21.240  0.00  0.00    +0.000 C 
ENDBRANCH  10  13
ENDBRANCH   1  10
BRANCH   1  20
ATOM     20  C   UNL     1      -0.261  11.078  19.839  0.00  0.00    +0.000 C 
BRANCH  20  21
ATOM     21  C   UNL     1       0.390   9.864  20.478  0.00  0.00    +0.000 C 
ATOM     22  O   UNL     1       0.080   9.494  21.617  0.00  0.00    +0.000 OA
ATOM     23  N   UNL     1       1.292   9.217  19.648  0.00  0.00    +0.000 N 
ATOM     24  C   UNL     1       1.936   9.766  18.434  0.00  0.00    +0.000 C 
ATOM     25  C   UNL     1       2.312   8.570  17.562  0.00  0.00    +0.000 C 
ATOM     26  C   UNL     1       2.299   7.466  18.567  0.00  0.00    +0.000 A 
ATOM     27  C   UNL     1       2.670   6.148  18.357  0.00  0.00    +0.000 A 
ATOM     28  C   UNL     1       2.463   5.234  19.389  0.00  0.00    +0.000 A 
ATOM     29  C   UNL     1       1.891   5.648  20.604  0.00  0.00    +0.000 A 
ATOM     30  C   UNL     1       1.497   6.977  20.797  0.00  0.00    +0.000 A 
ATOM     31  C   UNL     1       1.701   7.873  19.764  0.00  0.00    +0.000 A 
ENDBRANCH  20  21
ENDBRANCH   1  20
TORSDOF 5
ENDMDL
