MODEL 1
REMARK VINA RESULT:      -6.9      0.000      0.000
REMARK  Name = 
REMARK  7 active torsions:
REMARK  status: ('A' for Active; 'I' for Inactive)
REMARK    1  A    between atoms: C_1  and  C_2
REMARK    2  A    between atoms: C_2  and  O_3
REMARK    3  A    between atoms: O_3  and  C_4
REMARK    4  A    between atoms: C_4  and  C_6
REMARK    5  A    between atoms: C_6  and  C_7
REMARK    6  A    between atoms: C_7  and  C_8
REMARK    7  A    between atoms: C_8  and  N_9
REMARK                            x       y       z     vdW  Elec       q    Type
REMARK                         _______ _______ _______ _____ _____    ______ ____
ROOT
ATOM      1  N   UNL     1       5.782   5.018  16.883  0.00  0.00    +0.000 N 
ATOM      2  C   UNL     1       5.531   4.231  17.982  0.00  0.00    +0.000 A 
ATOM      3  N   UNL     1       4.654   4.492  18.892  0.00  0.00    +0.000 NA
ATOM      4  C   UNL     1       3.904   5.668  18.753  0.00  0.00    +0.000 A 
ATOM      5  C   UNL     1       3.005   6.017  19.763  0.00  0.00    +0.000 A 
ATOM      6  C   UNL     1       2.246   7.188  19.663  0.00  0.00    +0.000 A 
ATOM      7  C   UNL     1       2.375   8.005  18.540  0.00  0.00    +0.000 A 
ATOM      8 CL   UNL     1       1.441   9.446  18.423  0.00  0.00    +0.000 Cl
ATOM      9  C   UNL     1       3.259   7.671  17.521  0.00  0.00    +0.000 A 
ATOM     10  C   UNL     1       4.026   6.507  17.644  0.00  0.00    +0.000 A 
ATOM     11  C   UNL     1       5.019   6.147  16.618  0.00  0.00    +0.000 A 
ATOM     12  O   UNL     1       5.134   6.833  15.604  0.00  0.00    +0.000 OA
ENDROOT
BRANCH   1  13
ATOM     13  C   UNL     1       6.817   4.638  15.934  0.00  0.00    +0.000 C 
BRANCH  13  14
ATOM     14  C   UNL     1       6.268   3.710  14.855  0.00  0.00    +0.000 C 
BRANCH  14  15
ATOM     15  C   UNL     1       6.475   4.303  13.467  0.00  0.00    +0.000 C 
BRANCH  15  16
ATOM     16  C   UNL     1       5.955   3.373  12.403  0.00  0.00    +0.000 C 
ATOM     17  O   UNL     1       6.658   2.654  11.705  0.00  0.00    +0.000 OA
BRANCH  16  18
ATOM     18  O   UNL     1       4.615   3.551  12.252  0.00  0.00    +0.000 OA
BRANCH  18  20
ATOM     19  C   UNL     1       3.366   3.985  10.266  0.00  0.00    +0.000 C 
ATOM     20  C   UNL     1       4.046   2.914  11.099  0.00  0.00    +0.000 C 
ENDBRANCH  18  20
ENDBRANCH  16  18
ENDBRANCH  15  16
ENDBRANCH  14  15
ENDBRANCH  13  14
ENDBRANCH   1  13
TORSDOF 6
ENDMDL
MODEL 2
REMARK VINA RESULT:      -6.9      1.964      2.411
REMARK  Name = 
REMARK  7 active torsions:
REMARK  status: ('A' for Active; 'I' for Inactive)
REMARK    1  A    between atoms: C_1  and  C_2
REMARK    2  A    between atoms: C_2  and  O_3
REMARK    3  A    between atoms: O_3  and  C_4
REMARK    4  A    between atoms: C_4  and  C_6
REMARK    5  A    between atoms: C_6  and  C_7
REMARK    6  A    between atoms: C_7  and  C_8
REMARK    7  A    between atoms: C_8  and  N_9
REMARK                            x       y       z     vdW  Elec       q    Type
REMARK                         _______ _______ _______ _____ _____    ______ ____
ROOT
ATOM      1  N   UNL     1       5.281   4.679  16.069  0.00  0.00    +0.000 N 
ATOM      2  C   UNL     1       5.359   6.050  16.128  0.00  0.00    +0.000 A 
ATOM      3  N   UNL     1       4.690   6.793  16.944  0.00  0.00    +0.000 NA
ATOM      4  C   UNL     1       3.814   6.156  17.833  0.00  0.00    +0.000 A 
ATOM      5  C   UNL     1       3.017   6.938  18.671  0.00  0.00    +0.000 A 
ATOM      6  C   UNL     1       2.125   6.337  19.565  0.00  0.00    +0.000 A 
ATOM      7  C   UNL     1       2.040   4.947  19.633  0.00  0.00    +0.000 A 
ATOM      8 CL   UNL     1       0.939   4.212  20.732  0.00  0.00    +0.000 Cl
ATOM      9  C   UNL     1       2.830   4.151  18.811  0.00  0.00    +0.000 A 
ATOM     10  C   UNL     1       3.703   4.766  17.909  0.00  0.00    +0.000 A 
ATOM     11  C   UNL     1       4.514   3.963  16.977  0.00  0.00    +0.000 A 
ATOM     12  O   UNL     1       4.481   2.735  17.033  0.00  0.00    +0.000 OA
ENDROOT
BRANCH   1  13
ATOM     13  C   UNL     1       6.064   3.945  15.087  0.00  0.00    +0.000 C 
BRANCH  13  14
ATOM     14  C   UNL     1       5.751   4.408  13.668  0.00  0.00    +0.000 C 
BRANCH  14  15
ATOM     15  C   UNL     1       6.436   3.517  12.638  0.00  0.00    +0.000 C 
BRANCH  15  16
ATOM     16  C   UNL     1       5.421   2.756  11.827  0.00  0.00    +0.000 C 
ATOM     17  O   UNL     1       5.615   1.655  11.329  0.00  0.00    +0.000 OA
BRANCH  16  18
ATOM     18  O   UNL     1       4.319   3.530  11.628  0.00  0.00    +0.000 OA
BRANCH  18  20
ATOM     19  C   UNL     1       3.029   4.175   9.727  0.00  0.00    +0.000 C 
ATOM     20  C   UNL     1       3.397   3.028  10.650  0.00  0.00    +0.000 C 
ENDBRANCH  18  20
ENDBRANCH  16  18
ENDBRANCH  15  16
ENDBRANCH  14  15
ENDBRANCH  13  14
ENDBRANCH   1  13
TORSDOF 6
ENDMDL
MODEL 3
REMARK VINA RESULT:      -6.9      3.176      4.708
REMARK  Name = 
REMARK  7 active torsions:
REMARK  status: ('A' for Active; 'I' for Inactive)
REMARK    1  A    between atoms: C_1  and  C_2
REMARK    2  A    between atoms: C_2  and  O_3
REMARK    3  A    between atoms: O_3  and  C_4
REMARK    4  A    between atoms: C_4  and  C_6
REMARK    5  A    between atoms: C_6  and  C_7
REMARK    6  A    between atoms: C_7  and  C_8
REMARK    7  A    between atoms: C_8  and  N_9
REMARK                            x       y       z     vdW  Elec       q    Type
REMARK                         _______ _______ _______ _____ _____    ______ ____
ROOT
ATOM      1  N   UNL     1       4.521   4.461  16.988  0.00  0.00    +0.000 N 
ATOM      2  C   UNL     1       4.129   3.253  17.515  0.00  0.00    +0.000 A 
ATOM      3  N   UNL     1       3.330   3.111  18.519  0.00  0.00    +0.000 NA
ATOM      4  C   UNL     1       2.829   4.273  19.120  0.00  0.00    +0.000 A 
ATOM      5  C   UNL     1       2.028   4.152  20.257  0.00  0.00    +0.000 A 
ATOM      6  C   UNL     1       1.516   5.291  20.889  0.00  0.00    +0.000 A 
ATOM      7  C   UNL     1       1.795   6.556  20.372  0.00  0.00    +0.000 A 
ATOM      8 CL   UNL     1       1.166   7.954  21.154  0.00  0.00    +0.000 Cl
ATOM      9  C   UNL     1       2.585   6.696  19.237  0.00  0.00    +0.000 A 
ATOM     10  C   UNL     1       3.105   5.550  18.627  0.00  0.00    +0.000 A 
ATOM     11  C   UNL     1       3.996   5.656  17.460  0.00  0.00    +0.000 A 
ATOM     12  O   UNL     1       4.236   6.755  16.965  0.00  0.00    +0.000 OA
ENDROOT
BRANCH   1  13
ATOM     13  C   UNL     1       5.450   4.500  15.869  0.00  0.00    +0.000 C 
BRANCH  13  14
ATOM     14  C   UNL     1       6.898   4.450  16.346  0.00  0.00    +0.000 C 
BRANCH  14  15
ATOM     15  C   UNL     1       7.383   5.831  16.769  0.00  0.00    +0.000 C 
BRANCH  15  16
ATOM     16  C   UNL     1       7.558   5.905  18.263  0.00  0.00    +0.000 C 
ATOM     17  O   UNL     1       7.130   5.076  19.054  0.00  0.00    +0.000 OA
BRANCH  16  18
ATOM     18  O   UNL     1       8.145   7.087  18.598  0.00  0.00    +0.000 OA
BRANCH  18  20
ATOM     19  C   UNL     1       8.489   9.426  18.280  0.00  0.00    +0.000 C 
ATOM     20  C   UNL     1       7.911   8.160  17.675  0.00  0.00    +0.000 C 
ENDBRANCH  18  20
ENDBRANCH  16  18
ENDBRANCH  15  16
ENDBRANCH  14  15
ENDBRANCH  13  14
ENDBRANCH   1  13
TORSDOF 6
ENDMDL
MODEL 4
REMARK VINA RESULT:      -6.8      1.148      1.279
REMARK  Name = 
REMARK  7 active torsions:
REMARK  status: ('A' for Active; 'I' for Inactive)
REMARK    1  A    between atoms: C_1  and  C_2
REMARK    2  A    between atoms: C_2  and  O_3
REMARK    3  A    between atoms: O_3  and  C_4
REMARK    4  A    between atoms: C_4  and  C_6
REMARK    5  A    between atoms: C_6  and  C_7
REMARK    6  A    between atoms: C_7  and  C_8
REMARK    7  A    between atoms: C_8  and  N_9
REMARK                            x       y       z     vdW  Elec       q    Type
REMARK                         _______ _______ _______ _____ _____    ______ ____
ROOT
ATOM      1  N   UNL     1       5.548   4.855  15.710  0.00  0.00    +0.000 N 
ATOM      2  C   UNL     1       5.252   3.636  16.273  0.00  0.00    +0.000 A 
ATOM      3  N   UNL     1       4.465   3.461  17.281  0.00  0.00    +0.000 NA
ATOM      4  C   UNL     1       3.873   4.597  17.848  0.00  0.00    +0.000 A 
ATOM      5  C   UNL     1       3.082   4.447  18.989  0.00  0.00    +0.000 A 
ATOM      6  C   UNL     1       2.482   5.560  19.588  0.00  0.00    +0.000 A 
ATOM      7  C   UNL     1       2.659   6.827  19.033  0.00  0.00    +0.000 A 
ATOM      8 CL   UNL     1       1.922   8.193  19.774  0.00  0.00    +0.000 Cl
ATOM      9  C   UNL     1       3.437   6.996  17.893  0.00  0.00    +0.000 A 
ATOM     10  C   UNL     1       4.047   5.877  17.318  0.00  0.00    +0.000 A 
ATOM     11  C   UNL     1       4.929   6.018  16.146  0.00  0.00    +0.000 A 
ATOM     12  O   UNL     1       5.082   7.118  15.619  0.00  0.00    +0.000 OA
ENDROOT
BRANCH   1  13
ATOM     13  C   UNL     1       6.472   4.935  14.589  0.00  0.00    +0.000 C 
BRANCH  13  14
ATOM     14  C   UNL     1       6.556   3.608  13.841  0.00  0.00    +0.000 C 
BRANCH  14  15
ATOM     15  C   UNL     1       6.396   3.815  12.340  0.00  0.00    +0.000 C 
BRANCH  15  16
ATOM     16  C   UNL     1       5.364   2.876  11.775  0.00  0.00    +0.000 C 
ATOM     17  O   UNL     1       5.591   1.729  11.416  0.00  0.00    +0.000 OA
BRANCH  16  18
ATOM     18  O   UNL     1       4.186   3.537  11.609  0.00  0.00    +0.000 OA
BRANCH  18  20
ATOM     19  C   UNL     1       3.004   4.238   9.658  0.00  0.00    +0.000 C 
ATOM     20  C   UNL     1       3.368   3.053  10.533  0.00  0.00    +0.000 C 
ENDBRANCH  18  20
ENDBRANCH  16  18
ENDBRANCH  15  16
ENDBRANCH  14  15
ENDBRANCH  13  14
ENDBRANCH   1  13
TORSDOF 6
ENDMDL
MODEL 5
REMARK VINA RESULT:      -6.6      3.439      6.720
REMARK  Name = 
REMARK  7 active torsions:
REMARK  status: ('A' for Active; 'I' for Inactive)
REMARK    1  A    between atoms: C_1  and  C_2
REMARK    2  A    between atoms: C_2  and  O_3
REMARK    3  A    between atoms: O_3  and  C_4
REMARK    4  A    between atoms: C_4  and  C_6
REMARK    5  A    between atoms: C_6  and  C_7
REMARK    6  A    between atoms: C_7  and  C_8
REMARK    7  A    between atoms: C_8  and  N_9
REMARK                            x       y       z     vdW  Elec       q    Type
REMARK                         _______ _______ _______ _____ _____    ______ ____
ROOT
ATOM      1  N   UNL     1       6.136   4.877  17.387  0.00  0.00    +0.000 N 
ATOM      2  C   UNL     1       7.125   5.761  17.023  0.00  0.00    +0.000 A 
ATOM      3  N   UNL     1       7.588   5.899  15.827  0.00  0.00    +0.000 NA
ATOM      4  C   UNL     1       7.048   5.084  14.823  0.00  0.00    +0.000 A 
ATOM      5  C   UNL     1       7.585   5.153  13.536  0.00  0.00    +0.000 A 
ATOM      6  C   UNL     1       7.078   4.348  12.511  0.00  0.00    +0.000 A 
ATOM      7  C   UNL     1       6.016   3.481  12.770  0.00  0.00    +0.000 A 
ATOM      8 CL   UNL     1       5.397   2.490  11.507  0.00  0.00    +0.000 Cl
ATOM      9  C   UNL     1       5.464   3.402  14.043  0.00  0.00    +0.000 A 
ATOM     10  C   UNL     1       5.995   4.199  15.062  0.00  0.00    +0.000 A 
ATOM     11  C   UNL     1       5.480   4.103  16.439  0.00  0.00    +0.000 A 
ATOM     12  O   UNL     1       4.527   3.369  16.691  0.00  0.00    +0.000 OA
ENDROOT
BRANCH   1  13
ATOM     13  C   UNL     1       5.711   4.789  18.775  0.00  0.00    +0.000 C 
BRANCH  13  14
ATOM     14  C   UNL     1       4.536   5.718  19.057  0.00  0.00    +0.000 C 
BRANCH  14  15
ATOM     15  C   UNL     1       3.453   5.005  19.857  0.00  0.00    +0.000 C 
BRANCH  15  16
ATOM     16  C   UNL     1       2.158   4.963  19.090  0.00  0.00    +0.000 C 
ATOM     17  O   UNL     1       2.019   5.355  17.940  0.00  0.00    +0.000 OA
BRANCH  16  18
ATOM     18  O   UNL     1       1.154   4.547  19.909  0.00  0.00    +0.000 OA
BRANCH  18  20
ATOM     19  C   UNL     1       0.803   2.408  18.912  0.00  0.00    +0.000 C 
ATOM     20  C   UNL     1       1.149   3.141  20.195  0.00  0.00    +0.000 C 
ENDBRANCH  18  20
ENDBRANCH  16  18
ENDBRANCH  15  16
ENDBRANCH  14  15
ENDBRANCH  13  14
ENDBRANCH   1  13
TORSDOF 6
ENDMDL
MODEL 6
REMARK VINA RESULT:      -6.6      4.106      6.495
REMARK  Name = 
REMARK  7 active torsions:
REMARK  status: ('A' for Active; 'I' for Inactive)
REMARK    1  A    between atoms: C_1  and  C_2
REMARK    2  A    between atoms: C_2  and  O_3
REMARK    3  A    between atoms: O_3  and  C_4
REMARK    4  A    between atoms: C_4  and  C_6
REMARK    5  A    between atoms: C_6  and  C_7
REMARK    6  A    between atoms: C_7  and  C_8
REMARK    7  A    between atoms: C_8  and  N_9
REMARK                            x       y       z     vdW  Elec       q    Type
REMARK                         _______ _______ _______ _____ _____    ______ ____
ROOT
ATOM      1  N   UNL     1       2.642   4.445  17.572  0.00  0.00    +0.000 N 
ATOM      2  C   UNL     1       3.339   3.338  17.149  0.00  0.00    +0.000 A 
ATOM      3  N   UNL     1       4.605   3.314  16.899  0.00  0.00    +0.000 NA
ATOM      4  C   UNL     1       5.323   4.505  17.065  0.00  0.00    +0.000 A 
ATOM      5  C   UNL     1       6.677   4.530  16.724  0.00  0.00    +0.000 A 
ATOM      6  C   UNL     1       7.424   5.704  16.869  0.00  0.00    +0.000 A 
ATOM      7  C   UNL     1       6.818   6.855  17.372  0.00  0.00    +0.000 A 
ATOM      8 CL   UNL     1       7.739   8.298  17.545  0.00  0.00    +0.000 Cl
ATOM      9  C   UNL     1       5.473   6.849  17.723  0.00  0.00    +0.000 A 
ATOM     10  C   UNL     1       4.734   5.673  17.554  0.00  0.00    +0.000 A 
ATOM     11  C   UNL     1       3.293   5.638  17.856  0.00  0.00    +0.000 A 
ATOM     12  O   UNL     1       2.738   6.629  18.327  0.00  0.00    +0.000 OA
ENDROOT
BRANCH   1  13
ATOM     13  C   UNL     1       1.208   4.362  17.798  0.00  0.00    +0.000 C 
BRANCH  13  14
ATOM     14  C   UNL     1       0.860   3.226  18.754  0.00  0.00    +0.000 C 
BRANCH  14  15
ATOM     15  C   UNL     1       0.835   3.713  20.197  0.00  0.00    +0.000 C 
BRANCH  15  16
ATOM     16  C   UNL     1       1.557   2.750  21.102  0.00  0.00    +0.000 C 
ATOM     17  O   UNL     1       1.332   2.620  22.298  0.00  0.00    +0.000 OA
BRANCH  16  18
ATOM     18  O   UNL     1       2.570   2.152  20.419  0.00  0.00    +0.000 OA
BRANCH  18  20
ATOM     19  C   UNL     1       4.916   1.722  20.328  0.00  0.00    +0.000 C 
ATOM     20  C   UNL     1       3.853   2.778  20.569  0.00  0.00    +0.000 C 
ENDBRANCH  18  20
ENDBRANCH  16  18
ENDBRANCH  15  16
ENDBRANCH  14  15
ENDBRANCH  13  14
ENDBRANCH   1  13
TORSDOF 6
ENDMDL
MODEL 7
REMARK VINA RESULT:      -6.6      1.343      1.529
REMARK  Name = 
REMARK  7 active torsions:
REMARK  status: ('A' for Active; 'I' for Inactive)
REMARK    1  A    between atoms: C_1  and  C_2
REMARK    2  A    between atoms: C_2  and  O_3
REMARK    3  A    between atoms: O_3  and  C_4
REMARK    4  A    between atoms: C_4  and  C_6
REMARK    5  A    between atoms: C_6  and  C_7
REMARK    6  A    between atoms: C_7  and  C_8
REMARK    7  A    between atoms: C_8  and  N_9
REMARK                            x       y       z     vdW  Elec       q    Type
REMARK                         _______ _______ _______ _____ _____    ______ ____
ROOT
ATOM      1  N   UNL     1       5.134   4.804  16.639  0.00  0.00    +0.000 N 
ATOM      2  C   UNL     1       4.761   3.521  16.966  0.00  0.00    +0.000 A 
ATOM      3  N   UNL     1       3.902   3.213  17.878  0.00  0.00    +0.000 NA
ATOM      4  C   UNL     1       3.308   4.262  18.593  0.00  0.00    +0.000 A 
ATOM      5  C   UNL     1       2.437   3.956  19.640  0.00  0.00    +0.000 A 
ATOM      6  C   UNL     1       1.832   4.976  20.381  0.00  0.00    +0.000 A 
ATOM      7  C   UNL     1       2.088   6.311  20.063  0.00  0.00    +0.000 A 
ATOM      8 CL   UNL     1       1.345   7.563  20.980  0.00  0.00    +0.000 Cl
ATOM      9  C   UNL     1       2.948   6.635  19.020  0.00  0.00    +0.000 A 
ATOM     10  C   UNL     1       3.560   5.604  18.301  0.00  0.00    +0.000 A 
ATOM     11  C   UNL     1       4.524   5.902  17.228  0.00  0.00    +0.000 A 
ATOM     12  O   UNL     1       4.748   7.067  16.907  0.00  0.00    +0.000 OA
ENDROOT
BRANCH   1  13
ATOM     13  C   UNL     1       6.135   5.031  15.609  0.00  0.00    +0.000 C 
BRANCH  13  14
ATOM     14  C   UNL     1       6.254   3.832  14.673  0.00  0.00    +0.000 C 
BRANCH  14  15
ATOM     15  C   UNL     1       5.325   3.979  13.475  0.00  0.00    +0.000 C 
BRANCH  15  16
ATOM     16  C   UNL     1       5.972   3.445  12.224  0.00  0.00    +0.000 C 
ATOM     17  O   UNL     1       7.096   3.744  11.843  0.00  0.00    +0.000 OA
BRANCH  16  18
ATOM     18  O   UNL     1       5.076   2.693  11.529  0.00  0.00    +0.000 OA
BRANCH  18  20
ATOM     19  C   UNL     1       3.546   3.819  10.085  0.00  0.00    +0.000 C 
ATOM     20  C   UNL     1       3.749   3.236  11.471  0.00  0.00    +0.000 C 
ENDBRANCH  18  20
ENDBRANCH  16  18
ENDBRANCH  15  16
ENDBRANCH  14  15
ENDBRANCH  13  14
ENDBRANCH   1  13
TORSDOF 6
ENDMDL
MODEL 8
REMARK VINA RESULT:      -6.6      3.592      6.615
REMARK  Name = 
REMARK  7 active torsions:
REMARK  status: ('A' for Active; 'I' for Inactive)
REMARK    1  A    between atoms: C_1  and  C_2
REMARK    2  A    between atoms: C_2  and  O_3
REMARK    3  A    between atoms: O_3  and  C_4
REMARK    4  A    between atoms: C_4  and  C_6
REMARK    5  A    between atoms: C_6  and  C_7
REMARK    6  A    between atoms: C_7  and  C_8
REMARK    7  A    between atoms: C_8  and  N_9
REMARK                            x       y       z     vdW  Elec       q    Type
REMARK                         _______ _______ _______ _____ _____    ______ ____
ROOT
ATOM      1  N   UNL     1       3.881   3.435  19.213  0.00  0.00    +0.000 N 
ATOM      2  C   UNL     1       4.936   4.091  19.804  0.00  0.00    +0.000 A 
ATOM      3  N   UNL     1       5.955   4.569  19.173  0.00  0.00    +0.000 NA
ATOM      4  C   UNL     1       5.993   4.404  17.782  0.00  0.00    +0.000 A 
ATOM      5  C   UNL     1       7.120   4.838  17.082  0.00  0.00    +0.000 A 
ATOM      6  C   UNL     1       7.198   4.682  15.694  0.00  0.00    +0.000 A 
ATOM      7  C   UNL     1       6.135   4.103  15.000  0.00  0.00    +0.000 A 
ATOM      8 CL   UNL     1       6.236   3.910  13.293  0.00  0.00    +0.000 Cl
ATOM      9  C   UNL     1       5.001   3.670  15.678  0.00  0.00    +0.000 A 
ATOM     10  C   UNL     1       4.947   3.815  17.068  0.00  0.00    +0.000 A 
ATOM     11  C   UNL     1       3.792   3.315  17.833  0.00  0.00    +0.000 A 
ATOM     12  O   UNL     1       2.829   2.826  17.246  0.00  0.00    +0.000 OA
ENDROOT
BRANCH   1  13
ATOM     13  C   UNL     1       2.797   2.914  20.030  0.00  0.00    +0.000 C 
BRANCH  13  14
ATOM     14  C   UNL     1       2.139   4.017  20.852  0.00  0.00    +0.000 C 
BRANCH  14  15
ATOM     15  C   UNL     1       1.509   5.070  19.950  0.00  0.00    +0.000 C 
BRANCH  15  16
ATOM     16  C   UNL     1       1.940   6.455  20.357  0.00  0.00    +0.000 C 
ATOM     17  O   UNL     1       1.356   7.151  21.176  0.00  0.00    +0.000 OA
BRANCH  16  18
ATOM     18  O   UNL     1       2.989   6.853  19.588  0.00  0.00    +0.000 OA
BRANCH  18  20
ATOM     19  C   UNL     1       2.618   8.246  17.686  0.00  0.00    +0.000 C 
ATOM     20  C   UNL     1       2.750   6.815  18.173  0.00  0.00    +0.000 C 
ENDBRANCH  18  20
ENDBRANCH  16  18
ENDBRANCH  15  16
ENDBRANCH  14  15
ENDBRANCH  13  14
ENDBRANCH   1  13
TORSDOF 6
ENDMDL
MODEL 9
REMARK VINA RESULT:      -6.6      3.675      6.297
REMARK  Name = 
REMARK  7 active torsions:
REMARK  status: ('A' for Active; 'I' for Inactive)
REMARK    1  A    between atoms: C_1  and  C_2
REMARK    2  A    between atoms: C_2  and  O_3
REMARK    3  A    between atoms: O_3  and  C_4
REMARK    4  A    between atoms: C_4  and  C_6
REMARK    5  A    between atoms: C_6  and  C_7
REMARK    6  A    between atoms: C_7  and  C_8
REMARK    7  A    between atoms: C_8  and  N_9
REMARK                            x       y       z     vdW  Elec       q    Type
REMARK                         _______ _______ _______ _____ _____    ______ ____
ROOT
ATOM      1  N   UNL     1       3.668   5.180  19.100  0.00  0.00    +0.000 N 
ATOM      2  C   UNL     1       4.911   5.372  19.657  0.00  0.00    +0.000 A 
ATOM      3  N   UNL     1       6.029   5.253  19.025  0.00  0.00    +0.000 NA
ATOM      4  C   UNL     1       5.975   4.895  17.672  0.00  0.00    +0.000 A 
ATOM      5  C   UNL     1       7.171   4.678  16.984  0.00  0.00    +0.000 A 
ATOM      6  C   UNL     1       7.157   4.311  15.634  0.00  0.00    +0.000 A 
ATOM      7  C   UNL     1       5.941   4.175  14.964  0.00  0.00    +0.000 A 
ATOM      8 CL   UNL     1       5.927   3.721  13.305  0.00  0.00    +0.000 Cl
ATOM      9  C   UNL     1       4.740   4.393  15.630  0.00  0.00    +0.000 A 
ATOM     10  C   UNL     1       4.770   4.740  16.985  0.00  0.00    +0.000 A 
ATOM     11  C   UNL     1       3.521   4.920  17.745  0.00  0.00    +0.000 A 
ATOM     12  O   UNL     1       2.435   4.835  17.175  0.00  0.00    +0.000 OA
ENDROOT
BRANCH   1  13
ATOM     13  C   UNL     1       2.473   5.317  19.918  0.00  0.00    +0.000 C 
BRANCH  13  14
ATOM     14  C   UNL     1       2.449   4.288  21.044  0.00  0.00    +0.000 C 
BRANCH  14  15
ATOM     15  C   UNL     1       1.174   3.456  20.998  0.00  0.00    +0.000 C 
BRANCH  15  16
ATOM     16  C   UNL     1       1.086   2.679  19.711  0.00  0.00    +0.000 C 
ATOM     17  O   UNL     1       0.125   2.698  18.953  0.00  0.00    +0.000 OA
BRANCH  16  18
ATOM     18  O   UNL     1       2.170   1.865  19.591  0.00  0.00    +0.000 OA
BRANCH  18  20
ATOM     19  C   UNL     1       4.091   1.286  18.300  0.00  0.00    +0.000 C 
ATOM     20  C   UNL     1       2.619   1.650  18.245  0.00  0.00    +0.000 C 
ENDBRANCH  18  20
ENDBRANCH  16  18
ENDBRANCH  15  16
ENDBRANCH  14  15
ENDBRANCH  13  14
ENDBRANCH   1  13
TORSDOF 6
ENDMDL
