MODEL 1
REMARK VINA RESULT:      -7.6      0.000      0.000
REMARK  Name = 
REMARK  7 active torsions:
REMARK  status: ('A' for Active; 'I' for Inactive)
REMARK    1  A    between atoms: C_1  and  C_2
REMARK    2  A    between atoms: C_2  and  C_3
REMARK    3  A    between atoms: C_3  and  C_4
REMARK    4  A    between atoms: C_4  and  N_5
REMARK    5  A    between atoms: C_6  and  C_8
REMARK    6  A    between atoms: N_12  and  S_13
REMARK    7  A    between atoms: S_13  and  C_16
REMARK                            x       y       z     vdW  Elec       q    Type
REMARK                         _______ _______ _______ _____ _____    ______ ____
ROOT
ATOM      1  C   UNL     1       1.790   4.734  19.338  0.00  0.00    +0.000 C 
ATOM      2  C   UNL     1       1.375   4.223  20.715  0.00  0.00    +0.000 C 
ATOM      3  C   UNL     1       1.180   2.738  20.477  0.00  0.00    +0.000 C 
ATOM      4  C   UNL     1       2.136   2.381  19.339  0.00  0.00    +0.000 C 
ATOM      5  N   UNL     1       2.720   3.670  18.841  0.00  0.00    +0.000 NA
ENDROOT
BRANCH   1   7
ATOM      6  N   UNL     1       2.602   6.709  18.139  0.00  0.00    +0.000 N 
ATOM      7  C   UNL     1       2.177   6.206  19.357  0.00  0.00    +0.000 C 
ATOM      8  O   UNL     1       1.992   6.920  20.341  0.00  0.00    +0.000 OA
ATOM      9  H   UNL     1       2.720   6.072  17.360  0.00  0.00    +0.000 HD
BRANCH   6  10
ATOM     10  C   UNL     1       2.770   8.135  17.941  0.00  0.00    +0.000 C 
BRANCH  10  11
ATOM     11  C   UNL     1       1.464   8.867  17.640  0.00  0.00    +0.000 C 
BRANCH  11  13
ATOM     12  C   UNL     1       0.197  10.049  19.498  0.00  0.00    +0.000 C 
ATOM     13  C   UNL     1       1.353  10.122  18.512  0.00  0.00    +0.000 C 
ENDBRANCH  11  13
ENDBRANCH  10  11
ENDBRANCH   6  10
ENDBRANCH   1   7
BRANCH   5  14
ATOM     14  S   UNL     1       4.377   3.880  19.219  0.00  0.00    +0.000 S 
ATOM     15  O   UNL     1       4.535   4.996  20.126  0.00  0.00    +0.000 OA
ATOM     16  O   UNL     1       4.906   2.573  19.549  0.00  0.00    +0.000 OA
BRANCH  14  17
ATOM     17  C   UNL     1       5.120   4.369  17.698  0.00  0.00    +0.000 A 
ATOM     18  C   UNL     1       4.784   3.715  16.488  0.00  0.00    +0.000 A 
ATOM     19  C   UNL     1       5.423   3.992  15.256  0.00  0.00    +0.000 A 
ATOM     20  C   UNL     1       6.446   4.946  15.126  0.00  0.00    +0.000 A 
ATOM     21  C   UNL     1       6.801   5.651  16.302  0.00  0.00    +0.000 A 
ATOM     22  N   UNL     1       7.735   6.610  16.379  0.00  0.00    +0.000 NA
ATOM     23  S   UNL     1       7.768   7.110  17.960  0.00  0.00    +0.000 S 
ATOM     24  N   UNL     1       6.594   6.140  18.617  0.00  0.00    +0.000 NA
ATOM     25  C   UNL     1       6.123   5.364  17.626  0.00  0.00    +0.000 A 
ENDBRANCH  14  17
ENDBRANCH   5  14
TORSDOF 6
ENDMDL
MODEL 2
REMARK VINA RESULT:      -7.5      1.865      2.364
REMARK  Name = 
REMARK  7 active torsions:
REMARK  status: ('A' for Active; 'I' for Inactive)
REMARK    1  A    between atoms: C_1  and  C_2
REMARK    2  A    between atoms: C_2  and  C_3
REMARK    3  A    between atoms: C_3  and  C_4
REMARK    4  A    between atoms: C_4  and  N_5
REMARK    5  A    between atoms: C_6  and  C_8
REMARK    6  A    between atoms: N_12  and  S_13
REMARK    7  A    between atoms: S_13  and  C_16
REMARK                            x       y       z     vdW  Elec       q    Type
REMARK                         _______ _______ _______ _____ _____    ______ ____
ROOT
ATOM      1  C   UNL     1       2.144   4.394  18.080  0.00  0.00    +0.000 C 
ATOM      2  C   UNL     1       1.102   3.739  18.983  0.00  0.00    +0.000 C 
ATOM      3  C   UNL     1       1.165   2.282  18.565  0.00  0.00    +0.000 C 
ATOM      4  C   UNL     1       2.598   2.059  18.085  0.00  0.00    +0.000 C 
ATOM      5  N   UNL     1       3.267   3.403  18.072  0.00  0.00    +0.000 NA
ENDROOT
BRANCH   1   7
ATOM      6  N   UNL     1       1.828   6.268  19.624  0.00  0.00    +0.000 N 
ATOM      7  C   UNL     1       2.360   5.863  18.412  0.00  0.00    +0.000 C 
ATOM      8  O   UNL     1       3.069   6.594  17.722  0.00  0.00    +0.000 OA
ATOM      9  H   UNL     1       1.265   5.614  20.155  0.00  0.00    +0.000 HD
BRANCH   6  10
ATOM     10  C   UNL     1       2.157   7.562  20.187  0.00  0.00    +0.000 C 
BRANCH  10  11
ATOM     11  C   UNL     1       1.065   8.129  21.091  0.00  0.00    +0.000 C 
BRANCH  11  13
ATOM     12  C   UNL     1       1.090   9.733  19.120  0.00  0.00    +0.000 C 
ATOM     13  C   UNL     1       0.427   9.360  20.436  0.00  0.00    +0.000 C 
ENDBRANCH  11  13
ENDBRANCH  10  11
ENDBRANCH   6  10
ENDBRANCH   1   7
BRANCH   5  14
ATOM     14  S   UNL     1       4.457   3.604  19.287  0.00  0.00    +0.000 S 
ATOM     15  O   UNL     1       3.926   4.409  20.365  0.00  0.00    +0.000 OA
ATOM     16  O   UNL     1       5.026   2.297  19.545  0.00  0.00    +0.000 OA
BRANCH  14  17
ATOM     17  C   UNL     1       5.714   4.572  18.519  0.00  0.00    +0.000 A 
ATOM     18  C   UNL     1       6.471   5.500  19.275  0.00  0.00    +0.000 A 
ATOM     19  C   UNL     1       7.419   6.378  18.696  0.00  0.00    +0.000 A 
ATOM     20  C   UNL     1       7.694   6.401  17.319  0.00  0.00    +0.000 A 
ATOM     21  C   UNL     1       6.984   5.471  16.520  0.00  0.00    +0.000 A 
ATOM     22  N   UNL     1       7.120   5.325  15.194  0.00  0.00    +0.000 NA
ATOM     23  S   UNL     1       6.075   4.118  14.744  0.00  0.00    +0.000 S 
ATOM     24  N   UNL     1       5.410   3.720  16.210  0.00  0.00    +0.000 NA
ATOM     25  C   UNL     1       5.968   4.526  17.129  0.00  0.00    +0.000 A 
ENDBRANCH  14  17
ENDBRANCH   5  14
TORSDOF 6
ENDMDL
MODEL 3
REMARK VINA RESULT:      -7.4      1.579      1.995
REMARK  Name = 
REMARK  7 active torsions:
REMARK  status: ('A' for Active; 'I' for Inactive)
REMARK    1  A    between atoms: C_1  and  C_2
REMARK    2  A    between atoms: C_2  and  C_3
REMARK    3  A    between atoms: C_3  and  C_4
REMARK    4  A    between atoms: C_4  and  N_5
REMARK    5  A    between atoms: C_6  and  C_8
REMARK    6  A    between atoms: N_12  and  S_13
REMARK    7  A    between atoms: S_13  and  C_16
REMARK                            x       y       z     vdW  Elec       q    Type
REMARK                         _______ _______ _______ _____ _____    ______ ____
ROOT
ATOM      1  C   UNL     1       2.005   4.431  18.417  0.00  0.00    +0.000 C 
ATOM      2  C   UNL     1       1.039   3.701  19.346  0.00  0.00    +0.000 C 
ATOM      3  C   UNL     1       1.027   2.294  18.780  0.00  0.00    +0.000 C 
ATOM      4  C   UNL     1       2.402   2.102  18.143  0.00  0.00    +0.000 C 
ATOM      5  N   UNL     1       3.099   3.430  18.201  0.00  0.00    +0.000 NA
ENDROOT
BRANCH   1   7
ATOM      6  N   UNL     1       2.719   6.709  17.873  0.00  0.00    +0.000 N 
ATOM      7  C   UNL     1       2.286   5.855  18.873  0.00  0.00    +0.000 C 
ATOM      8  O   UNL     1       2.017   6.246  20.007  0.00  0.00    +0.000 OA
ATOM      9  H   UNL     1       2.909   6.330  16.953  0.00  0.00    +0.000 HD
BRANCH   6  10
ATOM     10  C   UNL     1       2.795   8.139  18.095  0.00  0.00    +0.000 C 
BRANCH  10  11
ATOM     11  C   UNL     1       1.554   8.895  17.625  0.00  0.00    +0.000 C 
BRANCH  11  13
ATOM     12  C   UNL     1       0.847   9.848  19.871  0.00  0.00    +0.000 C 
ATOM     13  C   UNL     1       1.355  10.157  18.472  0.00  0.00    +0.000 C 
ENDBRANCH  11  13
ENDBRANCH  10  11
ENDBRANCH   6  10
ENDBRANCH   1   7
BRANCH   5  14
ATOM     14  S   UNL     1       4.403   3.489  19.308  0.00  0.00    +0.000 S 
ATOM     15  O   UNL     1       4.002   4.200  20.501  0.00  0.00    +0.000 OA
ATOM     16  O   UNL     1       4.953   2.151  19.388  0.00  0.00    +0.000 OA
BRANCH  14  17
ATOM     17  C   UNL     1       5.612   4.497  18.515  0.00  0.00    +0.000 A 
ATOM     18  C   UNL     1       6.441   5.360  19.273  0.00  0.00    +0.000 A 
ATOM     19  C   UNL     1       7.355   6.266  18.685  0.00  0.00    +0.000 A 
ATOM     20  C   UNL     1       7.522   6.387  17.296  0.00  0.00    +0.000 A 
ATOM     21  C   UNL     1       6.737   5.525  16.491  0.00  0.00    +0.000 A 
ATOM     22  N   UNL     1       6.766   5.474  15.152  0.00  0.00    +0.000 NA
ATOM     23  S   UNL     1       5.670   4.314  14.701  0.00  0.00    +0.000 S 
ATOM     24  N   UNL     1       5.115   3.818  16.182  0.00  0.00    +0.000 NA
ATOM     25  C   UNL     1       5.756   4.549  17.109  0.00  0.00    +0.000 A 
ENDBRANCH  14  17
ENDBRANCH   5  14
TORSDOF 6
ENDMDL
MODEL 4
REMARK VINA RESULT:      -7.3      0.922      1.161
REMARK  Name = 
REMARK  7 active torsions:
REMARK  status: ('A' for Active; 'I' for Inactive)
REMARK    1  A    between atoms: C_1  and  C_2
REMARK    2  A    between atoms: C_2  and  C_3
REMARK    3  A    between atoms: C_3  and  C_4
REMARK    4  A    between atoms: C_4  and  N_5
REMARK    5  A    between atoms: C_6  and  C_8
REMARK    6  A    between atoms: N_12  and  S_13
REMARK    7  A    between atoms: S_13  and  C_16
REMARK                            x       y       z     vdW  Elec       q    Type
REMARK                         _______ _______ _______ _____ _____    ______ ____
ROOT
ATOM      1  C   UNL     1       1.698   4.376  19.264  0.00  0.00    +0.000 C 
ATOM      2  C   UNL     1       1.307   3.958  20.679  0.00  0.00    +0.000 C 
ATOM      3  C   UNL     1       1.345   2.444  20.604  0.00  0.00    +0.000 C 
ATOM      4  C   UNL     1       2.389   2.117  19.537  0.00  0.00    +0.000 C 
ATOM      5  N   UNL     1       2.795   3.420  18.912  0.00  0.00    +0.000 NA
ENDROOT
BRANCH   1   7
ATOM      6  N   UNL     1       1.692   6.594  20.303  0.00  0.00    +0.000 N 
ATOM      7  C   UNL     1       1.859   5.883  19.127  0.00  0.00    +0.000 C 
ATOM      8  O   UNL     1       2.244   6.409  18.084  0.00  0.00    +0.000 OA
ATOM      9  H   UNL     1       1.388   6.101  21.134  0.00  0.00    +0.000 HD
BRANCH   6  10
ATOM     10  C   UNL     1       2.049   7.996  20.384  0.00  0.00    +0.000 C 
BRANCH  10  11
ATOM     11  C   UNL     1       0.867   8.909  20.701  0.00  0.00    +0.000 C 
BRANCH  11  13
ATOM     12  C   UNL     1       0.999   9.653  18.275  0.00  0.00    +0.000 C 
ATOM     13  C   UNL     1       0.836  10.088  19.723  0.00  0.00    +0.000 C 
ENDBRANCH  11  13
ENDBRANCH  10  11
ENDBRANCH   6  10
ENDBRANCH   1   7
BRANCH   5  14
ATOM     14  S   UNL     1       4.385   3.919  19.303  0.00  0.00    +0.000 S 
ATOM     15  O   UNL     1       4.336   5.099  20.138  0.00  0.00    +0.000 OA
ATOM     16  O   UNL     1       5.109   2.738  19.726  0.00  0.00    +0.000 OA
BRANCH  14  17
ATOM     17  C   UNL     1       5.081   4.429  17.767  0.00  0.00    +0.000 A 
ATOM     18  C   UNL     1       4.685   3.810  16.556  0.00  0.00    +0.000 A 
ATOM     19  C   UNL     1       5.282   4.104  15.306  0.00  0.00    +0.000 A 
ATOM     20  C   UNL     1       6.320   5.039  15.160  0.00  0.00    +0.000 A 
ATOM     21  C   UNL     1       6.734   5.708  16.337  0.00  0.00    +0.000 A 
ATOM     22  N   UNL     1       7.692   6.645  16.400  0.00  0.00    +0.000 NA
ATOM     23  S   UNL     1       7.795   7.106  17.990  0.00  0.00    +0.000 S 
ATOM     24  N   UNL     1       6.626   6.146  18.669  0.00  0.00    +0.000 NA
ATOM     25  C   UNL     1       6.101   5.404  17.679  0.00  0.00    +0.000 A 
ENDBRANCH  14  17
ENDBRANCH   5  14
TORSDOF 6
ENDMDL
MODEL 5
REMARK VINA RESULT:      -7.3      1.222      1.422
REMARK  Name = 
REMARK  7 active torsions:
REMARK  status: ('A' for Active; 'I' for Inactive)
REMARK    1  A    between atoms: C_1  and  C_2
REMARK    2  A    between atoms: C_2  and  C_3
REMARK    3  A    between atoms: C_3  and  C_4
REMARK    4  A    between atoms: C_4  and  N_5
REMARK    5  A    between atoms: C_6  and  C_8
REMARK    6  A    between atoms: N_12  and  S_13
REMARK    7  A    between atoms: S_13  and  C_16
REMARK                            x       y       z     vdW  Elec       q    Type
REMARK                         _______ _______ _______ _____ _____    ______ ____
ROOT
ATOM      1  C   UNL     1       1.683   4.387  19.241  0.00  0.00    +0.000 C 
ATOM      2  C   UNL     1       1.284   4.014  20.666  0.00  0.00    +0.000 C 
ATOM      3  C   UNL     1       1.312   2.498  20.636  0.00  0.00    +0.000 C 
ATOM      4  C   UNL     1       2.358   2.132  19.583  0.00  0.00    +0.000 C 
ATOM      5  N   UNL     1       2.775   3.413  18.922  0.00  0.00    +0.000 NA
ENDROOT
BRANCH   1   7
ATOM      6  N   UNL     1       1.745   6.629  20.224  0.00  0.00    +0.000 N 
ATOM      7  C   UNL     1       1.856   5.888  19.060  0.00  0.00    +0.000 C 
ATOM      8  O   UNL     1       2.203   6.384  17.989  0.00  0.00    +0.000 OA
ATOM      9  H   UNL     1       1.471   6.160  21.079  0.00  0.00    +0.000 HD
BRANCH   6  10
ATOM     10  C   UNL     1       2.121   8.028  20.255  0.00  0.00    +0.000 C 
BRANCH  10  11
ATOM     11  C   UNL     1       0.933   8.975  20.410  0.00  0.00    +0.000 C 
BRANCH  11  13
ATOM     12  C   UNL     1      -0.481   9.018  22.520  0.00  0.00    +0.000 C 
ATOM     13  C   UNL     1       0.822   9.446  21.864  0.00  0.00    +0.000 C 
ENDBRANCH  11  13
ENDBRANCH  10  11
ENDBRANCH   6  10
ENDBRANCH   1   7
BRANCH   5  14
ATOM     14  S   UNL     1       4.367   3.913  19.305  0.00  0.00    +0.000 S 
ATOM     15  O   UNL     1       4.322   5.085  20.151  0.00  0.00    +0.000 OA
ATOM     16  O   UNL     1       5.098   2.730  19.711  0.00  0.00    +0.000 OA
BRANCH  14  17
ATOM     17  C   UNL     1       5.049   4.439  17.768  0.00  0.00    +0.000 A 
ATOM     18  C   UNL     1       4.626   3.848  16.552  0.00  0.00    +0.000 A 
ATOM     19  C   UNL     1       5.211   4.155  15.300  0.00  0.00    +0.000 A 
ATOM     20  C   UNL     1       6.261   5.075  15.154  0.00  0.00    +0.000 A 
ATOM     21  C   UNL     1       6.703   5.717  16.337  0.00  0.00    +0.000 A 
ATOM     22  N   UNL     1       7.677   6.637  16.403  0.00  0.00    +0.000 NA
ATOM     23  S   UNL     1       7.810   7.068  17.999  0.00  0.00    +0.000 S 
ATOM     24  N   UNL     1       6.635   6.115  18.677  0.00  0.00    +0.000 NA
ATOM     25  C   UNL     1       6.084   5.398  17.683  0.00  0.00    +0.000 A 
ENDBRANCH  14  17
ENDBRANCH   5  14
TORSDOF 6
ENDMDL
MODEL 6
REMARK VINA RESULT:      -7.3      1.055      1.144
REMARK  Name = 
REMARK  7 active torsions:
REMARK  status: ('A' for Active; 'I' for Inactive)
REMARK    1  A    between atoms: C_1  and  C_2
REMARK    2  A    between atoms: C_2  and  C_3
REMARK    3  A    between atoms: C_3  and  C_4
REMARK    4  A    between atoms: C_4  and  N_5
REMARK    5  A    between atoms: C_6  and  C_8
REMARK    6  A    between atoms: N_12  and  S_13
REMARK    7  A    between atoms: S_13  and  C_16
REMARK                            x       y       z     vdW  Elec       q    Type
REMARK                         _______ _______ _______ _____ _____    ______ ____
ROOT
ATOM      1  C   UNL     1       1.764   4.543  18.873  0.00  0.00    +0.000 C 
ATOM      2  C   UNL     1       1.245   4.169  20.259  0.00  0.00    +0.000 C 
ATOM      3  C   UNL     1       0.500   2.874  20.000  0.00  0.00    +0.000 C 
ATOM      4  C   UNL     1       1.205   2.232  18.805  0.00  0.00    +0.000 C 
ATOM      5  N   UNL     1       2.208   3.230  18.304  0.00  0.00    +0.000 NA
ENDROOT
BRANCH   1   7
ATOM      6  N   UNL     1       2.621   6.551  17.764  0.00  0.00    +0.000 N 
ATOM      7  C   UNL     1       2.671   5.764  18.902  0.00  0.00    +0.000 C 
ATOM      8  O   UNL     1       3.293   6.095  19.911  0.00  0.00    +0.000 OA
ATOM      9  H   UNL     1       2.078   6.232  16.971  0.00  0.00    +0.000 HD
BRANCH   6  10
ATOM     10  C   UNL     1       3.236   7.863  17.738  0.00  0.00    +0.000 C 
BRANCH  10  11
ATOM     11  C   UNL     1       2.374   8.953  18.371  0.00  0.00    +0.000 C 
BRANCH  11  13
ATOM     12  C   UNL     1       0.053   9.985  18.326  0.00  0.00    +0.000 C 
ATOM     13  C   UNL     1       1.044   9.073  17.620  0.00  0.00    +0.000 C 
ENDBRANCH  11  13
ENDBRANCH  10  11
ENDBRANCH   6  10
ENDBRANCH   1   7
BRANCH   5  14
ATOM     14  S   UNL     1       3.837   2.794  18.598  0.00  0.00    +0.000 S 
ATOM     15  O   UNL     1       4.207   3.162  19.947  0.00  0.00    +0.000 OA
ATOM     16  O   UNL     1       4.005   1.436  18.124  0.00  0.00    +0.000 OA
BRANCH  14  17
ATOM     17  C   UNL     1       4.774   3.834  17.527  0.00  0.00    +0.000 A 
ATOM     18  C   UNL     1       4.487   3.887  16.141  0.00  0.00    +0.000 A 
ATOM     19  C   UNL     1       5.269   4.621  15.218  0.00  0.00    +0.000 A 
ATOM     20  C   UNL     1       6.398   5.365  15.597  0.00  0.00    +0.000 A 
ATOM     21  C   UNL     1       6.712   5.370  16.978  0.00  0.00    +0.000 A 
ATOM     22  N   UNL     1       7.734   6.033  17.539  0.00  0.00    +0.000 NA
ATOM     23  S   UNL     1       7.668   5.713  19.165  0.00  0.00    +0.000 S 
ATOM     24  N   UNL     1       6.337   4.727  19.234  0.00  0.00    +0.000 NA
ATOM     25  C   UNL     1       5.882   4.589  17.976  0.00  0.00    +0.000 A 
ENDBRANCH  14  17
ENDBRANCH   5  14
TORSDOF 6
ENDMDL
MODEL 7
REMARK VINA RESULT:      -6.9      2.509      5.985
REMARK  Name = 
REMARK  7 active torsions:
REMARK  status: ('A' for Active; 'I' for Inactive)
REMARK    1  A    between atoms: C_1  and  C_2
REMARK    2  A    between atoms: C_2  and  C_3
REMARK    3  A    between atoms: C_3  and  C_4
REMARK    4  A    between atoms: C_4  and  N_5
REMARK    5  A    between atoms: C_6  and  C_8
REMARK    6  A    between atoms: N_12  and  S_13
REMARK    7  A    between atoms: S_13  and  C_16
REMARK                            x       y       z     vdW  Elec       q    Type
REMARK                         _______ _______ _______ _____ _____    ______ ____
ROOT
ATOM      1  C   UNL     1       4.037   3.649  19.469  0.00  0.00    +0.000 C 
ATOM      2  C   UNL     1       3.145   2.600  18.810  0.00  0.00    +0.000 C 
ATOM      3  C   UNL     1       1.928   2.579  19.714  0.00  0.00    +0.000 C 
ATOM      4  C   UNL     1       1.835   3.986  20.302  0.00  0.00    +0.000 C 
ATOM      5  N   UNL     1       3.071   4.720  19.870  0.00  0.00    +0.000 NA
ENDROOT
BRANCH   1   7
ATOM      6  N   UNL     1       5.161   3.709  17.294  0.00  0.00    +0.000 N 
ATOM      7  C   UNL     1       5.286   3.946  18.652  0.00  0.00    +0.000 C 
ATOM      8  O   UNL     1       6.278   4.484  19.142  0.00  0.00    +0.000 OA
ATOM      9  H   UNL     1       4.312   3.278  16.948  0.00  0.00    +0.000 HD
BRANCH   6  10
ATOM     10  C   UNL     1       6.170   4.168  16.361  0.00  0.00    +0.000 C 
BRANCH  10  11
ATOM     11  C   UNL     1       5.604   4.584  15.006  0.00  0.00    +0.000 C 
BRANCH  11  13
ATOM     12  C   UNL     1       5.702   3.502  12.709  0.00  0.00    +0.000 C 
ATOM     13  C   UNL     1       6.499   4.059  13.878  0.00  0.00    +0.000 C 
ENDBRANCH  11  13
ENDBRANCH  10  11
ENDBRANCH   6  10
ENDBRANCH   1   7
BRANCH   5  14
ATOM     14  S   UNL     1       2.787   5.950  18.713  0.00  0.00    +0.000 S 
ATOM     15  O   UNL     1       4.047   6.467  18.228  0.00  0.00    +0.000 OA
ATOM     16  O   UNL     1       1.786   5.447  17.795  0.00  0.00    +0.000 OA
BRANCH  14  17
ATOM     17  C   UNL     1       2.036   7.256  19.630  0.00  0.00    +0.000 A 
ATOM     18  C   UNL     1       1.507   7.018  20.921  0.00  0.00    +0.000 A 
ATOM     19  C   UNL     1       0.802   7.998  21.660  0.00  0.00    +0.000 A 
ATOM     20  C   UNL     1       0.569   9.295  21.176  0.00  0.00    +0.000 A 
ATOM     21  C   UNL     1       1.103   9.595  19.899  0.00  0.00    +0.000 A 
ATOM     22  N   UNL     1       1.005  10.778  19.275  0.00  0.00    +0.000 NA
ATOM     23  S   UNL     1       1.787  10.611  17.822  0.00  0.00    +0.000 S 
ATOM     24  N   UNL     1       2.292   9.035  17.921  0.00  0.00    +0.000 NA
ATOM     25  C   UNL     1       1.861   8.555  19.100  0.00  0.00    +0.000 A 
ENDBRANCH  14  17
ENDBRANCH   5  14
TORSDOF 6
ENDMDL
MODEL 8
REMARK VINA RESULT:      -6.9      2.664      5.715
REMARK  Name = 
REMARK  7 active torsions:
REMARK  status: ('A' for Active; 'I' for Inactive)
REMARK    1  A    between atoms: C_1  and  C_2
REMARK    2  A    between atoms: C_2  and  C_3
REMARK    3  A    between atoms: C_3  and  C_4
REMARK    4  A    between atoms: C_4  and  N_5
REMARK    5  A    between atoms: C_6  and  C_8
REMARK    6  A    between atoms: N_12  and  S_13
REMARK    7  A    between atoms: S_13  and  C_16
REMARK                            x       y       z     vdW  Elec       q    Type
REMARK                         _______ _______ _______ _____ _____    ______ ____
ROOT
ATOM      1  C   UNL     1       4.163   3.713  19.038  0.00  0.00    +0.000 C 
ATOM      2  C   UNL     1       3.392   2.624  18.297  0.00  0.00    +0.000 C 
ATOM      3  C   UNL     1       2.179   2.409  19.181  0.00  0.00    +0.000 C 
ATOM      4  C   UNL     1       1.933   3.754  19.864  0.00  0.00    +0.000 C 
ATOM      5  N   UNL     1       3.085   4.645  19.501  0.00  0.00    +0.000 NA
ENDROOT
BRANCH   1   7
ATOM      6  N   UNL     1       6.306   4.897  19.012  0.00  0.00    +0.000 N 
ATOM      7  C   UNL     1       5.377   4.198  18.260  0.00  0.00    +0.000 C 
ATOM      8  O   UNL     1       5.579   3.875  17.091  0.00  0.00    +0.000 OA
ATOM      9  H   UNL     1       6.088   5.120  19.976  0.00  0.00    +0.000 HD
BRANCH   6  10
ATOM     10  C   UNL     1       7.615   5.211  18.475  0.00  0.00    +0.000 C 
BRANCH  10  11
ATOM     11  C   UNL     1       8.057   6.647  18.746  0.00  0.00    +0.000 C 
BRANCH  11  13
ATOM     12  C   UNL     1       8.034   9.006  17.803  0.00  0.00    +0.000 C 
ATOM     13  C   UNL     1       7.634   7.555  17.587  0.00  0.00    +0.000 C 
ENDBRANCH  11  13
ENDBRANCH  10  11
ENDBRANCH   6  10
ENDBRANCH   1   7
BRANCH   5  14
ATOM     14  S   UNL     1       2.676   5.916  18.429  0.00  0.00    +0.000 S 
ATOM     15  O   UNL     1       3.877   6.457  17.831  0.00  0.00    +0.000 OA
ATOM     16  O   UNL     1       1.583   5.442  17.604  0.00  0.00    +0.000 OA
BRANCH  14  17
ATOM     17  C   UNL     1       2.027   7.181  19.469  0.00  0.00    +0.000 A 
ATOM     18  C   UNL     1       1.580   6.879  20.778  0.00  0.00    +0.000 A 
ATOM     19  C   UNL     1       0.955   7.830  21.620  0.00  0.00    +0.000 A 
ATOM     20  C   UNL     1       0.726   9.160  21.229  0.00  0.00    +0.000 A 
ATOM     21  C   UNL     1       1.181   9.523  19.938  0.00  0.00    +0.000 A 
ATOM     22  N   UNL     1       1.075  10.743  19.392  0.00  0.00    +0.000 NA
ATOM     23  S   UNL     1       1.751  10.644  17.881  0.00  0.00    +0.000 S 
ATOM     24  N   UNL     1       2.217   9.053  17.853  0.00  0.00    +0.000 NA
ATOM     25  C   UNL     1       1.853   8.514  19.029  0.00  0.00    +0.000 A 
ENDBRANCH  14  17
ENDBRANCH   5  14
TORSDOF 6
ENDMDL
MODEL 9
REMARK VINA RESULT:      -6.8      2.857      5.990
REMARK  Name = 
REMARK  7 active torsions:
REMARK  status: ('A' for Active; 'I' for Inactive)
REMARK    1  A    between atoms: C_1  and  C_2
REMARK    2  A    between atoms: C_2  and  C_3
REMARK    3  A    between atoms: C_3  and  C_4
REMARK    4  A    between atoms: C_4  and  N_5
REMARK    5  A    between atoms: C_6  and  C_8
REMARK    6  A    between atoms: N_12  and  S_13
REMARK    7  A    between atoms: S_13  and  C_16
REMARK                            x       y       z     vdW  Elec       q    Type
REMARK                         _______ _______ _______ _____ _____    ______ ____
ROOT
ATOM      1  C   UNL     1       7.093   4.711  17.292  0.00  0.00    +0.000 C 
ATOM      2  C   UNL     1       6.933   5.262  15.877  0.00  0.00    +0.000 C 
ATOM      3  C   UNL     1       6.056   4.221  15.208  0.00  0.00    +0.000 C 
ATOM      4  C   UNL     1       5.208   3.624  16.331  0.00  0.00    +0.000 C 
ATOM      5  N   UNL     1       5.724   4.197  17.618  0.00  0.00    +0.000 NA
ENDROOT
BRANCH   1   7
ATOM      6  N   UNL     1       7.842   6.989  17.789  0.00  0.00    +0.000 N 
ATOM      7  C   UNL     1       7.839   5.669  18.208  0.00  0.00    +0.000 C 
ATOM      8  O   UNL     1       8.284   5.320  19.301  0.00  0.00    +0.000 OA
ATOM      9  H   UNL     1       7.446   7.217  16.885  0.00  0.00    +0.000 HD
BRANCH   6  10
ATOM     10  C   UNL     1       8.297   8.048  18.667  0.00  0.00    +0.000 C 
BRANCH  10  11
ATOM     11  C   UNL     1       8.345   9.419  17.995  0.00  0.00    +0.000 C 
BRANCH  11  13
ATOM     12  C   UNL     1      10.038  11.313  17.988  0.00  0.00    +0.000 C 
ATOM     13  C   UNL     1       9.180  10.389  18.837  0.00  0.00    +0.000 C 
ENDBRANCH  11  13
ENDBRANCH  10  11
ENDBRANCH   6  10
ENDBRANCH   1   7
BRANCH   5  14
ATOM     14  S   UNL     1       4.659   5.309  18.366  0.00  0.00    +0.000 S 
ATOM     15  O   UNL     1       5.083   5.554  19.727  0.00  0.00    +0.000 OA
ATOM     16  O   UNL     1       4.469   6.405  17.438  0.00  0.00    +0.000 OA
BRANCH  14  17
ATOM     17  C   UNL     1       3.124   4.451  18.473  0.00  0.00    +0.000 A 
ATOM     18  C   UNL     1       2.190   4.510  17.410  0.00  0.00    +0.000 A 
ATOM     19  C   UNL     1       0.901   3.929  17.481  0.00  0.00    +0.000 A 
ATOM     20  C   UNL     1       0.438   3.238  18.613  0.00  0.00    +0.000 A 
ATOM     21  C   UNL     1       1.345   3.124  19.694  0.00  0.00    +0.000 A 
ATOM     22  N   UNL     1       1.099   2.488  20.849  0.00  0.00    +0.000 NA
ATOM     23  S   UNL     1       2.468   2.645  21.773  0.00  0.00    +0.000 S 
ATOM     24  N   UNL     1       3.437   3.517  20.749  0.00  0.00    +0.000 NA
ATOM     25  C   UNL     1       2.728   3.741  19.630  0.00  0.00    +0.000 A 
ENDBRANCH  14  17
ENDBRANCH   5  14
TORSDOF 6
ENDMDL
