MODEL 1
REMARK VINA RESULT:      -8.9      0.000      0.000
REMARK  Name = 
REMARK  5 active torsions:
REMARK  status: ('A' for Active; 'I' for Inactive)
REMARK    1  A    between atoms: C_4  and  C_5
REMARK    2  A    between atoms: C_7  and  C_8
REMARK    3  A    between atoms: C_11  and  N_12
REMARK    4  A    between atoms: C_21  and  C_22
REMARK    5  A    between atoms: C_25  and  N_26
REMARK                            x       y       z     vdW  Elec       q    Type
REMARK                         _______ _______ _______ _____ _____    ______ ____
ROOT
ATOM      1  C   UNL     1       0.835  13.141  18.952  0.00  0.00    +0.000 A 
ATOM      2  C   UNL     1       1.411  11.847  18.860  0.00  0.00    +0.000 A 
ATOM      3  C   UNL     1       0.777  10.621  19.122  0.00  0.00    +0.000 A 
ATOM      4  S   UNL     1      -0.924  10.556  19.614  0.00  0.00    +0.000 S 
ATOM      5  C   UNL     1      -1.380  12.266  19.788  0.00  0.00    +0.000 A 
ATOM      6  C   UNL     1      -0.502  13.298  19.403  0.00  0.00    +0.000 A 
ENDROOT
BRANCH   1  10
ATOM      7  C   UNL     1       3.196  16.602  17.866  0.00  0.00    +0.000 A 
ATOM      8  C   UNL     1       1.924  16.765  18.401  0.00  0.00    +0.000 A 
ATOM      9  C   UNL     1       1.172  15.644  18.773  0.00  0.00    +0.000 A 
ATOM     10  C   UNL     1       1.660  14.333  18.597  0.00  0.00    +0.000 A 
ATOM     11  C   UNL     1       2.950  14.203  18.050  0.00  0.00    +0.000 A 
ATOM     12  C   UNL     1       3.713  15.321  17.698  0.00  0.00    +0.000 A 
ENDBRANCH   1  10
BRANCH   3  13
ATOM     13  C   UNL     1       1.453   9.318  19.002  0.00  0.00    +0.000 A 
ATOM     14  C   UNL     1       2.030   8.901  17.793  0.00  0.00    +0.000 A 
ATOM     15  C   UNL     1       2.655   7.652  17.673  0.00  0.00    +0.000 A 
ATOM     16  C   UNL     1       2.728   6.766  18.750  0.00  0.00    +0.000 A 
ATOM     17  C   UNL     1       2.184   7.197  19.964  0.00  0.00    +0.000 A 
ATOM     18  C   UNL     1       1.555   8.438  20.088  0.00  0.00    +0.000 A 
BRANCH  16  19
ATOM     19  N   UNL     1       3.333   5.521  18.684  0.00  0.00    +0.000 N 
ATOM     20  C   UNL     1       4.293   5.072  19.704  0.00  0.00    +0.000 C 
ATOM     21  C   UNL     1       5.737   5.187  19.198  0.00  0.00    +0.000 C 
ATOM     22  O   UNL     1       5.915   4.510  17.943  0.00  0.00    +0.000 OA
ATOM     23  C   UNL     1       5.049   5.083  16.950  0.00  0.00    +0.000 C 
ATOM     24  C   UNL     1       3.568   4.951  17.343  0.00  0.00    +0.000 C 
ENDBRANCH  16  19
ENDBRANCH   3  13
BRANCH   5  25
ATOM     25  C   UNL     1      -2.744  12.475  20.305  0.00  0.00    +0.000 A 
ATOM     26  C   UNL     1      -3.860  12.401  19.452  0.00  0.00    +0.000 A 
ATOM     27  C   UNL     1      -5.157  12.669  19.899  0.00  0.00    +0.000 A 
ATOM     28  C   UNL     1      -5.410  12.995  21.228  0.00  0.00    +0.000 A 
ATOM     29  C   UNL     1      -4.302  13.031  22.091  0.00  0.00    +0.000 A 
ATOM     30  C   UNL     1      -3.000  12.783  21.642  0.00  0.00    +0.000 A 
BRANCH  28  31
ATOM     31  N   UNL     1      -6.686  13.237  21.716  0.00  0.00    +0.000 N 
ATOM     32  C   UNL     1      -7.177  14.619  21.884  0.00  0.00    +0.000 C 
ATOM     33  C   UNL     1      -7.071  15.088  23.343  0.00  0.00    +0.000 C 
ATOM     34  O   UNL     1      -7.721  14.171  24.236  0.00  0.00    +0.000 OA
ATOM     35  C   UNL     1      -7.104  12.877  24.142  0.00  0.00    +0.000 C 
ATOM     36  C   UNL     1      -7.216  12.292  22.723  0.00  0.00    +0.000 C 
ENDBRANCH  28  31
ENDBRANCH   5  25
TORSDOF 5
ENDMDL
MODEL 2
REMARK VINA RESULT:      -8.9      0.867      9.964
REMARK  Name = 
REMARK  5 active torsions:
REMARK  status: ('A' for Active; 'I' for Inactive)
REMARK    1  A    between atoms: C_4  and  C_5
REMARK    2  A    between atoms: C_7  and  C_8
REMARK    3  A    between atoms: C_11  and  N_12
REMARK    4  A    between atoms: C_21  and  C_22
REMARK    5  A    between atoms: C_25  and  N_26
REMARK                            x       y       z     vdW  Elec       q    Type
REMARK                         _______ _______ _______ _____ _____    ______ ____
ROOT
ATOM      1  C   UNL     1       0.833  13.198  19.007  0.00  0.00    +0.000 A 
ATOM      2  C   UNL     1      -0.500  13.344  19.471  0.00  0.00    +0.000 A 
ATOM      3  C   UNL     1      -1.351  12.323  19.928  0.00  0.00    +0.000 A 
ATOM      4  S   UNL     1      -0.809  10.638  19.991  0.00  0.00    +0.000 S 
ATOM      5  C   UNL     1       0.807  10.685  19.249  0.00  0.00    +0.000 A 
ATOM      6  C   UNL     1       1.420  11.908  18.913  0.00  0.00    +0.000 A 
ENDROOT
BRANCH   1  10
ATOM      7  C   UNL     1       3.019  16.715  17.753  0.00  0.00    +0.000 A 
ATOM      8  C   UNL     1       1.759  16.844  18.323  0.00  0.00    +0.000 A 
ATOM      9  C   UNL     1       1.064  15.706  18.750  0.00  0.00    +0.000 A 
ATOM     10  C   UNL     1       1.598  14.410  18.594  0.00  0.00    +0.000 A 
ATOM     11  C   UNL     1       2.875  14.315  18.011  0.00  0.00    +0.000 A 
ATOM     12  C   UNL     1       3.582  15.452  17.604  0.00  0.00    +0.000 A 
ENDBRANCH   1  10
BRANCH   3  13
ATOM     13  C   UNL     1      -2.728  12.565  20.392  0.00  0.00    +0.000 A 
ATOM     14  C   UNL     1      -3.813  12.554  19.504  0.00  0.00    +0.000 A 
ATOM     15  C   UNL     1      -5.122  12.805  19.943  0.00  0.00    +0.000 A 
ATOM     16  C   UNL     1      -5.401  13.081  21.283  0.00  0.00    +0.000 A 
ATOM     17  C   UNL     1      -4.323  13.056  22.174  0.00  0.00    +0.000 A 
ATOM     18  C   UNL     1      -3.017  12.812  21.741  0.00  0.00    +0.000 A 
BRANCH  16  19
ATOM     19  N   UNL     1      -6.673  13.335  21.768  0.00  0.00    +0.000 N 
ATOM     20  C   UNL     1      -7.082  14.680  22.202  0.00  0.00    +0.000 C 
ATOM     21  C   UNL     1      -7.076  14.797  23.732  0.00  0.00    +0.000 C 
ATOM     22  O   UNL     1      -7.860  13.762  24.346  0.00  0.00    +0.000 OA
ATOM     23  C   UNL     1      -7.331  12.472  23.996  0.00  0.00    +0.000 C 
ATOM     24  C   UNL     1      -7.362  12.238  22.478  0.00  0.00    +0.000 C 
ENDBRANCH  16  19
ENDBRANCH   3  13
BRANCH   5  25
ATOM     25  C   UNL     1       1.431   9.361  19.085  0.00  0.00    +0.000 A 
ATOM     26  C   UNL     1       1.411   8.416  20.126  0.00  0.00    +0.000 A 
ATOM     27  C   UNL     1       2.060   7.183  20.025  0.00  0.00    +0.000 A 
ATOM     28  C   UNL     1       2.739   6.816  18.867  0.00  0.00    +0.000 A 
ATOM     29  C   UNL     1       2.728   7.742  17.810  0.00  0.00    +0.000 A 
ATOM     30  C   UNL     1       2.096   8.986  17.915  0.00  0.00    +0.000 A 
BRANCH  28  31
ATOM     31  N   UNL     1       3.369   5.589  18.717  0.00  0.00    +0.000 N 
ATOM     32  C   UNL     1       3.113   4.753  17.527  0.00  0.00    +0.000 C 
ATOM     33  C   UNL     1       2.102   3.635  17.824  0.00  0.00    +0.000 C 
ATOM     34  O   UNL     1       2.505   2.852  18.958  0.00  0.00    +0.000 OA
ATOM     35  C   UNL     1       2.592   3.689  20.122  0.00  0.00    +0.000 C 
ATOM     36  C   UNL     1       3.633   4.809  19.945  0.00  0.00    +0.000 C 
ENDBRANCH  28  31
ENDBRANCH   5  25
TORSDOF 5
ENDMDL
MODEL 3
REMARK VINA RESULT:      -8.9      0.930      1.302
REMARK  Name = 
REMARK  5 active torsions:
REMARK  status: ('A' for Active; 'I' for Inactive)
REMARK    1  A    between atoms: C_4  and  C_5
REMARK    2  A    between atoms: C_7  and  C_8
REMARK    3  A    between atoms: C_11  and  N_12
REMARK    4  A    between atoms: C_21  and  C_22
REMARK    5  A    between atoms: C_25  and  N_26
REMARK                            x       y       z     vdW  Elec       q    Type
REMARK                         _______ _______ _______ _____ _____    ______ ____
ROOT
ATOM      1  C   UNL     1       0.891  13.027  19.047  0.00  0.00    +0.000 A 
ATOM      2  C   UNL     1       1.438  11.718  19.006  0.00  0.00    +0.000 A 
ATOM      3  C   UNL     1       0.774  10.516  19.306  0.00  0.00    +0.000 A 
ATOM      4  S   UNL     1      -0.931  10.506  19.786  0.00  0.00    +0.000 S 
ATOM      5  C   UNL     1      -1.349  12.231  19.896  0.00  0.00    +0.000 A 
ATOM      6  C   UNL     1      -0.446  13.229  19.482  0.00  0.00    +0.000 A 
ENDROOT
BRANCH   1  10
ATOM      7  C   UNL     1       3.338  16.392  17.859  0.00  0.00    +0.000 A 
ATOM      8  C   UNL     1       2.056  16.601  18.353  0.00  0.00    +0.000 A 
ATOM      9  C   UNL     1       1.276  15.512  18.758  0.00  0.00    +0.000 A 
ATOM     10  C   UNL     1       1.744  14.186  18.657  0.00  0.00    +0.000 A 
ATOM     11  C   UNL     1       3.045  14.009  18.151  0.00  0.00    +0.000 A 
ATOM     12  C   UNL     1       3.836  15.097  17.765  0.00  0.00    +0.000 A 
ENDBRANCH   1  10
BRANCH   3  13
ATOM     13  C   UNL     1       1.422   9.195  19.238  0.00  0.00    +0.000 A 
ATOM     14  C   UNL     1       2.017   8.731  18.055  0.00  0.00    +0.000 A 
ATOM     15  C   UNL     1       2.615   7.464  17.984  0.00  0.00    +0.000 A 
ATOM     16  C   UNL     1       2.641   6.608  19.086  0.00  0.00    +0.000 A 
ATOM     17  C   UNL     1       2.079   7.085  20.274  0.00  0.00    +0.000 A 
ATOM     18  C   UNL     1       1.478   8.343  20.350  0.00  0.00    +0.000 A 
BRANCH  16  19
ATOM     19  N   UNL     1       3.218   5.348  19.069  0.00  0.00    +0.000 N 
ATOM     20  C   UNL     1       3.837   4.796  17.854  0.00  0.00    +0.000 C 
ATOM     21  C   UNL     1       2.914   3.776  17.175  0.00  0.00    +0.000 C 
ATOM     22  O   UNL     1       2.492   2.751  18.088  0.00  0.00    +0.000 OA
ATOM     23  C   UNL     1       1.775   3.337  19.187  0.00  0.00    +0.000 C 
ATOM     24  C   UNL     1       2.648   4.328  19.972  0.00  0.00    +0.000 C 
ENDBRANCH  16  19
ENDBRANCH   3  13
BRANCH   5  25
ATOM     25  C   UNL     1      -2.712  12.488  20.394  0.00  0.00    +0.000 A 
ATOM     26  C   UNL     1      -3.814  12.490  19.520  0.00  0.00    +0.000 A 
ATOM     27  C   UNL     1      -5.106  12.805  19.950  0.00  0.00    +0.000 A 
ATOM     28  C   UNL     1      -5.369  13.106  21.283  0.00  0.00    +0.000 A 
ATOM     29  C   UNL     1      -4.277  13.067  22.167  0.00  0.00    +0.000 A 
ATOM     30  C   UNL     1      -2.979  12.771  21.735  0.00  0.00    +0.000 A 
BRANCH  28  31
ATOM     31  N   UNL     1      -6.642  13.393  21.756  0.00  0.00    +0.000 N 
ATOM     32  C   UNL     1      -7.059  14.789  21.991  0.00  0.00    +0.000 C 
ATOM     33  C   UNL     1      -6.965  15.169  23.477  0.00  0.00    +0.000 C 
ATOM     34  O   UNL     1      -7.688  14.242  24.301  0.00  0.00    +0.000 OA
ATOM     35  C   UNL     1      -7.143  12.922  24.147  0.00  0.00    +0.000 C 
ATOM     36  C   UNL     1      -7.250  12.425  22.693  0.00  0.00    +0.000 C 
ENDBRANCH  28  31
ENDBRANCH   5  25
TORSDOF 5
ENDMDL
MODEL 4
REMARK VINA RESULT:      -8.8      0.800      1.596
REMARK  Name = 
REMARK  5 active torsions:
REMARK  status: ('A' for Active; 'I' for Inactive)
REMARK    1  A    between atoms: C_4  and  C_5
REMARK    2  A    between atoms: C_7  and  C_8
REMARK    3  A    between atoms: C_11  and  N_12
REMARK    4  A    between atoms: C_21  and  C_22
REMARK    5  A    between atoms: C_25  and  N_26
REMARK                            x       y       z     vdW  Elec       q    Type
REMARK                         _______ _______ _______ _____ _____    ______ ____
ROOT
ATOM      1  C   UNL     1       1.059  13.065  19.022  0.00  0.00    +0.000 A 
ATOM      2  C   UNL     1       1.608  11.772  18.814  0.00  0.00    +0.000 A 
ATOM      3  C   UNL     1       0.988  10.540  19.083  0.00  0.00    +0.000 A 
ATOM      4  S   UNL     1      -0.654  10.464  19.740  0.00  0.00    +0.000 S 
ATOM      5  C   UNL     1      -1.071  12.167  20.036  0.00  0.00    +0.000 A 
ATOM      6  C   UNL     1      -0.224  13.210  19.613  0.00  0.00    +0.000 A 
ENDROOT
BRANCH   1  10
ATOM      7  C   UNL     1       3.404  16.547  17.971  0.00  0.00    +0.000 A 
ATOM      8  C   UNL     1       3.947  15.275  17.842  0.00  0.00    +0.000 A 
ATOM      9  C   UNL     1       3.179  14.150  18.160  0.00  0.00    +0.000 A 
ATOM     10  C   UNL     1       1.857  14.266  18.640  0.00  0.00    +0.000 A 
ATOM     11  C   UNL     1       1.338  15.568  18.761  0.00  0.00    +0.000 A 
ATOM     12  C   UNL     1       2.096  16.694  18.423  0.00  0.00    +0.000 A 
ENDBRANCH   1  10
BRANCH   3  13
ATOM     13  C   UNL     1       1.634   9.239  18.836  0.00  0.00    +0.000 A 
ATOM     14  C   UNL     1       1.674   8.242  19.821  0.00  0.00    +0.000 A 
ATOM     15  C   UNL     1       2.308   7.012  19.594  0.00  0.00    +0.000 A 
ATOM     16  C   UNL     1       2.929   6.726  18.376  0.00  0.00    +0.000 A 
ATOM     17  C   UNL     1       2.858   7.707  17.382  0.00  0.00    +0.000 A 
ATOM     18  C   UNL     1       2.234   8.937  17.605  0.00  0.00    +0.000 A 
BRANCH  16  19
ATOM     19  N   UNL     1       3.568   5.529  18.100  0.00  0.00    +0.000 N 
ATOM     20  C   UNL     1       3.045   4.242  18.584  0.00  0.00    +0.000 C 
ATOM     21  C   UNL     1       3.834   3.744  19.802  0.00  0.00    +0.000 C 
ATOM     22  O   UNL     1       5.245   3.696  19.537  0.00  0.00    +0.000 OA
ATOM     23  C   UNL     1       5.726   5.008  19.202  0.00  0.00    +0.000 C 
ATOM     24  C   UNL     1       5.037   5.562  17.945  0.00  0.00    +0.000 C 
ENDBRANCH  16  19
ENDBRANCH   3  13
BRANCH   5  25
ATOM     25  C   UNL     1      -2.374  12.361  20.697  0.00  0.00    +0.000 A 
ATOM     26  C   UNL     1      -3.555  12.493  19.945  0.00  0.00    +0.000 A 
ATOM     27  C   UNL     1      -4.792  12.753  20.540  0.00  0.00    +0.000 A 
ATOM     28  C   UNL     1      -4.919  12.866  21.922  0.00  0.00    +0.000 A 
ATOM     29  C   UNL     1      -3.748  12.696  22.679  0.00  0.00    +0.000 A 
ATOM     30  C   UNL     1      -2.504  12.455  22.084  0.00  0.00    +0.000 A 
BRANCH  28  31
ATOM     31  N   UNL     1      -6.134  13.093  22.552  0.00  0.00    +0.000 N 
ATOM     32  C   UNL     1      -7.340  13.416  21.766  0.00  0.00    +0.000 C 
ATOM     33  C   UNL     1      -7.629  14.925  21.763  0.00  0.00    +0.000 C 
ATOM     34  O   UNL     1      -7.698  15.448  23.097  0.00  0.00    +0.000 OA
ATOM     35  C   UNL     1      -6.445  15.240  23.769  0.00  0.00    +0.000 C 
ATOM     36  C   UNL     1      -6.096  13.745  23.879  0.00  0.00    +0.000 C 
ENDBRANCH  28  31
ENDBRANCH   5  25
TORSDOF 5
ENDMDL
MODEL 5
REMARK VINA RESULT:      -8.7      1.104     10.123
REMARK  Name = 
REMARK  5 active torsions:
REMARK  status: ('A' for Active; 'I' for Inactive)
REMARK    1  A    between atoms: C_4  and  C_5
REMARK    2  A    between atoms: C_7  and  C_8
REMARK    3  A    between atoms: C_11  and  N_12
REMARK    4  A    between atoms: C_21  and  C_22
REMARK    5  A    between atoms: C_25  and  N_26
REMARK                            x       y       z     vdW  Elec       q    Type
REMARK                         _______ _______ _______ _____ _____    ______ ____
ROOT
ATOM      1  C   UNL     1       1.087  12.986  19.147  0.00  0.00    +0.000 A 
ATOM      2  C   UNL     1      -0.177  13.166  19.768  0.00  0.00    +0.000 A 
ATOM      3  C   UNL     1      -1.002  12.165  20.307  0.00  0.00    +0.000 A 
ATOM      4  S   UNL     1      -0.515  10.462  20.280  0.00  0.00    +0.000 S 
ATOM      5  C   UNL     1       1.003  10.471  19.352  0.00  0.00    +0.000 A 
ATOM      6  C   UNL     1       1.614  11.680  18.964  0.00  0.00    +0.000 A 
ENDROOT
BRANCH   1  10
ATOM      7  C   UNL     1       3.298  16.454  17.802  0.00  0.00    +0.000 A 
ATOM      8  C   UNL     1       3.867  15.189  17.720  0.00  0.00    +0.000 A 
ATOM      9  C   UNL     1       3.140  14.066  18.134  0.00  0.00    +0.000 A 
ATOM     10  C   UNL     1       1.839  14.180  18.664  0.00  0.00    +0.000 A 
ATOM     11  C   UNL     1       1.293  15.476  18.735  0.00  0.00    +0.000 A 
ATOM     12  C   UNL     1       2.008  16.597  18.302  0.00  0.00    +0.000 A 
ENDBRANCH   1  10
BRANCH   3  13
ATOM     13  C   UNL     1      -2.305  12.442  20.936  0.00  0.00    +0.000 A 
ATOM     14  C   UNL     1      -2.455  12.468  22.330  0.00  0.00    +0.000 A 
ATOM     15  C   UNL     1      -3.700  12.710  22.929  0.00  0.00    +0.000 A 
ATOM     16  C   UNL     1      -4.846  12.933  22.163  0.00  0.00    +0.000 A 
ATOM     17  C   UNL     1      -4.688  12.942  20.774  0.00  0.00    +0.000 A 
ATOM     18  C   UNL     1      -3.452  12.695  20.172  0.00  0.00    +0.000 A 
BRANCH  16  19
ATOM     19  N   UNL     1      -6.098  13.177  22.704  0.00  0.00    +0.000 N 
ATOM     20  C   UNL     1      -7.310  13.201  21.871  0.00  0.00    +0.000 C 
ATOM     21  C   UNL     1      -7.763  14.639  21.588  0.00  0.00    +0.000 C 
ATOM     22  O   UNL     1      -7.916  15.395  22.800  0.00  0.00    +0.000 OA
ATOM     23  C   UNL     1      -6.665  15.453  23.504  0.00  0.00    +0.000 C 
ATOM     24  C   UNL     1      -6.166  14.052  23.892  0.00  0.00    +0.000 C 
ENDBRANCH  16  19
ENDBRANCH   3  13
BRANCH   5  25
ATOM     25  C   UNL     1       1.558   9.131  19.094  0.00  0.00    +0.000 A 
ATOM     26  C   UNL     1       1.635   8.170  20.118  0.00  0.00    +0.000 A 
ATOM     27  C   UNL     1       2.225   6.918  19.922  0.00  0.00    +0.000 A 
ATOM     28  C   UNL     1       2.743   6.550  18.683  0.00  0.00    +0.000 A 
ATOM     29  C   UNL     1       2.632   7.493  17.648  0.00  0.00    +0.000 A 
ATOM     30  C   UNL     1       2.060   8.755  17.846  0.00  0.00    +0.000 A 
BRANCH  28  31
ATOM     31  N   UNL     1       3.308   5.306  18.440  0.00  0.00    +0.000 N 
ATOM     32  C   UNL     1       2.679   4.368  17.491  0.00  0.00    +0.000 C 
ATOM     33  C   UNL     1       1.852   3.295  18.215  0.00  0.00    +0.000 C 
ATOM     34  O   UNL     1       2.631   2.615  19.210  0.00  0.00    +0.000 OA
ATOM     35  C   UNL     1       3.094   3.555  20.194  0.00  0.00    +0.000 C 
ATOM     36  C   UNL     1       3.990   4.641  19.571  0.00  0.00    +0.000 C 
ENDBRANCH  28  31
ENDBRANCH   5  25
TORSDOF 5
ENDMDL
MODEL 6
REMARK VINA RESULT:      -8.7      0.877     10.017
REMARK  Name = 
REMARK  5 active torsions:
REMARK  status: ('A' for Active; 'I' for Inactive)
REMARK    1  A    between atoms: C_4  and  C_5
REMARK    2  A    between atoms: C_7  and  C_8
REMARK    3  A    between atoms: C_11  and  N_12
REMARK    4  A    between atoms: C_21  and  C_22
REMARK    5  A    between atoms: C_25  and  N_26
REMARK                            x       y       z     vdW  Elec       q    Type
REMARK                         _______ _______ _______ _____ _____    ______ ____
ROOT
ATOM      1  C   UNL     1       1.395  13.067  18.942  0.00  0.00    +0.000 A 
ATOM      2  C   UNL     1       0.101  13.273  19.489  0.00  0.00    +0.000 A 
ATOM      3  C   UNL     1      -0.794  12.286  19.934  0.00  0.00    +0.000 A 
ATOM      4  S   UNL     1      -0.369  10.567  19.869  0.00  0.00    +0.000 S 
ATOM      5  C   UNL     1       1.204  10.552  19.040  0.00  0.00    +0.000 A 
ATOM      6  C   UNL     1       1.884  11.749  18.740  0.00  0.00    +0.000 A 
ENDROOT
BRANCH   1  10
ATOM      7  C   UNL     1       3.763  16.491  17.763  0.00  0.00    +0.000 A 
ATOM      8  C   UNL     1       2.438  16.657  18.145  0.00  0.00    +0.000 A 
ATOM      9  C   UNL     1       1.681  15.551  18.548  0.00  0.00    +0.000 A 
ATOM     10  C   UNL     1       2.220  14.248  18.556  0.00  0.00    +0.000 A 
ATOM     11  C   UNL     1       3.564  14.114  18.162  0.00  0.00    +0.000 A 
ATOM     12  C   UNL     1       4.330  15.220  17.780  0.00  0.00    +0.000 A 
ENDBRANCH   1  10
BRANCH   3  13
ATOM     13  C   UNL     1      -2.124  12.590  20.490  0.00  0.00    +0.000 A 
ATOM     14  C   UNL     1      -3.299  12.245  19.807  0.00  0.00    +0.000 A 
ATOM     15  C   UNL     1      -4.565  12.554  20.326  0.00  0.00    +0.000 A 
ATOM     16  C   UNL     1      -4.711  13.222  21.544  0.00  0.00    +0.000 A 
ATOM     17  C   UNL     1      -3.539  13.534  22.240  0.00  0.00    +0.000 A 
ATOM     18  C   UNL     1      -2.276  13.234  21.726  0.00  0.00    +0.000 A 
BRANCH  16  19
ATOM     19  N   UNL     1      -5.936  13.550  22.100  0.00  0.00    +0.000 N 
ATOM     20  C   UNL     1      -6.082  13.845  23.534  0.00  0.00    +0.000 C 
ATOM     21  C   UNL     1      -6.683  12.652  24.289  0.00  0.00    +0.000 C 
ATOM     22  O   UNL     1      -7.914  12.212  23.693  0.00  0.00    +0.000 OA
ATOM     23  C   UNL     1      -7.683  11.808  22.333  0.00  0.00    +0.000 C 
ATOM     24  C   UNL     1      -7.142  12.966  21.480  0.00  0.00    +0.000 C 
ENDBRANCH  16  19
ENDBRANCH   3  13
BRANCH   5  25
ATOM     25  C   UNL     1       1.725   9.201  18.764  0.00  0.00    +0.000 A 
ATOM     26  C   UNL     1       1.616   8.174  19.719  0.00  0.00    +0.000 A 
ATOM     27  C   UNL     1       2.167   6.906  19.515  0.00  0.00    +0.000 A 
ATOM     28  C   UNL     1       2.830   6.588  18.332  0.00  0.00    +0.000 A 
ATOM     29  C   UNL     1       2.906   7.600  17.361  0.00  0.00    +0.000 A 
ATOM     30  C   UNL     1       2.373   8.877  17.570  0.00  0.00    +0.000 A 
BRANCH  28  31
ATOM     31  N   UNL     1       3.363   5.333  18.079  0.00  0.00    +0.000 N 
ATOM     32  C   UNL     1       3.002   4.178  18.925  0.00  0.00    +0.000 C 
ATOM     33  C   UNL     1       4.087   3.877  19.970  0.00  0.00    +0.000 C 
ATOM     34  O   UNL     1       5.375   3.717  19.358  0.00  0.00    +0.000 OA
ATOM     35  C   UNL     1       5.744   4.924  18.673  0.00  0.00    +0.000 C 
ATOM     36  C   UNL     1       4.745   5.277  17.556  0.00  0.00    +0.000 C 
ENDBRANCH  28  31
ENDBRANCH   5  25
TORSDOF 5
ENDMDL
MODEL 7
REMARK VINA RESULT:      -8.6      3.365      4.692
REMARK  Name = 
REMARK  5 active torsions:
REMARK  status: ('A' for Active; 'I' for Inactive)
REMARK    1  A    between atoms: C_4  and  C_5
REMARK    2  A    between atoms: C_7  and  C_8
REMARK    3  A    between atoms: C_11  and  N_12
REMARK    4  A    between atoms: C_21  and  C_22
REMARK    5  A    between atoms: C_25  and  N_26
REMARK                            x       y       z     vdW  Elec       q    Type
REMARK                         _______ _______ _______ _____ _____    ______ ____
ROOT
ATOM      1  C   UNL     1      -1.267  10.396  18.057  0.00  0.00    +0.000 A 
ATOM      2  C   UNL     1      -0.191   9.474  17.978  0.00  0.00    +0.000 A 
ATOM      3  C   UNL     1       0.800   9.250  18.948  0.00  0.00    +0.000 A 
ATOM      4  S   UNL     1       0.804  10.141  20.479  0.00  0.00    +0.000 S 
ATOM      5  C   UNL     1      -0.527  11.306  20.293  0.00  0.00    +0.000 A 
ATOM      6  C   UNL     1      -1.390  11.257  19.180  0.00  0.00    +0.000 A 
ENDROOT
BRANCH   1  10
ATOM      7  C   UNL     1      -4.150  10.567  14.835  0.00  0.00    +0.000 A 
ATOM      8  C   UNL     1      -4.337  11.332  15.979  0.00  0.00    +0.000 A 
ATOM      9  C   UNL     1      -3.391  11.292  17.010  0.00  0.00    +0.000 A 
ATOM     10  C   UNL     1      -2.248  10.469  16.936  0.00  0.00    +0.000 A 
ATOM     11  C   UNL     1      -2.090   9.706  15.765  0.00  0.00    +0.000 A 
ATOM     12  C   UNL     1      -3.022   9.760  14.723  0.00  0.00    +0.000 A 
ENDBRANCH   1  10
BRANCH   3  13
ATOM     13  C   UNL     1       1.887   8.269  18.783  0.00  0.00    +0.000 A 
ATOM     14  C   UNL     1       2.731   8.293  17.663  0.00  0.00    +0.000 A 
ATOM     15  C   UNL     1       3.752   7.346  17.495  0.00  0.00    +0.000 A 
ATOM     16  C   UNL     1       3.971   6.336  18.434  0.00  0.00    +0.000 A 
ATOM     17  C   UNL     1       3.152   6.335  19.567  0.00  0.00    +0.000 A 
ATOM     18  C   UNL     1       2.130   7.271  19.737  0.00  0.00    +0.000 A 
BRANCH  16  19
ATOM     19  N   UNL     1       4.965   5.377  18.316  0.00  0.00    +0.000 N 
ATOM     20  C   UNL     1       6.069   5.282  19.284  0.00  0.00    +0.000 C 
ATOM     21  C   UNL     1       7.358   5.891  18.718  0.00  0.00    +0.000 C 
ATOM     22  O   UNL     1       7.698   5.323  17.442  0.00  0.00    +0.000 OA
ATOM     23  C   UNL     1       6.640   5.566  16.500  0.00  0.00    +0.000 C 
ATOM     24  C   UNL     1       5.317   4.929  16.954  0.00  0.00    +0.000 C 
ENDBRANCH  16  19
ENDBRANCH   3  13
BRANCH   5  25
ATOM     25  C   UNL     1      -0.658  12.254  21.414  0.00  0.00    +0.000 A 
ATOM     26  C   UNL     1      -1.565  12.015  22.462  0.00  0.00    +0.000 A 
ATOM     27  C   UNL     1      -1.764  12.932  23.497  0.00  0.00    +0.000 A 
ATOM     28  C   UNL     1      -1.046  14.123  23.556  0.00  0.00    +0.000 A 
ATOM     29  C   UNL     1      -0.112  14.346  22.531  0.00  0.00    +0.000 A 
ATOM     30  C   UNL     1       0.077  13.439  21.482  0.00  0.00    +0.000 A 
BRANCH  28  31
ATOM     31  N   UNL     1      -1.193  15.044  24.583  0.00  0.00    +0.000 N 
ATOM     32  C   UNL     1      -2.415  15.059  25.410  0.00  0.00    +0.000 C 
ATOM     33  C   UNL     1      -3.393  16.156  24.960  0.00  0.00    +0.000 C 
ATOM     34  O   UNL     1      -2.754  17.440  24.916  0.00  0.00    +0.000 OA
ATOM     35  C   UNL     1      -1.663  17.411  23.982  0.00  0.00    +0.000 C 
ATOM     36  C   UNL     1      -0.593  16.380  24.384  0.00  0.00    +0.000 C 
ENDBRANCH  28  31
ENDBRANCH   5  25
TORSDOF 5
ENDMDL
MODEL 8
REMARK VINA RESULT:      -8.6      0.703     10.244
REMARK  Name = 
REMARK  5 active torsions:
REMARK  status: ('A' for Active; 'I' for Inactive)
REMARK    1  A    between atoms: C_4  and  C_5
REMARK    2  A    between atoms: C_7  and  C_8
REMARK    3  A    between atoms: C_11  and  N_12
REMARK    4  A    between atoms: C_21  and  C_22
REMARK    5  A    between atoms: C_25  and  N_26
REMARK                            x       y       z     vdW  Elec       q    Type
REMARK                         _______ _______ _______ _____ _____    ______ ____
ROOT
ATOM      1  C   UNL     1       1.069  13.071  18.981  0.00  0.00    +0.000 A 
ATOM      2  C   UNL     1      -0.250  13.198  19.489  0.00  0.00    +0.000 A 
ATOM      3  C   UNL     1      -1.101  12.157  19.896  0.00  0.00    +0.000 A 
ATOM      4  S   UNL     1      -0.579  10.466  19.827  0.00  0.00    +0.000 S 
ATOM      5  C   UNL     1       1.018  10.548  19.048  0.00  0.00    +0.000 A 
ATOM      6  C   UNL     1       1.638  11.785  18.782  0.00  0.00    +0.000 A 
ENDROOT
BRANCH   1  10
ATOM      7  C   UNL     1       3.329  16.636  18.028  0.00  0.00    +0.000 A 
ATOM      8  C   UNL     1       3.890  15.381  17.831  0.00  0.00    +0.000 A 
ATOM      9  C   UNL     1       3.149  14.229  18.118  0.00  0.00    +0.000 A 
ATOM     10  C   UNL     1       1.838  14.301  18.633  0.00  0.00    +0.000 A 
ATOM     11  C   UNL     1       1.300  15.588  18.823  0.00  0.00    +0.000 A 
ATOM     12  C   UNL     1       2.030  16.741  18.516  0.00  0.00    +0.000 A 
ENDBRANCH   1  10
BRANCH   3  13
ATOM     13  C   UNL     1      -2.463  12.380  20.412  0.00  0.00    +0.000 A 
ATOM     14  C   UNL     1      -2.695  12.667  21.765  0.00  0.00    +0.000 A 
ATOM     15  C   UNL     1      -3.993  12.858  22.261  0.00  0.00    +0.000 A 
ATOM     16  C   UNL     1      -5.112  12.767  21.430  0.00  0.00    +0.000 A 
ATOM     17  C   UNL     1      -4.876  12.515  20.075  0.00  0.00    +0.000 A 
ATOM     18  C   UNL     1      -3.587  12.319  19.577  0.00  0.00    +0.000 A 
BRANCH  16  19
ATOM     19  N   UNL     1      -6.413  12.946  21.869  0.00  0.00    +0.000 N 
ATOM     20  C   UNL     1      -7.364  13.805  21.145  0.00  0.00    +0.000 C 
ATOM     21  C   UNL     1      -7.529  15.162  21.842  0.00  0.00    +0.000 C 
ATOM     22  O   UNL     1      -7.875  15.008  23.228  0.00  0.00    +0.000 OA
ATOM     23  C   UNL     1      -6.845  14.279  23.914  0.00  0.00    +0.000 C 
ATOM     24  C   UNL     1      -6.656  12.872  23.324  0.00  0.00    +0.000 C 
ENDBRANCH  16  19
ENDBRANCH   3  13
BRANCH   5  25
ATOM     25  C   UNL     1       1.623   9.232  18.775  0.00  0.00    +0.000 A 
ATOM     26  C   UNL     1       1.681   8.242  19.772  0.00  0.00    +0.000 A 
ATOM     27  C   UNL     1       2.315   7.014  19.565  0.00  0.00    +0.000 A 
ATOM     28  C   UNL     1       2.898   6.699  18.341  0.00  0.00    +0.000 A 
ATOM     29  C   UNL     1       2.807   7.671  17.330  0.00  0.00    +0.000 A 
ATOM     30  C   UNL     1       2.190   8.910  17.541  0.00  0.00    +0.000 A 
BRANCH  28  31
ATOM     31  N   UNL     1       3.509   5.480  18.086  0.00  0.00    +0.000 N 
ATOM     32  C   UNL     1       2.996   4.239  18.699  0.00  0.00    +0.000 C 
ATOM     33  C   UNL     1       3.821   3.829  19.929  0.00  0.00    +0.000 C 
ATOM     34  O   UNL     1       5.219   3.739  19.615  0.00  0.00    +0.000 OA
ATOM     35  C   UNL     1       5.702   5.015  19.165  0.00  0.00    +0.000 C 
ATOM     36  C   UNL     1       4.975   5.485  17.892  0.00  0.00    +0.000 C 
ENDBRANCH  28  31
ENDBRANCH   5  25
TORSDOF 5
ENDMDL
MODEL 9
REMARK VINA RESULT:      -8.6      0.961     10.107
REMARK  Name = 
REMARK  5 active torsions:
REMARK  status: ('A' for Active; 'I' for Inactive)
REMARK    1  A    between atoms: C_4  and  C_5
REMARK    2  A    between atoms: C_7  and  C_8
REMARK    3  A    between atoms: C_11  and  N_12
REMARK    4  A    between atoms: C_21  and  C_22
REMARK    5  A    between atoms: C_25  and  N_26
REMARK                            x       y       z     vdW  Elec       q    Type
REMARK                         _______ _______ _______ _____ _____    ______ ____
ROOT
ATOM      1  C   UNL     1       0.886  12.940  19.113  0.00  0.00    +0.000 A 
ATOM      2  C   UNL     1      -0.457  13.080  19.551  0.00  0.00    +0.000 A 
ATOM      3  C   UNL     1      -1.314  12.053  19.981  0.00  0.00    +0.000 A 
ATOM      4  S   UNL     1      -0.771  10.369  20.041  0.00  0.00    +0.000 S 
ATOM      5  C   UNL     1       0.860  10.426  19.333  0.00  0.00    +0.000 A 
ATOM      6  C   UNL     1       1.478  11.652  19.020  0.00  0.00    +0.000 A 
ENDROOT
BRANCH   1  10
ATOM      7  C   UNL     1       3.151  16.470  18.046  0.00  0.00    +0.000 A 
ATOM      8  C   UNL     1       3.715  15.208  17.900  0.00  0.00    +0.000 A 
ATOM      9  C   UNL     1       2.971  14.068  18.223  0.00  0.00    +0.000 A 
ATOM     10  C   UNL     1       1.657  14.157  18.726  0.00  0.00    +0.000 A 
ATOM     11  C   UNL     1       1.117  15.449  18.865  0.00  0.00    +0.000 A 
ATOM     12  C   UNL     1       1.849  16.591  18.521  0.00  0.00    +0.000 A 
ENDBRANCH   1  10
BRANCH   3  13
ATOM     13  C   UNL     1      -2.701  12.288  20.420  0.00  0.00    +0.000 A 
ATOM     14  C   UNL     1      -3.775  12.224  19.520  0.00  0.00    +0.000 A 
ATOM     15  C   UNL     1      -5.093  12.469  19.933  0.00  0.00    +0.000 A 
ATOM     16  C   UNL     1      -5.393  12.791  21.258  0.00  0.00    +0.000 A 
ATOM     17  C   UNL     1      -4.326  12.820  22.162  0.00  0.00    +0.000 A 
ATOM     18  C   UNL     1      -3.011  12.583  21.755  0.00  0.00    +0.000 A 
BRANCH  16  19
ATOM     19  N   UNL     1      -6.676  13.041  21.718  0.00  0.00    +0.000 N 
ATOM     20  C   UNL     1      -7.494  14.137  21.175  0.00  0.00    +0.000 C 
ATOM     21  C   UNL     1      -7.513  15.341  22.125  0.00  0.00    +0.000 C 
ATOM     22  O   UNL     1      -7.916  14.963  23.452  0.00  0.00    +0.000 OA
ATOM     23  C   UNL     1      -7.002  13.990  23.984  0.00  0.00    +0.000 C 
ATOM     24  C   UNL     1      -6.968  12.714  23.128  0.00  0.00    +0.000 C 
ENDBRANCH  16  19
ENDBRANCH   3  13
BRANCH   5  25
ATOM     25  C   UNL     1       1.491   9.104  19.169  0.00  0.00    +0.000 A 
ATOM     26  C   UNL     1       1.502   8.172  20.223  0.00  0.00    +0.000 A 
ATOM     27  C   UNL     1       2.158   6.942  20.122  0.00  0.00    +0.000 A 
ATOM     28  C   UNL     1       2.812   6.566  18.952  0.00  0.00    +0.000 A 
ATOM     29  C   UNL     1       2.769   7.479  17.884  0.00  0.00    +0.000 A 
ATOM     30  C   UNL     1       2.130   8.719  17.989  0.00  0.00    +0.000 A 
BRANCH  28  31
ATOM     31  N   UNL     1       3.448   5.342  18.802  0.00  0.00    +0.000 N 
ATOM     32  C   UNL     1       3.398   4.622  17.514  0.00  0.00    +0.000 C 
ATOM     33  C   UNL     1       2.341   3.508  17.526  0.00  0.00    +0.000 C 
ATOM     34  O   UNL     1       2.530   2.617  18.635  0.00  0.00    +0.000 OA
ATOM     35  C   UNL     1       2.419   3.344  19.870  0.00  0.00    +0.000 C 
ATOM     36  C   UNL     1       3.485   4.450  19.980  0.00  0.00    +0.000 C 
ENDBRANCH  28  31
ENDBRANCH   5  25
TORSDOF 5
ENDMDL
