MODEL 1
REMARK VINA RESULT:      -7.3      0.000      0.000
REMARK  Name = 
REMARK  5 active torsions:
REMARK  status: ('A' for Active; 'I' for Inactive)
REMARK    1  A    between atoms: C_2  and  C_3
REMARK    2  A    between atoms: C_3  and  C_4
REMARK    3  A    between atoms: C_4  and  O_5
REMARK    4  A    between atoms: C_8  and  N_9
REMARK    5  A    between atoms: C_11  and  C_12
REMARK                            x       y       z     vdW  Elec       q    Type
REMARK                         _______ _______ _______ _____ _____    ______ ____
ROOT
ATOM      1  C   UNL     1       2.975   4.348  18.953  0.00  0.00    +0.000 C 
ATOM      2  C   UNL     1       3.846   5.342  19.656  0.00  0.00    +0.000 C 
ATOM      3  C   UNL     1       5.162   5.263  19.388  0.00  0.00    +0.000 C 
ATOM      4  C   UNL     1       5.589   4.202  18.410  0.00  0.00    +0.000 C 
ATOM      5  S   UNL     1       4.118   3.099  18.299  0.00  0.00    +0.000 S 
ENDROOT
BRANCH   4   6
ATOM      6  N   UNL     1       5.906   4.743  17.078  0.00  0.00    +0.000 N 
ATOM      7  C   UNL     1       5.298   4.251  15.935  0.00  0.00    +0.000 A 
ATOM      8  C   UNL     1       5.815   4.406  14.712  0.00  0.00    +0.000 A 
ATOM      9  C   UNL     1       5.300   3.679  13.513  0.00  0.00    +0.000 C 
ATOM     10  C   UNL     1       7.026   5.239  14.574  0.00  0.00    +0.000 A 
ATOM     11  O   UNL     1       7.627   5.340  13.513  0.00  0.00    +0.000 OA
ATOM     12  N   UNL     1       7.436   5.873  15.710  0.00  0.00    +0.000 N 
ATOM     13  C   UNL     1       7.024   5.568  16.987  0.00  0.00    +0.000 A 
ATOM     14  O   UNL     1       7.651   5.999  17.952  0.00  0.00    +0.000 OA
ATOM     15  H   UNL     1       8.287   6.404  15.642  0.00  0.00    +0.000 HD
ENDBRANCH   4   6
BRANCH   1  17
ATOM     16  C   UNL     1       1.000   3.270  20.659  0.00  0.00    +0.000 C 
ATOM     17  C   UNL     1       1.911   3.767  19.872  0.00  0.00    +0.000 C 
ENDBRANCH   1  17
BRANCH   1  18
ATOM     18  C   UNL     1       2.089   4.939  17.799  0.00  0.00    +0.000 C 
BRANCH  18  19
ATOM     19  O   UNL     1       1.173   3.972  17.247  0.00  0.00    +0.000 OA
ATOM     20  H   UNL     1       1.432   3.827  16.309  0.00  0.00    +0.000 HD
ENDBRANCH  18  19
ENDBRANCH   1  18
TORSDOF 4
ENDMDL
MODEL 2
REMARK VINA RESULT:      -6.7      2.157      2.769
REMARK  Name = 
REMARK  5 active torsions:
REMARK  status: ('A' for Active; 'I' for Inactive)
REMARK    1  A    between atoms: C_2  and  C_3
REMARK    2  A    between atoms: C_3  and  C_4
REMARK    3  A    between atoms: C_4  and  O_5
REMARK    4  A    between atoms: C_8  and  N_9
REMARK    5  A    between atoms: C_11  and  C_12
REMARK                            x       y       z     vdW  Elec       q    Type
REMARK                         _______ _______ _______ _____ _____    ______ ____
ROOT
ATOM      1  C   UNL     1       2.734   3.414  19.594  0.00  0.00    +0.000 C 
ATOM      2  C   UNL     1       1.768   3.339  18.452  0.00  0.00    +0.000 C 
ATOM      3  C   UNL     1       1.681   4.440  17.683  0.00  0.00    +0.000 C 
ATOM      4  C   UNL     1       2.571   5.595  18.054  0.00  0.00    +0.000 C 
ATOM      5  S   UNL     1       3.133   5.177  19.759  0.00  0.00    +0.000 S 
ENDROOT
BRANCH   4   6
ATOM      6  N   UNL     1       3.736   5.730  17.166  0.00  0.00    +0.000 N 
ATOM      7  C   UNL     1       4.279   4.635  16.513  0.00  0.00    +0.000 A 
ATOM      8  C   UNL     1       5.528   4.617  16.038  0.00  0.00    +0.000 A 
ATOM      9  C   UNL     1       6.196   3.372  15.554  0.00  0.00    +0.000 C 
ATOM     10  C   UNL     1       6.314   5.865  16.114  0.00  0.00    +0.000 A 
ATOM     11  O   UNL     1       7.498   5.905  15.807  0.00  0.00    +0.000 OA
ATOM     12  N   UNL     1       5.637   6.960  16.563  0.00  0.00    +0.000 N 
ATOM     13  C   UNL     1       4.429   6.937  17.220  0.00  0.00    +0.000 A 
ATOM     14  O   UNL     1       4.042   7.934  17.825  0.00  0.00    +0.000 OA
ATOM     15  H   UNL     1       6.173   7.804  16.666  0.00  0.00    +0.000 HD
ENDBRANCH   4   6
BRANCH   1  17
ATOM     16  C   UNL     1       1.680   2.283  21.956  0.00  0.00    +0.000 C 
ATOM     17  C   UNL     1       2.167   2.805  20.866  0.00  0.00    +0.000 C 
ENDBRANCH   1  17
BRANCH   1  18
ATOM     18  C   UNL     1       4.045   2.570  19.411  0.00  0.00    +0.000 C 
BRANCH  18  19
ATOM     19  O   UNL     1       5.240   3.373  19.475  0.00  0.00    +0.000 OA
ATOM     20  H   UNL     1       5.971   2.786  19.771  0.00  0.00    +0.000 HD
ENDBRANCH  18  19
ENDBRANCH   1  18
TORSDOF 4
ENDMDL
MODEL 3
REMARK VINA RESULT:      -6.7      1.414      1.634
REMARK  Name = 
REMARK  5 active torsions:
REMARK  status: ('A' for Active; 'I' for Inactive)
REMARK    1  A    between atoms: C_2  and  C_3
REMARK    2  A    between atoms: C_3  and  C_4
REMARK    3  A    between atoms: C_4  and  O_5
REMARK    4  A    between atoms: C_8  and  N_9
REMARK    5  A    between atoms: C_11  and  C_12
REMARK                            x       y       z     vdW  Elec       q    Type
REMARK                         _______ _______ _______ _____ _____    ______ ____
ROOT
ATOM      1  C   UNL     1       3.046   3.912  18.712  0.00  0.00    +0.000 C 
ATOM      2  C   UNL     1       2.324   5.140  18.250  0.00  0.00    +0.000 C 
ATOM      3  C   UNL     1       3.082   6.238  18.079  0.00  0.00    +0.000 C 
ATOM      4  C   UNL     1       4.554   6.093  18.356  0.00  0.00    +0.000 C 
ATOM      5  S   UNL     1       4.664   4.505  19.285  0.00  0.00    +0.000 S 
ENDROOT
BRANCH   4   6
ATOM      6  N   UNL     1       5.363   6.008  17.130  0.00  0.00    +0.000 N 
ATOM      7  C   UNL     1       4.884   5.387  15.988  0.00  0.00    +0.000 A 
ATOM      8  C   UNL     1       5.682   4.933  15.017  0.00  0.00    +0.000 A 
ATOM      9  C   UNL     1       5.198   4.056  13.910  0.00  0.00    +0.000 C 
ATOM     10  C   UNL     1       7.127   5.217  15.122  0.00  0.00    +0.000 A 
ATOM     11  O   UNL     1       7.940   4.744  14.338  0.00  0.00    +0.000 OA
ATOM     12  N   UNL     1       7.494   6.026  16.156  0.00  0.00    +0.000 N 
ATOM     13  C   UNL     1       6.713   6.332  17.247  0.00  0.00    +0.000 A 
ATOM     14  O   UNL     1       7.224   6.832  18.246  0.00  0.00    +0.000 OA
ATOM     15  H   UNL     1       8.480   6.188  16.268  0.00  0.00    +0.000 HD
ENDBRANCH   4   6
BRANCH   1  17
ATOM     16  C   UNL     1       1.605   2.512  20.695  0.00  0.00    +0.000 C 
ATOM     17  C   UNL     1       2.270   3.158  19.780  0.00  0.00    +0.000 C 
ENDBRANCH   1  17
BRANCH   1  18
ATOM     18  C   UNL     1       3.226   2.797  17.622  0.00  0.00    +0.000 C 
BRANCH  18  19
ATOM     19  O   UNL     1       3.922   1.637  18.119  0.00  0.00    +0.000 OA
ATOM     20  H   UNL     1       3.269   0.902  18.163  0.00  0.00    +0.000 HD
ENDBRANCH  18  19
ENDBRANCH   1  18
TORSDOF 4
ENDMDL
MODEL 4
REMARK VINA RESULT:      -6.4      2.332      3.491
REMARK  Name = 
REMARK  5 active torsions:
REMARK  status: ('A' for Active; 'I' for Inactive)
REMARK    1  A    between atoms: C_2  and  C_3
REMARK    2  A    between atoms: C_3  and  C_4
REMARK    3  A    between atoms: C_4  and  O_5
REMARK    4  A    between atoms: C_8  and  N_9
REMARK    5  A    between atoms: C_11  and  C_12
REMARK                            x       y       z     vdW  Elec       q    Type
REMARK                         _______ _______ _______ _____ _____    ______ ____
ROOT
ATOM      1  C   UNL     1       3.273   3.454  18.837  0.00  0.00    +0.000 C 
ATOM      2  C   UNL     1       3.749   2.684  17.645  0.00  0.00    +0.000 C 
ATOM      3  C   UNL     1       4.188   3.420  16.607  0.00  0.00    +0.000 C 
ATOM      4  C   UNL     1       4.160   4.915  16.780  0.00  0.00    +0.000 C 
ATOM      5  S   UNL     1       3.075   5.160  18.249  0.00  0.00    +0.000 S 
ENDROOT
BRANCH   4   6
ATOM      6  N   UNL     1       5.490   5.487  17.044  0.00  0.00    +0.000 N 
ATOM      7  C   UNL     1       6.253   5.075  18.124  0.00  0.00    +0.000 A 
ATOM      8  C   UNL     1       7.246   5.809  18.635  0.00  0.00    +0.000 A 
ATOM      9  C   UNL     1       7.909   5.488  19.935  0.00  0.00    +0.000 C 
ATOM     10  C   UNL     1       7.612   7.058  17.938  0.00  0.00    +0.000 A 
ATOM     11  O   UNL     1       8.430   7.843  18.400  0.00  0.00    +0.000 OA
ATOM     12  N   UNL     1       6.968   7.282  16.758  0.00  0.00    +0.000 N 
ATOM     13  C   UNL     1       5.830   6.636  16.334  0.00  0.00    +0.000 A 
ATOM     14  O   UNL     1       5.174   7.097  15.402  0.00  0.00    +0.000 OA
ATOM     15  H   UNL     1       7.172   8.153  16.297  0.00  0.00    +0.000 HD
ENDBRANCH   4   6
BRANCH   1  17
ATOM     16  C   UNL     1       0.908   2.368  19.930  0.00  0.00    +0.000 C 
ATOM     17  C   UNL     1       1.999   2.869  19.426  0.00  0.00    +0.000 C 
ENDBRANCH   1  17
BRANCH   1  18
ATOM     18  C   UNL     1       4.231   3.410  20.081  0.00  0.00    +0.000 C 
BRANCH  18  19
ATOM     19  O   UNL     1       5.177   2.324  20.020  0.00  0.00    +0.000 OA
ATOM     20  H   UNL     1       5.762   2.402  20.807  0.00  0.00    +0.000 HD
ENDBRANCH  18  19
ENDBRANCH   1  18
TORSDOF 4
ENDMDL
MODEL 5
REMARK VINA RESULT:      -6.4      1.533      1.810
REMARK  Name = 
REMARK  5 active torsions:
REMARK  status: ('A' for Active; 'I' for Inactive)
REMARK    1  A    between atoms: C_2  and  C_3
REMARK    2  A    between atoms: C_3  and  C_4
REMARK    3  A    between atoms: C_4  and  O_5
REMARK    4  A    between atoms: C_8  and  N_9
REMARK    5  A    between atoms: C_11  and  C_12
REMARK                            x       y       z     vdW  Elec       q    Type
REMARK                         _______ _______ _______ _____ _____    ______ ____
ROOT
ATOM      1  C   UNL     1       2.367   4.015  18.827  0.00  0.00    +0.000 C 
ATOM      2  C   UNL     1       2.074   5.480  18.733  0.00  0.00    +0.000 C 
ATOM      3  C   UNL     1       3.098   6.304  19.023  0.00  0.00    +0.000 C 
ATOM      4  C   UNL     1       4.406   5.654  19.386  0.00  0.00    +0.000 C 
ATOM      5  S   UNL     1       3.938   3.905  19.731  0.00  0.00    +0.000 S 
ENDROOT
BRANCH   4   6
ATOM      6  N   UNL     1       5.392   5.698  18.295  0.00  0.00    +0.000 N 
ATOM      7  C   UNL     1       5.000   5.720  16.966  0.00  0.00    +0.000 A 
ATOM      8  C   UNL     1       5.808   5.362  15.964  0.00  0.00    +0.000 A 
ATOM      9  C   UNL     1       5.325   5.152  14.566  0.00  0.00    +0.000 C 
ATOM     10  C   UNL     1       7.213   5.044  16.288  0.00  0.00    +0.000 A 
ATOM     11  O   UNL     1       7.987   4.601  15.450  0.00  0.00    +0.000 OA
ATOM     12  N   UNL     1       7.581   5.263  17.583  0.00  0.00    +0.000 N 
ATOM     13  C   UNL     1       6.718   5.446  18.638  0.00  0.00    +0.000 A 
ATOM     14  O   UNL     1       7.132   5.355  19.791  0.00  0.00    +0.000 OA
ATOM     15  H   UNL     1       8.521   5.005  17.828  0.00  0.00    +0.000 HD
ENDBRANCH   4   6
BRANCH   1  17
ATOM     16  C   UNL     1       0.268   2.586  20.059  0.00  0.00    +0.000 C 
ATOM     17  C   UNL     1       1.237   3.245  19.491  0.00  0.00    +0.000 C 
ENDBRANCH   1  17
BRANCH   1  18
ATOM     18  C   UNL     1       2.475   3.270  17.449  0.00  0.00    +0.000 C 
BRANCH  18  19
ATOM     19  O   UNL     1       2.528   1.836  17.592  0.00  0.00    +0.000 OA
ATOM     20  H   UNL     1       2.923   1.645  18.473  0.00  0.00    +0.000 HD
ENDBRANCH  18  19
ENDBRANCH   1  18
TORSDOF 4
ENDMDL
MODEL 6
REMARK VINA RESULT:      -6.3      2.379      3.133
REMARK  Name = 
REMARK  5 active torsions:
REMARK  status: ('A' for Active; 'I' for Inactive)
REMARK    1  A    between atoms: C_2  and  C_3
REMARK    2  A    between atoms: C_3  and  C_4
REMARK    3  A    between atoms: C_4  and  O_5
REMARK    4  A    between atoms: C_8  and  N_9
REMARK    5  A    between atoms: C_11  and  C_12
REMARK                            x       y       z     vdW  Elec       q    Type
REMARK                         _______ _______ _______ _____ _____    ______ ____
ROOT
ATOM      1  C   UNL     1       2.832   3.514  19.787  0.00  0.00    +0.000 C 
ATOM      2  C   UNL     1       2.053   3.388  18.515  0.00  0.00    +0.000 C 
ATOM      3  C   UNL     1       2.038   4.476  17.724  0.00  0.00    +0.000 C 
ATOM      4  C   UNL     1       2.815   5.672  18.205  0.00  0.00    +0.000 C 
ATOM      5  S   UNL     1       3.132   5.294  19.981  0.00  0.00    +0.000 S 
ENDROOT
BRANCH   4   6
ATOM      6  N   UNL     1       4.094   5.847  17.499  0.00  0.00    +0.000 N 
ATOM      7  C   UNL     1       5.163   4.991  17.714  0.00  0.00    +0.000 A 
ATOM      8  C   UNL     1       6.426   5.319  17.429  0.00  0.00    +0.000 A 
ATOM      9  C   UNL     1       7.598   4.508  17.877  0.00  0.00    +0.000 C 
ATOM     10  C   UNL     1       6.669   6.606  16.748  0.00  0.00    +0.000 A 
ATOM     11  O   UNL     1       7.799   7.034  16.553  0.00  0.00    +0.000 OA
ATOM     12  N   UNL     1       5.552   7.290  16.367  0.00  0.00    +0.000 N 
ATOM     13  C   UNL     1       4.276   7.050  16.821  0.00  0.00    +0.000 A 
ATOM     14  O   UNL     1       3.394   7.885  16.640  0.00  0.00    +0.000 OA
ATOM     15  H   UNL     1       5.703   8.191  15.946  0.00  0.00    +0.000 HD
ENDBRANCH   4   6
BRANCH   1  17
ATOM     16  C   UNL     1       1.483   2.363  21.982  0.00  0.00    +0.000 C 
ATOM     17  C   UNL     1       2.106   2.894  20.969  0.00  0.00    +0.000 C 
ENDBRANCH   1  17
BRANCH   1  18
ATOM     18  C   UNL     1       4.189   2.724  19.815  0.00  0.00    +0.000 C 
BRANCH  18  19
ATOM     19  O   UNL     1       4.277   1.729  18.775  0.00  0.00    +0.000 OA
ATOM     20  H   UNL     1       3.790   2.078  17.995  0.00  0.00    +0.000 HD
ENDBRANCH  18  19
ENDBRANCH   1  18
TORSDOF 4
ENDMDL
MODEL 7
REMARK VINA RESULT:      -6.3      2.092      3.310
REMARK  Name = 
REMARK  5 active torsions:
REMARK  status: ('A' for Active; 'I' for Inactive)
REMARK    1  A    between atoms: C_2  and  C_3
REMARK    2  A    between atoms: C_3  and  C_4
REMARK    3  A    between atoms: C_4  and  O_5
REMARK    4  A    between atoms: C_8  and  N_9
REMARK    5  A    between atoms: C_11  and  C_12
REMARK                            x       y       z     vdW  Elec       q    Type
REMARK                         _______ _______ _______ _____ _____    ______ ____
ROOT
ATOM      1  C   UNL     1       3.053   3.831  18.825  0.00  0.00    +0.000 C 
ATOM      2  C   UNL     1       3.809   2.688  18.221  0.00  0.00    +0.000 C 
ATOM      3  C   UNL     1       4.491   2.965  17.095  0.00  0.00    +0.000 C 
ATOM      4  C   UNL     1       4.423   4.383  16.595  0.00  0.00    +0.000 C 
ATOM      5  S   UNL     1       3.008   5.103  17.531  0.00  0.00    +0.000 S 
ENDROOT
BRANCH   4   6
ATOM      6  N   UNL     1       5.646   5.150  16.876  0.00  0.00    +0.000 N 
ATOM      7  C   UNL     1       6.460   4.844  17.955  0.00  0.00    +0.000 A 
ATOM      8  C   UNL     1       7.324   5.715  18.484  0.00  0.00    +0.000 A 
ATOM      9  C   UNL     1       8.023   5.480  19.783  0.00  0.00    +0.000 C 
ATOM     10  C   UNL     1       7.495   7.017  17.808  0.00  0.00    +0.000 A 
ATOM     11  O   UNL     1       8.179   7.912  18.287  0.00  0.00    +0.000 OA
ATOM     12  N   UNL     1       6.828   7.157  16.627  0.00  0.00    +0.000 N 
ATOM     13  C   UNL     1       5.807   6.349  16.186  0.00  0.00    +0.000 A 
ATOM     14  O   UNL     1       5.091   6.717  15.257  0.00  0.00    +0.000 OA
ATOM     15  H   UNL     1       6.897   8.056  16.180  0.00  0.00    +0.000 HD
ENDBRANCH   4   6
BRANCH   1  17
ATOM     16  C   UNL     1       0.489   3.057  19.720  0.00  0.00    +0.000 C 
ATOM     17  C   UNL     1       1.673   3.414  19.307  0.00  0.00    +0.000 C 
ENDBRANCH   1  17
BRANCH   1  18
ATOM     18  C   UNL     1       3.673   4.413  20.145  0.00  0.00    +0.000 C 
BRANCH  18  19
ATOM     19  O   UNL     1       3.798   5.849  20.117  0.00  0.00    +0.000 OA
ATOM     20  H   UNL     1       4.421   6.074  19.389  0.00  0.00    +0.000 HD
ENDBRANCH  18  19
ENDBRANCH   1  18
TORSDOF 4
ENDMDL
MODEL 8
REMARK VINA RESULT:      -6.2      2.297      5.630
REMARK  Name = 
REMARK  5 active torsions:
REMARK  status: ('A' for Active; 'I' for Inactive)
REMARK    1  A    between atoms: C_2  and  C_3
REMARK    2  A    between atoms: C_3  and  C_4
REMARK    3  A    between atoms: C_4  and  O_5
REMARK    4  A    between atoms: C_8  and  N_9
REMARK    5  A    between atoms: C_11  and  C_12
REMARK                            x       y       z     vdW  Elec       q    Type
REMARK                         _______ _______ _______ _____ _____    ______ ____
ROOT
ATOM      1  C   UNL     1       6.561   4.921  15.203  0.00  0.00    +0.000 C 
ATOM      2  C   UNL     1       7.364   4.741  16.454  0.00  0.00    +0.000 C 
ATOM      3  C   UNL     1       6.854   5.303  17.565  0.00  0.00    +0.000 C 
ATOM      4  C   UNL     1       5.542   6.024  17.416  0.00  0.00    +0.000 C 
ATOM      5  S   UNL     1       5.368   6.231  15.594  0.00  0.00    +0.000 S 
ENDROOT
BRANCH   4   6
ATOM      6  N   UNL     1       4.402   5.255  17.940  0.00  0.00    +0.000 N 
ATOM      7  C   UNL     1       4.469   3.880  18.100  0.00  0.00    +0.000 A 
ATOM      8  C   UNL     1       3.385   3.103  18.178  0.00  0.00    +0.000 A 
ATOM      9  C   UNL     1       3.446   1.612  18.108  0.00  0.00    +0.000 C 
ATOM     10  C   UNL     1       2.063   3.761  18.212  0.00  0.00    +0.000 A 
ATOM     11  O   UNL     1       1.020   3.124  18.169  0.00  0.00    +0.000 OA
ATOM     12  N   UNL     1       2.087   5.123  18.278  0.00  0.00    +0.000 N 
ATOM     13  C   UNL     1       3.178   5.916  18.009  0.00  0.00    +0.000 A 
ATOM     14  O   UNL     1       3.029   7.122  17.823  0.00  0.00    +0.000 OA
ATOM     15  H   UNL     1       1.195   5.586  18.252  0.00  0.00    +0.000 HD
ENDBRANCH   4   6
BRANCH   1  17
ATOM     16  C   UNL     1       8.186   5.518  12.973  0.00  0.00    +0.000 C 
ATOM     17  C   UNL     1       7.436   5.243  14.002  0.00  0.00    +0.000 C 
ENDBRANCH   1  17
BRANCH   1  18
ATOM     18  C   UNL     1       5.817   3.633  14.701  0.00  0.00    +0.000 C 
BRANCH  18  19
ATOM     19  O   UNL     1       6.245   3.217  13.389  0.00  0.00    +0.000 OA
ATOM     20  H   UNL     1       6.985   2.580  13.511  0.00  0.00    +0.000 HD
ENDBRANCH  18  19
ENDBRANCH   1  18
TORSDOF 4
ENDMDL
MODEL 9
REMARK VINA RESULT:      -6.1      2.545      5.997
REMARK  Name = 
REMARK  5 active torsions:
REMARK  status: ('A' for Active; 'I' for Inactive)
REMARK    1  A    between atoms: C_2  and  C_3
REMARK    2  A    between atoms: C_3  and  C_4
REMARK    3  A    between atoms: C_4  and  O_5
REMARK    4  A    between atoms: C_8  and  N_9
REMARK    5  A    between atoms: C_11  and  C_12
REMARK                            x       y       z     vdW  Elec       q    Type
REMARK                         _______ _______ _______ _____ _____    ______ ____
ROOT
ATOM      1  C   UNL     1       6.163   5.141  16.354  0.00  0.00    +0.000 C 
ATOM      2  C   UNL     1       5.859   6.541  16.789  0.00  0.00    +0.000 C 
ATOM      3  C   UNL     1       4.645   6.735  17.336  0.00  0.00    +0.000 C 
ATOM      4  C   UNL     1       3.758   5.526  17.458  0.00  0.00    +0.000 C 
ATOM      5  S   UNL     1       4.561   4.288  16.354  0.00  0.00    +0.000 S 
ENDROOT
BRANCH   4   6
ATOM      6  N   UNL     1       3.691   4.998  18.830  0.00  0.00    +0.000 N 
ATOM      7  C   UNL     1       4.296   3.800  19.175  0.00  0.00    +0.000 A 
ATOM      8  C   UNL     1       3.945   3.092  20.251  0.00  0.00    +0.000 A 
ATOM      9  C   UNL     1       4.418   1.696  20.496  0.00  0.00    +0.000 C 
ATOM     10  C   UNL     1       2.947   3.677  21.169  0.00  0.00    +0.000 A 
ATOM     11  O   UNL     1       2.488   3.049  22.114  0.00  0.00    +0.000 OA
ATOM     12  N   UNL     1       2.565   4.954  20.884  0.00  0.00    +0.000 N 
ATOM     13  C   UNL     1       2.778   5.604  19.690  0.00  0.00    +0.000 A 
ATOM     14  O   UNL     1       2.159   6.634  19.433  0.00  0.00    +0.000 OA
ATOM     15  H   UNL     1       1.850   5.348  21.472  0.00  0.00    +0.000 HD
ENDBRANCH   4   6
BRANCH   1  17
ATOM     16  C   UNL     1       7.470   5.063  13.852  0.00  0.00    +0.000 C 
ATOM     17  C   UNL     1       6.867   5.099  15.007  0.00  0.00    +0.000 C 
ENDBRANCH   1  17
BRANCH   1  18
ATOM     18  C   UNL     1       7.193   4.374  17.258  0.00  0.00    +0.000 C 
BRANCH  18  19
ATOM     19  O   UNL     1       7.530   5.098  18.458  0.00  0.00    +0.000 OA
ATOM     20  H   UNL     1       6.701   5.211  18.974  0.00  0.00    +0.000 HD
ENDBRANCH  18  19
ENDBRANCH   1  18
TORSDOF 4
ENDMDL
