MODEL 1
REMARK VINA RESULT:      -8.6      0.000      0.000
REMARK  Name = 
REMARK  4 active torsions:
REMARK  status: ('A' for Active; 'I' for Inactive)
REMARK    1  A    between atoms: S_2  and  C_4
REMARK    2  A    between atoms: S_2  and  N_18
REMARK    3  A    between atoms: C_7  and  C_8
REMARK    4  A    between atoms: C_9  and  C_10
REMARK                            x       y       z     vdW  Elec       q    Type
REMARK                         _______ _______ _______ _____ _____    ______ ____
ROOT
ATOM      1  C   UNL     1       5.830   5.405  18.074  0.00  0.00    +0.000 A 
ATOM      2  C   UNL     1       5.446   6.484  17.275  0.00  0.00    +0.000 A 
ATOM      3  C   UNL     1       6.291   7.591  17.163  0.00  0.00    +0.000 A 
ATOM      4  C   UNL     1       7.502   7.647  17.867  0.00  0.00    +0.000 A 
ATOM      5  C   UNL     1       7.864   6.559  18.676  0.00  0.00    +0.000 A 
ATOM      6  C   UNL     1       7.030   5.442  18.785  0.00  0.00    +0.000 A 
ENDROOT
BRANCH   1   8
ATOM      7  O   UNL     1       4.658   3.342  17.035  0.00  0.00    +0.000 OA
ATOM      8  S   UNL     1       4.731   4.033  18.306  0.00  0.00    +0.000 S 
ATOM      9  O   UNL     1       5.145   3.330  19.496  0.00  0.00    +0.000 OA
BRANCH   8  10
ATOM     10  N   UNL     1       3.202   4.748  18.591  0.00  0.00    +0.000 NA
ATOM     11  C   UNL     1       2.794   5.000  20.011  0.00  0.00    +0.000 C 
ATOM     12  C   UNL     1       2.398   3.698  20.718  0.00  0.00    +0.000 C 
ATOM     13  O   UNL     1       1.342   3.025  20.015  0.00  0.00    +0.000 OA
ATOM     14  C   UNL     1       1.700   2.749  18.650  0.00  0.00    +0.000 C 
ATOM     15  C   UNL     1       2.072   4.036  17.902  0.00  0.00    +0.000 C 
ENDBRANCH   8  10
ENDBRANCH   1   8
BRANCH   4  16
ATOM     16  C   UNL     1       8.335   8.854  17.738  0.00  0.00    +0.000 C 
ATOM     17  C   UNL     1       8.735   9.611  18.771  0.00  0.00    +0.000 C 
BRANCH  17  18
ATOM     18  C   UNL     1       9.460  10.865  18.559  0.00  0.00    +0.000 A 
ATOM     19  C   UNL     1      10.724  11.028  19.137  0.00  0.00    +0.000 A 
ATOM     20  C   UNL     1      11.423  12.224  18.974  0.00  0.00    +0.000 A 
ATOM     21  C   UNL     1      10.861  13.262  18.232  0.00  0.00    +0.000 A 
ATOM     22  C   UNL     1       9.605  13.101  17.645  0.00  0.00    +0.000 A 
ATOM     23  C   UNL     1       8.903  11.904  17.809  0.00  0.00    +0.000 A 
ENDBRANCH  17  18
ENDBRANCH   4  16
TORSDOF 4
ENDMDL
MODEL 2
REMARK VINA RESULT:      -8.6      0.373      1.042
REMARK  Name = 
REMARK  4 active torsions:
REMARK  status: ('A' for Active; 'I' for Inactive)
REMARK    1  A    between atoms: S_2  and  C_4
REMARK    2  A    between atoms: S_2  and  N_18
REMARK    3  A    between atoms: C_7  and  C_8
REMARK    4  A    between atoms: C_9  and  C_10
REMARK                            x       y       z     vdW  Elec       q    Type
REMARK                         _______ _______ _______ _____ _____    ______ ____
ROOT
ATOM      1  C   UNL     1       5.710   5.299  18.105  0.00  0.00    +0.000 A 
ATOM      2  C   UNL     1       5.297   6.394  17.343  0.00  0.00    +0.000 A 
ATOM      3  C   UNL     1       6.163   7.476  17.169  0.00  0.00    +0.000 A 
ATOM      4  C   UNL     1       7.427   7.492  17.777  0.00  0.00    +0.000 A 
ATOM      5  C   UNL     1       7.817   6.388  18.551  0.00  0.00    +0.000 A 
ATOM      6  C   UNL     1       6.962   5.296  18.720  0.00  0.00    +0.000 A 
ENDROOT
BRANCH   1   8
ATOM      7  O   UNL     1       4.450   3.239  17.167  0.00  0.00    +0.000 OA
ATOM      8  S   UNL     1       4.591   3.959  18.417  0.00  0.00    +0.000 S 
ATOM      9  O   UNL     1       5.038   3.276  19.606  0.00  0.00    +0.000 OA
BRANCH   8  10
ATOM     10  N   UNL     1       3.091   4.716  18.746  0.00  0.00    +0.000 NA
ATOM     11  C   UNL     1       2.714   4.941  20.178  0.00  0.00    +0.000 C 
ATOM     12  C   UNL     1       2.286   3.633  20.856  0.00  0.00    +0.000 C 
ATOM     13  O   UNL     1       1.197   3.015  20.151  0.00  0.00    +0.000 OA
ATOM     14  C   UNL     1       1.525   2.766  18.775  0.00  0.00    +0.000 C 
ATOM     15  C   UNL     1       1.928   4.060  18.055  0.00  0.00    +0.000 C 
ENDBRANCH   8  10
ENDBRANCH   1   8
BRANCH   4  16
ATOM     16  C   UNL     1       8.283   8.674  17.588  0.00  0.00    +0.000 C 
ATOM     17  C   UNL     1       8.507   9.604  18.529  0.00  0.00    +0.000 C 
BRANCH  17  18
ATOM     18  C   UNL     1       9.271  10.816  18.234  0.00  0.00    +0.000 A 
ATOM     19  C   UNL     1       8.591  11.969  17.825  0.00  0.00    +0.000 A 
ATOM     20  C   UNL     1       9.299  13.129  17.510  0.00  0.00    +0.000 A 
ATOM     21  C   UNL     1      10.690  13.143  17.604  0.00  0.00    +0.000 A 
ATOM     22  C   UNL     1      11.373  11.999  18.021  0.00  0.00    +0.000 A 
ATOM     23  C   UNL     1      10.665  10.835  18.334  0.00  0.00    +0.000 A 
ENDBRANCH  17  18
ENDBRANCH   4  16
TORSDOF 4
ENDMDL
MODEL 3
REMARK VINA RESULT:      -8.5      0.393      1.451
REMARK  Name = 
REMARK  4 active torsions:
REMARK  status: ('A' for Active; 'I' for Inactive)
REMARK    1  A    between atoms: S_2  and  C_4
REMARK    2  A    between atoms: S_2  and  N_18
REMARK    3  A    between atoms: C_7  and  C_8
REMARK    4  A    between atoms: C_9  and  C_10
REMARK                            x       y       z     vdW  Elec       q    Type
REMARK                         _______ _______ _______ _____ _____    ______ ____
ROOT
ATOM      1  C   UNL     1       5.784   5.429  18.227  0.00  0.00    +0.000 A 
ATOM      2  C   UNL     1       7.031   5.490  18.853  0.00  0.00    +0.000 A 
ATOM      3  C   UNL     1       7.843   6.609  18.656  0.00  0.00    +0.000 A 
ATOM      4  C   UNL     1       7.439   7.655  17.814  0.00  0.00    +0.000 A 
ATOM      5  C   UNL     1       6.187   7.568  17.183  0.00  0.00    +0.000 A 
ATOM      6  C   UNL     1       5.363   6.457  17.384  0.00  0.00    +0.000 A 
ENDROOT
BRANCH   1   8
ATOM      7  O   UNL     1       4.712   3.374  17.070  0.00  0.00    +0.000 OA
ATOM      8  S   UNL     1       4.779   3.976  18.386  0.00  0.00    +0.000 S 
ATOM      9  O   UNL     1       5.269   3.219  19.511  0.00  0.00    +0.000 OA
BRANCH   8  10
ATOM     10  N   UNL     1       3.217   4.570  18.759  0.00  0.00    +0.000 NA
ATOM     11  C   UNL     1       2.799   4.602  20.197  0.00  0.00    +0.000 C 
ATOM     12  C   UNL     1       2.467   3.196  20.714  0.00  0.00    +0.000 C 
ATOM     13  O   UNL     1       1.444   2.578  19.917  0.00  0.00    +0.000 OA
ATOM     14  C   UNL     1       1.814   2.513  18.530  0.00  0.00    +0.000 C 
ATOM     15  C   UNL     1       2.122   3.908  17.970  0.00  0.00    +0.000 C 
ENDBRANCH   8  10
ENDBRANCH   1   8
BRANCH   4  16
ATOM     16  C   UNL     1       8.351   8.793  17.617  0.00  0.00    +0.000 C 
ATOM     17  C   UNL     1       8.584   9.744  18.534  0.00  0.00    +0.000 C 
BRANCH  17  18
ATOM     18  C   UNL     1       9.409  10.912  18.227  0.00  0.00    +0.000 A 
ATOM     19  C   UNL     1       8.788  12.104  17.838  0.00  0.00    +0.000 A 
ATOM     20  C   UNL     1       9.554  13.223  17.512  0.00  0.00    +0.000 A 
ATOM     21  C   UNL     1      10.945  13.156  17.574  0.00  0.00    +0.000 A 
ATOM     22  C   UNL     1      11.570  11.973  17.971  0.00  0.00    +0.000 A 
ATOM     23  C   UNL     1      10.804  10.850  18.296  0.00  0.00    +0.000 A 
ENDBRANCH  17  18
ENDBRANCH   4  16
TORSDOF 4
ENDMDL
MODEL 4
REMARK VINA RESULT:      -8.3      0.608      1.197
REMARK  Name = 
REMARK  4 active torsions:
REMARK  status: ('A' for Active; 'I' for Inactive)
REMARK    1  A    between atoms: S_2  and  C_4
REMARK    2  A    between atoms: S_2  and  N_18
REMARK    3  A    between atoms: C_7  and  C_8
REMARK    4  A    between atoms: C_9  and  C_10
REMARK                            x       y       z     vdW  Elec       q    Type
REMARK                         _______ _______ _______ _____ _____    ______ ____
ROOT
ATOM      1  C   UNL     1       5.931   5.547  18.069  0.00  0.00    +0.000 A 
ATOM      2  C   UNL     1       7.113   5.537  18.813  0.00  0.00    +0.000 A 
ATOM      3  C   UNL     1       7.950   6.655  18.788  0.00  0.00    +0.000 A 
ATOM      4  C   UNL     1       7.637   7.773  18.000  0.00  0.00    +0.000 A 
ATOM      5  C   UNL     1       6.452   7.757  17.248  0.00  0.00    +0.000 A 
ATOM      6  C   UNL     1       5.602   6.647  17.277  0.00  0.00    +0.000 A 
ENDROOT
BRANCH   1   8
ATOM      7  O   UNL     1       5.014   3.570  16.668  0.00  0.00    +0.000 OA
ATOM      8  S   UNL     1       4.904   4.103  18.011  0.00  0.00    +0.000 S 
ATOM      9  O   UNL     1       5.228   3.282  19.151  0.00  0.00    +0.000 OA
BRANCH   8  10
ATOM     10  N   UNL     1       3.309   4.700  18.197  0.00  0.00    +0.000 NA
ATOM     11  C   UNL     1       2.839   5.036  19.579  0.00  0.00    +0.000 C 
ATOM     12  C   UNL     1       2.537   3.769  20.391  0.00  0.00    +0.000 C 
ATOM     13  O   UNL     1       1.565   2.946  19.726  0.00  0.00    +0.000 OA
ATOM     14  C   UNL     1       1.988   2.587  18.400  0.00  0.00    +0.000 C 
ATOM     15  C   UNL     1       2.268   3.832  17.548  0.00  0.00    +0.000 C 
ENDBRANCH   8  10
ENDBRANCH   1   8
BRANCH   4  16
ATOM     16  C   UNL     1       8.574   8.907  17.985  0.00  0.00    +0.000 C 
ATOM     17  C   UNL     1       8.967   9.578  19.078  0.00  0.00    +0.000 C 
BRANCH  17  18
ATOM     18  C   UNL     1       9.806  10.773  18.977  0.00  0.00    +0.000 A 
ATOM     19  C   UNL     1      10.298  11.362  20.148  0.00  0.00    +0.000 A 
ATOM     20  C   UNL     1      11.076  12.518  20.080  0.00  0.00    +0.000 A 
ATOM     21  C   UNL     1      11.367  13.089  18.842  0.00  0.00    +0.000 A 
ATOM     22  C   UNL     1      10.887  12.500  17.671  0.00  0.00    +0.000 A 
ATOM     23  C   UNL     1      10.105  11.343  17.737  0.00  0.00    +0.000 A 
ENDBRANCH  17  18
ENDBRANCH   4  16
TORSDOF 4
ENDMDL
MODEL 5
REMARK VINA RESULT:      -8.0      1.206      1.631
REMARK  Name = 
REMARK  4 active torsions:
REMARK  status: ('A' for Active; 'I' for Inactive)
REMARK    1  A    between atoms: S_2  and  C_4
REMARK    2  A    between atoms: S_2  and  N_18
REMARK    3  A    between atoms: C_7  and  C_8
REMARK    4  A    between atoms: C_9  and  C_10
REMARK                            x       y       z     vdW  Elec       q    Type
REMARK                         _______ _______ _______ _____ _____    ______ ____
ROOT
ATOM      1  C   UNL     1       5.983   5.631  17.661  0.00  0.00    +0.000 A 
ATOM      2  C   UNL     1       5.957   6.890  17.056  0.00  0.00    +0.000 A 
ATOM      3  C   UNL     1       6.924   7.837  17.400  0.00  0.00    +0.000 A 
ATOM      4  C   UNL     1       7.899   7.554  18.368  0.00  0.00    +0.000 A 
ATOM      5  C   UNL     1       7.899   6.288  18.975  0.00  0.00    +0.000 A 
ATOM      6  C   UNL     1       6.942   5.330  18.628  0.00  0.00    +0.000 A 
ENDROOT
BRANCH   1   8
ATOM      7  O   UNL     1       3.513   5.208  17.003  0.00  0.00    +0.000 OA
ATOM      8  S   UNL     1       4.709   4.449  17.310  0.00  0.00    +0.000 S 
ATOM      9  O   UNL     1       5.235   3.499  16.361  0.00  0.00    +0.000 OA
BRANCH   8  10
ATOM     10  N   UNL     1       4.440   3.649  18.800  0.00  0.00    +0.000 NA
ATOM     11  C   UNL     1       4.049   2.203  18.764  0.00  0.00    +0.000 C 
ATOM     12  C   UNL     1       2.589   2.029  18.324  0.00  0.00    +0.000 C 
ATOM     13  O   UNL     1       1.698   2.760  19.183  0.00  0.00    +0.000 OA
ATOM     14  C   UNL     1       2.030   4.157  19.232  0.00  0.00    +0.000 C 
ATOM     15  C   UNL     1       3.475   4.370  19.699  0.00  0.00    +0.000 C 
ENDBRANCH   8  10
ENDBRANCH   1   8
BRANCH   4  16
ATOM     16  C   UNL     1       8.871   8.603  18.715  0.00  0.00    +0.000 C 
ATOM     17  C   UNL     1       8.719   9.902  18.420  0.00  0.00    +0.000 C 
BRANCH  17  18
ATOM     18  C   UNL     1       9.781  10.872  18.687  0.00  0.00    +0.000 A 
ATOM     19  C   UNL     1      10.176  11.104  20.010  0.00  0.00    +0.000 A 
ATOM     20  C   UNL     1      11.166  12.045  20.294  0.00  0.00    +0.000 A 
ATOM     21  C   UNL     1      11.767  12.757  19.256  0.00  0.00    +0.000 A 
ATOM     22  C   UNL     1      11.384  12.522  17.935  0.00  0.00    +0.000 A 
ATOM     23  C   UNL     1      10.391  11.582  17.649  0.00  0.00    +0.000 A 
ENDBRANCH  17  18
ENDBRANCH   4  16
TORSDOF 4
ENDMDL
MODEL 6
REMARK VINA RESULT:      -8.0      1.078      1.652
REMARK  Name = 
REMARK  4 active torsions:
REMARK  status: ('A' for Active; 'I' for Inactive)
REMARK    1  A    between atoms: S_2  and  C_4
REMARK    2  A    between atoms: S_2  and  N_18
REMARK    3  A    between atoms: C_7  and  C_8
REMARK    4  A    between atoms: C_9  and  C_10
REMARK                            x       y       z     vdW  Elec       q    Type
REMARK                         _______ _______ _______ _____ _____    ______ ____
ROOT
ATOM      1  C   UNL     1       5.690   5.695  17.738  0.00  0.00    +0.000 A 
ATOM      2  C   UNL     1       5.522   6.898  17.050  0.00  0.00    +0.000 A 
ATOM      3  C   UNL     1       6.506   7.886  17.143  0.00  0.00    +0.000 A 
ATOM      4  C   UNL     1       7.642   7.699  17.945  0.00  0.00    +0.000 A 
ATOM      5  C   UNL     1       7.784   6.488  18.640  0.00  0.00    +0.000 A 
ATOM      6  C   UNL     1       6.811   5.489  18.543  0.00  0.00    +0.000 A 
ENDROOT
BRANCH   1   8
ATOM      7  O   UNL     1       3.181   5.159  17.381  0.00  0.00    +0.000 OA
ATOM      8  S   UNL     1       4.411   4.467  17.711  0.00  0.00    +0.000 S 
ATOM      9  O   UNL     1       4.869   3.367  16.898  0.00  0.00    +0.000 OA
BRANCH   8  10
ATOM     10  N   UNL     1       4.284   3.939  19.334  0.00  0.00    +0.000 NA
ATOM     11  C   UNL     1       4.185   2.466  19.591  0.00  0.00    +0.000 C 
ATOM     12  C   UNL     1       2.794   1.928  19.230  0.00  0.00    +0.000 C 
ATOM     13  O   UNL     1       1.765   2.624  19.952  0.00  0.00    +0.000 OA
ATOM     14  C   UNL     1       1.815   4.041  19.719  0.00  0.00    +0.000 C 
ATOM     15  C   UNL     1       3.184   4.620  20.099  0.00  0.00    +0.000 C 
ENDBRANCH   8  10
ENDBRANCH   1   8
BRANCH   4  16
ATOM     16  C   UNL     1       8.627   8.788  18.033  0.00  0.00    +0.000 C 
ATOM     17  C   UNL     1       8.824   9.544  19.123  0.00  0.00    +0.000 C 
BRANCH  17  18
ATOM     18  C   UNL     1       9.735  10.689  19.101  0.00  0.00    +0.000 A 
ATOM     19  C   UNL     1      10.172  11.190  17.870  0.00  0.00    +0.000 A 
ATOM     20  C   UNL     1      11.063  12.262  17.823  0.00  0.00    +0.000 A 
ATOM     21  C   UNL     1      11.520  12.839  19.007  0.00  0.00    +0.000 A 
ATOM     22  C   UNL     1      11.079  12.350  20.237  0.00  0.00    +0.000 A 
ATOM     23  C   UNL     1      10.188  11.275  20.286  0.00  0.00    +0.000 A 
ENDBRANCH  17  18
ENDBRANCH   4  16
TORSDOF 4
ENDMDL
MODEL 7
REMARK VINA RESULT:      -7.8      1.107      1.963
REMARK  Name = 
REMARK  4 active torsions:
REMARK  status: ('A' for Active; 'I' for Inactive)
REMARK    1  A    between atoms: S_2  and  C_4
REMARK    2  A    between atoms: S_2  and  N_18
REMARK    3  A    between atoms: C_7  and  C_8
REMARK    4  A    between atoms: C_9  and  C_10
REMARK                            x       y       z     vdW  Elec       q    Type
REMARK                         _______ _______ _______ _____ _____    ______ ____
ROOT
ATOM      1  C   UNL     1       5.721   5.618  17.771  0.00  0.00    +0.000 A 
ATOM      2  C   UNL     1       6.898   5.455  18.506  0.00  0.00    +0.000 A 
ATOM      3  C   UNL     1       7.810   6.510  18.585  0.00  0.00    +0.000 A 
ATOM      4  C   UNL     1       7.577   7.717  17.910  0.00  0.00    +0.000 A 
ATOM      5  C   UNL     1       6.395   7.856  17.165  0.00  0.00    +0.000 A 
ATOM      6  C   UNL     1       5.471   6.810  17.091  0.00  0.00    +0.000 A 
ENDROOT
BRANCH   1   8
ATOM      7  O   UNL     1       3.319   4.833  17.202  0.00  0.00    +0.000 OA
ATOM      8  S   UNL     1       4.597   4.261  17.579  0.00  0.00    +0.000 S 
ATOM      9  O   UNL     1       5.231   3.275  16.739  0.00  0.00    +0.000 OA
BRANCH   8  10
ATOM     10  N   UNL     1       4.425   3.615  19.155  0.00  0.00    +0.000 NA
ATOM     11  C   UNL     1       4.063   2.168  19.289  0.00  0.00    +0.000 C 
ATOM     12  C   UNL     1       2.586   1.926  18.950  0.00  0.00    +0.000 C 
ATOM     13  O   UNL     1       1.726   2.727  19.777  0.00  0.00    +0.000 OA
ATOM     14  C   UNL     1       2.030   4.127  19.665  0.00  0.00    +0.000 C 
ATOM     15  C   UNL     1       3.494   4.410  20.028  0.00  0.00    +0.000 C 
ENDBRANCH   8  10
ENDBRANCH   1   8
BRANCH   4  16
ATOM     16  C   UNL     1       8.590   8.781  18.001  0.00  0.00    +0.000 C 
ATOM     17  C   UNL     1       8.799   9.535  19.090  0.00  0.00    +0.000 C 
BRANCH  17  18
ATOM     18  C   UNL     1       9.740  10.655  19.070  0.00  0.00    +0.000 A 
ATOM     19  C   UNL     1      10.190  11.147  17.840  0.00  0.00    +0.000 A 
ATOM     20  C   UNL     1      11.109  12.196  17.795  0.00  0.00    +0.000 A 
ATOM     21  C   UNL     1      11.581  12.759  18.980  0.00  0.00    +0.000 A 
ATOM     22  C   UNL     1      11.128  12.279  20.209  0.00  0.00    +0.000 A 
ATOM     23  C   UNL     1      10.209  11.227  20.256  0.00  0.00    +0.000 A 
ENDBRANCH  17  18
ENDBRANCH   4  16
TORSDOF 4
ENDMDL
MODEL 8
REMARK VINA RESULT:      -7.8      1.095      1.801
REMARK  Name = 
REMARK  4 active torsions:
REMARK  status: ('A' for Active; 'I' for Inactive)
REMARK    1  A    between atoms: S_2  and  C_4
REMARK    2  A    between atoms: S_2  and  N_18
REMARK    3  A    between atoms: C_7  and  C_8
REMARK    4  A    between atoms: C_9  and  C_10
REMARK                            x       y       z     vdW  Elec       q    Type
REMARK                         _______ _______ _______ _____ _____    ______ ____
ROOT
ATOM      1  C   UNL     1       5.724   5.707  17.793  0.00  0.00    +0.000 A 
ATOM      2  C   UNL     1       6.900   5.555  18.530  0.00  0.00    +0.000 A 
ATOM      3  C   UNL     1       7.813   6.610  18.592  0.00  0.00    +0.000 A 
ATOM      4  C   UNL     1       7.581   7.807  17.899  0.00  0.00    +0.000 A 
ATOM      5  C   UNL     1       6.399   7.935  17.152  0.00  0.00    +0.000 A 
ATOM      6  C   UNL     1       5.474   6.888  17.094  0.00  0.00    +0.000 A 
ENDROOT
BRANCH   1   8
ATOM      7  O   UNL     1       3.330   4.912  17.202  0.00  0.00    +0.000 OA
ATOM      8  S   UNL     1       4.598   4.349  17.622  0.00  0.00    +0.000 S 
ATOM      9  O   UNL     1       5.244   3.334  16.826  0.00  0.00    +0.000 OA
BRANCH   8  10
ATOM     10  N   UNL     1       4.392   3.754  19.214  0.00  0.00    +0.000 NA
ATOM     11  C   UNL     1       4.148   2.287  19.393  0.00  0.00    +0.000 C 
ATOM     12  C   UNL     1       2.718   1.905  18.988  0.00  0.00    +0.000 C 
ATOM     13  O   UNL     1       1.748   2.661  19.732  0.00  0.00    +0.000 OA
ATOM     14  C   UNL     1       1.939   4.076  19.574  0.00  0.00    +0.000 C 
ATOM     15  C   UNL     1       3.350   4.500  20.000  0.00  0.00    +0.000 C 
ENDBRANCH   8  10
ENDBRANCH   1   8
BRANCH   4  16
ATOM     16  C   UNL     1       8.595   8.870  17.973  0.00  0.00    +0.000 C 
ATOM     17  C   UNL     1       8.871   9.577  19.079  0.00  0.00    +0.000 C 
BRANCH  17  18
ATOM     18  C   UNL     1       9.806  10.702  19.050  0.00  0.00    +0.000 A 
ATOM     19  C   UNL     1      10.201  11.293  20.256  0.00  0.00    +0.000 A 
ATOM     20  C   UNL     1      11.068  12.385  20.253  0.00  0.00    +0.000 A 
ATOM     21  C   UNL     1      11.547  12.891  19.045  0.00  0.00    +0.000 A 
ATOM     22  C   UNL     1      11.165  12.299  17.840  0.00  0.00    +0.000 A 
ATOM     23  C   UNL     1      10.293  11.206  17.841  0.00  0.00    +0.000 A 
ENDBRANCH  17  18
ENDBRANCH   4  16
TORSDOF 4
ENDMDL
MODEL 9
REMARK VINA RESULT:      -7.7      1.220      1.791
REMARK  Name = 
REMARK  4 active torsions:
REMARK  status: ('A' for Active; 'I' for Inactive)
REMARK    1  A    between atoms: S_2  and  C_4
REMARK    2  A    between atoms: S_2  and  N_18
REMARK    3  A    between atoms: C_7  and  C_8
REMARK    4  A    between atoms: C_9  and  C_10
REMARK                            x       y       z     vdW  Elec       q    Type
REMARK                         _______ _______ _______ _____ _____    ______ ____
ROOT
ATOM      1  C   UNL     1       5.948   5.495  17.255  0.00  0.00    +0.000 A 
ATOM      2  C   UNL     1       6.918   5.191  18.213  0.00  0.00    +0.000 A 
ATOM      3  C   UNL     1       7.788   6.192  18.652  0.00  0.00    +0.000 A 
ATOM      4  C   UNL     1       7.722   7.488  18.122  0.00  0.00    +0.000 A 
ATOM      5  C   UNL     1       6.749   7.770  17.149  0.00  0.00    +0.000 A 
ATOM      6  C   UNL     1       5.867   6.778  16.713  0.00  0.00    +0.000 A 
ENDROOT
BRANCH   1   8
ATOM      7  O   UNL     1       4.772   4.463  15.191  0.00  0.00    +0.000 OA
ATOM      8  S   UNL     1       4.899   4.219  16.614  0.00  0.00    +0.000 S 
ATOM      9  O   UNL     1       5.395   2.953  17.095  0.00  0.00    +0.000 OA
BRANCH   8  10
ATOM     10  N   UNL     1       3.370   4.518  17.324  0.00  0.00    +0.000 NA
ATOM     11  C   UNL     1       3.331   4.959  18.755  0.00  0.00    +0.000 C 
ATOM     12  C   UNL     1       3.626   3.792  19.708  0.00  0.00    +0.000 C 
ATOM     13  O   UNL     1       2.706   2.708  19.501  0.00  0.00    +0.000 OA
ATOM     14  C   UNL     1       2.725   2.244  18.141  0.00  0.00    +0.000 C 
ATOM     15  C   UNL     1       2.402   3.380  17.160  0.00  0.00    +0.000 C 
ENDBRANCH   8  10
ENDBRANCH   1   8
BRANCH   4  16
ATOM     16  C   UNL     1       8.686   8.493  18.597  0.00  0.00    +0.000 C 
ATOM     17  C   UNL     1       8.579   9.811  18.372  0.00  0.00    +0.000 C 
BRANCH  17  18
ATOM     18  C   UNL     1       9.637  10.739  18.769  0.00  0.00    +0.000 A 
ATOM     19  C   UNL     1      10.456  11.304  17.784  0.00  0.00    +0.000 A 
ATOM     20  C   UNL     1      11.490  12.169  18.140  0.00  0.00    +0.000 A 
ATOM     21  C   UNL     1      11.710  12.476  19.482  0.00  0.00    +0.000 A 
ATOM     22  C   UNL     1      10.890  11.925  20.468  0.00  0.00    +0.000 A 
ATOM     23  C   UNL     1       9.855  11.055  20.113  0.00  0.00    +0.000 A 
ENDBRANCH  17  18
ENDBRANCH   4  16
TORSDOF 4
ENDMDL
