MODEL 1
REMARK VINA RESULT:      -7.9      0.000      0.000
REMARK  Name = 
REMARK  6 active torsions:
REMARK  status: ('A' for Active; 'I' for Inactive)
REMARK    1  A    between atoms: C_2  and  O_3
REMARK    2  A    between atoms: C_2  and  C_18
REMARK    3  A    between atoms: O_3  and  C_4
REMARK    4  A    between atoms: C_4  and  C_5
REMARK    5  A    between atoms: C_5  and  C_6
REMARK    6  A    between atoms: C_6  and  C_7
REMARK                            x       y       z     vdW  Elec       q    Type
REMARK                         _______ _______ _______ _____ _____    ______ ____
ROOT
ATOM      1  C   UNL     1       7.754   4.944  18.214  0.00  0.00    +0.000 C 
ENDROOT
BRANCH   1   2
ATOM      2  C   UNL     1       7.500   4.606  16.747  0.00  0.00    +0.000 C 
BRANCH   2   3
ATOM      3  O   UNL     1       7.343   5.802  15.963  0.00  0.00    +0.000 OA
BRANCH   3   5
ATOM      4  O   UNL     1       5.266   6.634  15.458  0.00  0.00    +0.000 OA
ATOM      5  C   UNL     1       6.198   5.876  15.239  0.00  0.00    +0.000 C 
BRANCH   5   6
ATOM      6  C   UNL     1       6.219   4.925  14.093  0.00  0.00    +0.000 A 
ATOM      7  C   UNL     1       7.320   4.974  13.221  0.00  0.00    +0.000 A 
ATOM      8  C   UNL     1       7.426   4.068  12.164  0.00  0.00    +0.000 A 
ATOM      9  C   UNL     1       6.433   3.114  11.979  0.00  0.00    +0.000 A 
ATOM     10  F   UNL     1       6.546   2.230  10.979  0.00  0.00    +0.000 F 
ATOM     11  C   UNL     1       5.326   3.061  12.819  0.00  0.00    +0.000 A 
ATOM     12  C   UNL     1       5.214   3.970  13.876  0.00  0.00    +0.000 A 
ENDBRANCH   5   6
ENDBRANCH   3   5
ENDBRANCH   2   3
ENDBRANCH   1   2
BRANCH   1  13
ATOM     13  C   UNL     1       6.642   5.830  18.777  0.00  0.00    +0.000 C 
BRANCH  13  14
ATOM     14  C   UNL     1       5.421   5.045  19.176  0.00  0.00    +0.000 A 
ATOM     15  C   UNL     1       4.200   5.580  19.288  0.00  0.00    +0.000 A 
ATOM     16  C   UNL     1       3.106   4.744  19.756  0.00  0.00    +0.000 A 
ATOM     17  C   UNL     1       1.827   5.278  19.951  0.00  0.00    +0.000 A 
ATOM     18  C   UNL     1       0.794   4.473  20.438  0.00  0.00    +0.000 A 
ATOM     19  C   UNL     1       1.030   3.129  20.727  0.00  0.00    +0.000 A 
ATOM     20  C   UNL     1       2.301   2.588  20.527  0.00  0.00    +0.000 A 
ATOM     21  C   UNL     1       3.338   3.396  20.045  0.00  0.00    +0.000 A 
ATOM     22  C   UNL     1       4.691   2.818  19.861  0.00  0.00    +0.000 A 
ATOM     23  O   UNL     1       4.912   1.631  20.068  0.00  0.00    +0.000 OA
ATOM     24  O   UNL     1       5.675   3.683  19.467  0.00  0.00    +0.000 OA
ENDBRANCH  13  14
ENDBRANCH   1  13
TORSDOF 6
ENDMDL
MODEL 2
REMARK VINA RESULT:      -7.8      2.032      2.886
REMARK  Name = 
REMARK  6 active torsions:
REMARK  status: ('A' for Active; 'I' for Inactive)
REMARK    1  A    between atoms: C_2  and  O_3
REMARK    2  A    between atoms: C_2  and  C_18
REMARK    3  A    between atoms: O_3  and  C_4
REMARK    4  A    between atoms: C_4  and  C_5
REMARK    5  A    between atoms: C_5  and  C_6
REMARK    6  A    between atoms: C_6  and  C_7
REMARK                            x       y       z     vdW  Elec       q    Type
REMARK                         _______ _______ _______ _____ _____    ______ ____
ROOT
ATOM      1  C   UNL     1       5.130   7.005  16.470  0.00  0.00    +0.000 C 
ENDROOT
BRANCH   1   2
ATOM      2  C   UNL     1       6.484   7.080  17.170  0.00  0.00    +0.000 C 
BRANCH   2   3
ATOM      3  O   UNL     1       7.514   6.479  16.365  0.00  0.00    +0.000 OA
BRANCH   3   5
ATOM      4  O   UNL     1       7.853   4.384  17.237  0.00  0.00    +0.000 OA
ATOM      5  C   UNL     1       7.505   5.122  16.328  0.00  0.00    +0.000 C 
BRANCH   5   6
ATOM      6  C   UNL     1       6.977   4.619  15.030  0.00  0.00    +0.000 A 
ATOM      7  C   UNL     1       5.806   3.842  15.055  0.00  0.00    +0.000 A 
ATOM      8  C   UNL     1       5.230   3.392  13.865  0.00  0.00    +0.000 A 
ATOM      9  C   UNL     1       5.824   3.718  12.652  0.00  0.00    +0.000 A 
ATOM     10  F   UNL     1       5.258   3.306  11.510  0.00  0.00    +0.000 F 
ATOM     11  C   UNL     1       6.993   4.469  12.606  0.00  0.00    +0.000 A 
ATOM     12  C   UNL     1       7.576   4.918  13.796  0.00  0.00    +0.000 A 
ENDBRANCH   5   6
ENDBRANCH   3   5
ENDBRANCH   2   3
ENDBRANCH   1   2
BRANCH   1  13
ATOM     13  C   UNL     1       4.016   7.559  17.359  0.00  0.00    +0.000 C 
BRANCH  13  14
ATOM     14  C   UNL     1       3.284   6.480  18.110  0.00  0.00    +0.000 A 
ATOM     15  C   UNL     1       3.181   5.217  17.680  0.00  0.00    +0.000 A 
ATOM     16  C   UNL     1       2.383   4.274  18.448  0.00  0.00    +0.000 A 
ATOM     17  C   UNL     1       2.193   2.962  18.001  0.00  0.00    +0.000 A 
ATOM     18  C   UNL     1       1.393   2.078  18.729  0.00  0.00    +0.000 A 
ATOM     19  C   UNL     1       0.783   2.497  19.911  0.00  0.00    +0.000 A 
ATOM     20  C   UNL     1       0.974   3.802  20.368  0.00  0.00    +0.000 A 
ATOM     21  C   UNL     1       1.772   4.690  19.634  0.00  0.00    +0.000 A 
ATOM     22  C   UNL     1       1.948   6.082  20.114  0.00  0.00    +0.000 A 
ATOM     23  O   UNL     1       1.457   6.460  21.171  0.00  0.00    +0.000 OA
ATOM     24  O   UNL     1       2.669   6.918  19.308  0.00  0.00    +0.000 OA
ENDBRANCH  13  14
ENDBRANCH   1  13
TORSDOF 6
ENDMDL
MODEL 3
REMARK VINA RESULT:      -7.8      4.020      6.432
REMARK  Name = 
REMARK  6 active torsions:
REMARK  status: ('A' for Active; 'I' for Inactive)
REMARK    1  A    between atoms: C_2  and  O_3
REMARK    2  A    between atoms: C_2  and  C_18
REMARK    3  A    between atoms: O_3  and  C_4
REMARK    4  A    between atoms: C_4  and  C_5
REMARK    5  A    between atoms: C_5  and  C_6
REMARK    6  A    between atoms: C_6  and  C_7
REMARK                            x       y       z     vdW  Elec       q    Type
REMARK                         _______ _______ _______ _____ _____    ______ ____
ROOT
ATOM      1  C   UNL     1       1.523   5.056  20.510  0.00  0.00    +0.000 C 
ENDROOT
BRANCH   1   2
ATOM      2  C   UNL     1       2.474   4.026  21.114  0.00  0.00    +0.000 C 
BRANCH   2   3
ATOM      3  O   UNL     1       2.776   2.986  20.166  0.00  0.00    +0.000 OA
BRANCH   3   5
ATOM      4  O   UNL     1       4.833   2.019  20.474  0.00  0.00    +0.000 OA
ATOM      5  C   UNL     1       4.095   2.806  19.902  0.00  0.00    +0.000 C 
BRANCH   5   6
ATOM      6  C   UNL     1       4.547   3.675  18.781  0.00  0.00    +0.000 A 
ATOM      7  C   UNL     1       5.515   4.655  19.060  0.00  0.00    +0.000 A 
ATOM      8  C   UNL     1       6.022   5.460  18.037  0.00  0.00    +0.000 A 
ATOM      9  C   UNL     1       5.560   5.287  16.738  0.00  0.00    +0.000 A 
ATOM     10  F   UNL     1       6.063   6.043  15.754  0.00  0.00    +0.000 F 
ATOM     11  C   UNL     1       4.588   4.336  16.445  0.00  0.00    +0.000 A 
ATOM     12  C   UNL     1       4.075   3.530  17.467  0.00  0.00    +0.000 A 
ENDBRANCH   5   6
ENDBRANCH   3   5
ENDBRANCH   2   3
ENDBRANCH   1   2
BRANCH   1  13
ATOM     13  C   UNL     1       2.290   6.250  19.942  0.00  0.00    +0.000 C 
BRANCH  13  14
ATOM     14  C   UNL     1       1.651   7.568  20.291  0.00  0.00    +0.000 A 
ATOM     15  C   UNL     1       1.072   7.821  21.470  0.00  0.00    +0.000 A 
ATOM     16  C   UNL     1       0.416   9.104  21.671  0.00  0.00    +0.000 A 
ATOM     17  C   UNL     1      -0.259   9.386  22.864  0.00  0.00    +0.000 A 
ATOM     18  C   UNL     1      -0.917  10.608  23.028  0.00  0.00    +0.000 A 
ATOM     19  C   UNL     1      -0.900  11.556  22.006  0.00  0.00    +0.000 A 
ATOM     20  C   UNL     1      -0.222  11.285  20.817  0.00  0.00    +0.000 A 
ATOM     21  C   UNL     1       0.433  10.058  20.649  0.00  0.00    +0.000 A 
ATOM     22  C   UNL     1       1.128   9.768  19.373  0.00  0.00    +0.000 A 
ATOM     23  O   UNL     1       1.192  10.602  18.477  0.00  0.00    +0.000 OA
ATOM     24  O   UNL     1       1.674   8.521  19.244  0.00  0.00    +0.000 OA
ENDBRANCH  13  14
ENDBRANCH   1  13
TORSDOF 6
ENDMDL
MODEL 4
REMARK VINA RESULT:      -7.8      4.274      6.514
REMARK  Name = 
REMARK  6 active torsions:
REMARK  status: ('A' for Active; 'I' for Inactive)
REMARK    1  A    between atoms: C_2  and  O_3
REMARK    2  A    between atoms: C_2  and  C_18
REMARK    3  A    between atoms: O_3  and  C_4
REMARK    4  A    between atoms: C_4  and  C_5
REMARK    5  A    between atoms: C_5  and  C_6
REMARK    6  A    between atoms: C_6  and  C_7
REMARK                            x       y       z     vdW  Elec       q    Type
REMARK                         _______ _______ _______ _____ _____    ______ ____
ROOT
ATOM      1  C   UNL     1       1.904   5.350  20.477  0.00  0.00    +0.000 C 
ENDROOT
BRANCH   1   2
ATOM      2  C   UNL     1       1.828   4.159  19.525  0.00  0.00    +0.000 C 
BRANCH   2   3
ATOM      3  O   UNL     1       2.996   3.329  19.645  0.00  0.00    +0.000 OA
BRANCH   3   5
ATOM      4  O   UNL     1       3.486   2.095  17.774  0.00  0.00    +0.000 OA
ATOM      5  C   UNL     1       3.651   3.075  18.483  0.00  0.00    +0.000 C 
BRANCH   5   6
ATOM      6  C   UNL     1       4.596   4.175  18.143  0.00  0.00    +0.000 A 
ATOM      7  C   UNL     1       4.428   4.826  16.909  0.00  0.00    +0.000 A 
ATOM      8  C   UNL     1       5.245   5.903  16.561  0.00  0.00    +0.000 A 
ATOM      9  C   UNL     1       6.229   6.329  17.444  0.00  0.00    +0.000 A 
ATOM     10  F   UNL     1       6.998   7.377  17.120  0.00  0.00    +0.000 F 
ATOM     11  C   UNL     1       6.425   5.686  18.662  0.00  0.00    +0.000 A 
ATOM     12  C   UNL     1       5.611   4.603  19.013  0.00  0.00    +0.000 A 
ENDBRANCH   5   6
ENDBRANCH   3   5
ENDBRANCH   2   3
ENDBRANCH   1   2
BRANCH   1  13
ATOM     13  C   UNL     1       2.415   6.600  19.760  0.00  0.00    +0.000 C 
BRANCH  13  14
ATOM     14  C   UNL     1       1.690   7.849  20.185  0.00  0.00    +0.000 A 
ATOM     15  C   UNL     1       1.146   8.013  21.395  0.00  0.00    +0.000 A 
ATOM     16  C   UNL     1       0.401   9.232  21.673  0.00  0.00    +0.000 A 
ATOM     17  C   UNL     1      -0.241   9.417  22.902  0.00  0.00    +0.000 A 
ATOM     18  C   UNL     1      -0.985  10.576  23.140  0.00  0.00    +0.000 A 
ATOM     19  C   UNL     1      -1.087  11.558  22.156  0.00  0.00    +0.000 A 
ATOM     20  C   UNL     1      -0.443  11.383  20.930  0.00  0.00    +0.000 A 
ATOM     21  C   UNL     1       0.298  10.219  20.688  0.00  0.00    +0.000 A 
ATOM     22  C   UNL     1       0.958  10.031  19.374  0.00  0.00    +0.000 A 
ATOM     23  O   UNL     1       0.917  10.898  18.510  0.00  0.00    +0.000 OA
ATOM     24  O   UNL     1       1.594   8.837  19.176  0.00  0.00    +0.000 OA
ENDBRANCH  13  14
ENDBRANCH   1  13
TORSDOF 6
ENDMDL
MODEL 5
REMARK VINA RESULT:      -7.8      4.075      7.512
REMARK  Name = 
REMARK  6 active torsions:
REMARK  status: ('A' for Active; 'I' for Inactive)
REMARK    1  A    between atoms: C_2  and  O_3
REMARK    2  A    between atoms: C_2  and  C_18
REMARK    3  A    between atoms: O_3  and  C_4
REMARK    4  A    between atoms: C_4  and  C_5
REMARK    5  A    between atoms: C_5  and  C_6
REMARK    6  A    between atoms: C_6  and  C_7
REMARK                            x       y       z     vdW  Elec       q    Type
REMARK                         _______ _______ _______ _____ _____    ______ ____
ROOT
ATOM      1  C   UNL     1       2.340   3.424  20.780  0.00  0.00    +0.000 C 
ENDROOT
BRANCH   1   2
ATOM      2  C   UNL     1       1.539   4.594  20.214  0.00  0.00    +0.000 C 
BRANCH   2   3
ATOM      3  O   UNL     1       2.093   5.851  20.641  0.00  0.00    +0.000 OA
BRANCH   3   5
ATOM      4  O   UNL     1       3.062   6.494  18.664  0.00  0.00    +0.000 OA
ATOM      5  C   UNL     1       2.376   6.730  19.646  0.00  0.00    +0.000 C 
BRANCH   5   6
ATOM      6  C   UNL     1       1.708   8.041  19.875  0.00  0.00    +0.000 A 
ATOM      7  C   UNL     1       1.619   8.929  18.790  0.00  0.00    +0.000 A 
ATOM      8  C   UNL     1       0.951  10.148  18.926  0.00  0.00    +0.000 A 
ATOM      9  C   UNL     1       0.374  10.478  20.146  0.00  0.00    +0.000 A 
ATOM     10  F   UNL     1      -0.286  11.637  20.272  0.00  0.00    +0.000 F 
ATOM     11  C   UNL     1       0.468   9.622  21.238  0.00  0.00    +0.000 A 
ATOM     12  C   UNL     1       1.140   8.401  21.106  0.00  0.00    +0.000 A 
ENDBRANCH   5   6
ENDBRANCH   3   5
ENDBRANCH   2   3
ENDBRANCH   1   2
BRANCH   1  13
ATOM     13  C   UNL     1       2.920   2.558  19.661  0.00  0.00    +0.000 C 
BRANCH  13  14
ATOM     14  C   UNL     1       3.959   3.282  18.848  0.00  0.00    +0.000 A 
ATOM     15  C   UNL     1       3.959   3.320  17.511  0.00  0.00    +0.000 A 
ATOM     16  C   UNL     1       5.057   3.985  16.825  0.00  0.00    +0.000 A 
ATOM     17  C   UNL     1       5.132   3.991  15.428  0.00  0.00    +0.000 A 
ATOM     18  C   UNL     1       6.212   4.600  14.784  0.00  0.00    +0.000 A 
ATOM     19  C   UNL     1       7.220   5.211  15.530  0.00  0.00    +0.000 A 
ATOM     20  C   UNL     1       7.147   5.215  16.923  0.00  0.00    +0.000 A 
ATOM     21  C   UNL     1       6.067   4.599  17.570  0.00  0.00    +0.000 A 
ATOM     22  C   UNL     1       6.012   4.586  19.051  0.00  0.00    +0.000 A 
ATOM     23  O   UNL     1       6.864   5.152  19.727  0.00  0.00    +0.000 OA
ATOM     24  O   UNL     1       4.976   3.897  19.617  0.00  0.00    +0.000 OA
ENDBRANCH  13  14
ENDBRANCH   1  13
TORSDOF 6
ENDMDL
MODEL 6
REMARK VINA RESULT:      -7.7      3.292      6.915
REMARK  Name = 
REMARK  6 active torsions:
REMARK  status: ('A' for Active; 'I' for Inactive)
REMARK    1  A    between atoms: C_2  and  O_3
REMARK    2  A    between atoms: C_2  and  C_18
REMARK    3  A    between atoms: O_3  and  C_4
REMARK    4  A    between atoms: C_4  and  C_5
REMARK    5  A    between atoms: C_5  and  C_6
REMARK    6  A    between atoms: C_6  and  C_7
REMARK                            x       y       z     vdW  Elec       q    Type
REMARK                         _______ _______ _______ _____ _____    ______ ____
ROOT
ATOM      1  C   UNL     1       2.430   2.255  19.058  0.00  0.00    +0.000 C 
ENDROOT
BRANCH   1   2
ATOM      2  C   UNL     1       1.121   3.018  18.873  0.00  0.00    +0.000 C 
BRANCH   2   3
ATOM      3  O   UNL     1       0.755   3.714  20.078  0.00  0.00    +0.000 OA
BRANCH   3   5
ATOM      4  O   UNL     1       2.454   4.110  21.568  0.00  0.00    +0.000 OA
ATOM      5  C   UNL     1       1.741   4.459  20.641  0.00  0.00    +0.000 C 
BRANCH   5   6
ATOM      6  C   UNL     1       1.882   5.775  19.958  0.00  0.00    +0.000 A 
ATOM      7  C   UNL     1       1.457   6.921  20.651  0.00  0.00    +0.000 A 
ATOM      8  C   UNL     1       1.619   8.189  20.087  0.00  0.00    +0.000 A 
ATOM      9  C   UNL     1       2.204   8.309  18.833  0.00  0.00    +0.000 A 
ATOM     10  F   UNL     1       2.381   9.527  18.302  0.00  0.00    +0.000 F 
ATOM     11  C   UNL     1       2.614   7.186  18.123  0.00  0.00    +0.000 A 
ATOM     12  C   UNL     1       2.449   5.914  18.682  0.00  0.00    +0.000 A 
ENDBRANCH   5   6
ENDBRANCH   3   5
ENDBRANCH   2   3
ENDBRANCH   1   2
BRANCH   1  13
ATOM     13  C   UNL     1       3.195   2.141  17.739  0.00  0.00    +0.000 C 
BRANCH  13  14
ATOM     14  C   UNL     1       4.255   3.199  17.592  0.00  0.00    +0.000 A 
ATOM     15  C   UNL     1       5.039   3.608  18.596  0.00  0.00    +0.000 A 
ATOM     16  C   UNL     1       5.979   4.692  18.359  0.00  0.00    +0.000 A 
ATOM     17  C   UNL     1       6.771   5.196  19.397  0.00  0.00    +0.000 A 
ATOM     18  C   UNL     1       7.641   6.264  19.164  0.00  0.00    +0.000 A 
ATOM     19  C   UNL     1       7.731   6.830  17.893  0.00  0.00    +0.000 A 
ATOM     20  C   UNL     1       6.951   6.328  16.851  0.00  0.00    +0.000 A 
ATOM     21  C   UNL     1       6.073   5.261  17.086  0.00  0.00    +0.000 A 
ATOM     22  C   UNL     1       5.229   4.751  15.979  0.00  0.00    +0.000 A 
ATOM     23  O   UNL     1       5.321   5.205  14.844  0.00  0.00    +0.000 OA
ATOM     24  O   UNL     1       4.336   3.766  16.297  0.00  0.00    +0.000 OA
ENDBRANCH  13  14
ENDBRANCH   1  13
TORSDOF 6
ENDMDL
MODEL 7
REMARK VINA RESULT:      -7.7      3.802      6.163
REMARK  Name = 
REMARK  6 active torsions:
REMARK  status: ('A' for Active; 'I' for Inactive)
REMARK    1  A    between atoms: C_2  and  O_3
REMARK    2  A    between atoms: C_2  and  C_18
REMARK    3  A    between atoms: O_3  and  C_4
REMARK    4  A    between atoms: C_4  and  C_5
REMARK    5  A    between atoms: C_5  and  C_6
REMARK    6  A    between atoms: C_6  and  C_7
REMARK                            x       y       z     vdW  Elec       q    Type
REMARK                         _______ _______ _______ _____ _____    ______ ____
ROOT
ATOM      1  C   UNL     1       1.397   3.838  19.992  0.00  0.00    +0.000 C 
ENDROOT
BRANCH   1   2
ATOM      2  C   UNL     1       1.929   2.432  20.260  0.00  0.00    +0.000 C 
BRANCH   2   3
ATOM      3  O   UNL     1       3.345   2.362  20.014  0.00  0.00    +0.000 OA
BRANCH   3   5
ATOM      4  O   UNL     1       3.574   1.460  17.917  0.00  0.00    +0.000 OA
ATOM      5  C   UNL     1       3.709   2.381  18.707  0.00  0.00    +0.000 C 
BRANCH   5   6
ATOM      6  C   UNL     1       4.279   3.703  18.324  0.00  0.00    +0.000 A 
ATOM      7  C   UNL     1       5.234   4.278  19.179  0.00  0.00    +0.000 A 
ATOM      8  C   UNL     1       5.848   5.486  18.843  0.00  0.00    +0.000 A 
ATOM      9  C   UNL     1       5.508   6.119  17.654  0.00  0.00    +0.000 A 
ATOM     10  F   UNL     1       6.114   7.266  17.320  0.00  0.00    +0.000 F 
ATOM     11  C   UNL     1       4.551   5.576  16.803  0.00  0.00    +0.000 A 
ATOM     12  C   UNL     1       3.931   4.368  17.138  0.00  0.00    +0.000 A 
ENDBRANCH   5   6
ENDBRANCH   3   5
ENDBRANCH   2   3
ENDBRANCH   1   2
BRANCH   1  13
ATOM     13  C   UNL     1       2.067   4.865  20.905  0.00  0.00    +0.000 C 
BRANCH  13  14
ATOM     14  C   UNL     1       1.764   6.283  20.501  0.00  0.00    +0.000 A 
ATOM     15  C   UNL     1       2.173   6.829  19.350  0.00  0.00    +0.000 A 
ATOM     16  C   UNL     1       1.889   8.233  19.096  0.00  0.00    +0.000 A 
ATOM     17  C   UNL     1       2.355   8.862  17.936  0.00  0.00    +0.000 A 
ATOM     18  C   UNL     1       2.108  10.221  17.724  0.00  0.00    +0.000 A 
ATOM     19  C   UNL     1       1.390  10.957  18.665  0.00  0.00    +0.000 A 
ATOM     20  C   UNL     1       0.915  10.335  19.820  0.00  0.00    +0.000 A 
ATOM     21  C   UNL     1       1.168   8.974  20.037  0.00  0.00    +0.000 A 
ATOM     22  C   UNL     1       0.682   8.328  21.279  0.00  0.00    +0.000 A 
ATOM     23  O   UNL     1       0.013   8.945  22.100  0.00  0.00    +0.000 OA
ATOM     24  O   UNL     1       1.035   7.020  21.465  0.00  0.00    +0.000 OA
ENDBRANCH  13  14
ENDBRANCH   1  13
TORSDOF 6
ENDMDL
MODEL 8
REMARK VINA RESULT:      -7.7      2.426      6.172
REMARK  Name = 
REMARK  6 active torsions:
REMARK  status: ('A' for Active; 'I' for Inactive)
REMARK    1  A    between atoms: C_2  and  O_3
REMARK    2  A    between atoms: C_2  and  C_18
REMARK    3  A    between atoms: O_3  and  C_4
REMARK    4  A    between atoms: C_4  and  C_5
REMARK    5  A    between atoms: C_5  and  C_6
REMARK    6  A    between atoms: C_6  and  C_7
REMARK                            x       y       z     vdW  Elec       q    Type
REMARK                         _______ _______ _______ _____ _____    ______ ____
ROOT
ATOM      1  C   UNL     1       2.365   6.754  20.709  0.00  0.00    +0.000 C 
ENDROOT
BRANCH   1   2
ATOM      2  C   UNL     1       1.501   5.517  20.938  0.00  0.00    +0.000 C 
BRANCH   2   3
ATOM      3  O   UNL     1       2.181   4.560  21.769  0.00  0.00    +0.000 OA
BRANCH   3   5
ATOM      4  O   UNL     1       1.777   2.326  22.100  0.00  0.00    +0.000 OA
ATOM      5  C   UNL     1       2.069   3.265  21.377  0.00  0.00    +0.000 C 
BRANCH   5   6
ATOM      6  C   UNL     1       2.316   3.119  19.915  0.00  0.00    +0.000 A 
ATOM      7  C   UNL     1       1.314   3.558  19.034  0.00  0.00    +0.000 A 
ATOM      8  C   UNL     1       1.513   3.502  17.653  0.00  0.00    +0.000 A 
ATOM      9  C   UNL     1       2.711   3.007  17.154  0.00  0.00    +0.000 A 
ATOM     10  F   UNL     1       2.911   2.975  15.830  0.00  0.00    +0.000 F 
ATOM     11  C   UNL     1       3.708   2.550  18.009  0.00  0.00    +0.000 A 
ATOM     12  C   UNL     1       3.511   2.600  19.393  0.00  0.00    +0.000 A 
ENDBRANCH   5   6
ENDBRANCH   3   5
ENDBRANCH   2   3
ENDBRANCH   1   2
BRANCH   1  13
ATOM     13  C   UNL     1       2.450   7.102  19.223  0.00  0.00    +0.000 C 
BRANCH  13  14
ATOM     14  C   UNL     1       3.668   6.517  18.560  0.00  0.00    +0.000 A 
ATOM     15  C   UNL     1       3.841   6.475  17.234  0.00  0.00    +0.000 A 
ATOM     16  C   UNL     1       5.023   5.817  16.699  0.00  0.00    +0.000 A 
ATOM     17  C   UNL     1       5.212   5.690  15.318  0.00  0.00    +0.000 A 
ATOM     18  C   UNL     1       6.333   5.021  14.819  0.00  0.00    +0.000 A 
ATOM     19  C   UNL     1       7.274   4.480  15.694  0.00  0.00    +0.000 A 
ATOM     20  C   UNL     1       7.096   4.609  17.072  0.00  0.00    +0.000 A 
ATOM     21  C   UNL     1       5.969   5.274  17.574  0.00  0.00    +0.000 A 
ATOM     22  C   UNL     1       5.776   5.383  19.040  0.00  0.00    +0.000 A 
ATOM     23  O   UNL     1       6.610   4.953  19.827  0.00  0.00    +0.000 OA
ATOM     24  O   UNL     1       4.615   5.971  19.460  0.00  0.00    +0.000 OA
ENDBRANCH  13  14
ENDBRANCH   1  13
TORSDOF 6
ENDMDL
MODEL 9
REMARK VINA RESULT:      -7.7      4.966      7.583
REMARK  Name = 
REMARK  6 active torsions:
REMARK  status: ('A' for Active; 'I' for Inactive)
REMARK    1  A    between atoms: C_2  and  O_3
REMARK    2  A    between atoms: C_2  and  C_18
REMARK    3  A    between atoms: O_3  and  C_4
REMARK    4  A    between atoms: C_4  and  C_5
REMARK    5  A    between atoms: C_5  and  C_6
REMARK    6  A    between atoms: C_6  and  C_7
REMARK                            x       y       z     vdW  Elec       q    Type
REMARK                         _______ _______ _______ _____ _____    ______ ____
ROOT
ATOM      1  C   UNL     1       3.122   7.006  18.525  0.00  0.00    +0.000 C 
ENDROOT
BRANCH   1   2
ATOM      2  C   UNL     1       4.035   6.331  17.504  0.00  0.00    +0.000 C 
BRANCH   2   3
ATOM      3  O   UNL     1       4.373   4.996  17.920  0.00  0.00    +0.000 OA
BRANCH   3   5
ATOM      4  O   UNL     1       3.075   3.586  16.659  0.00  0.00    +0.000 OA
ATOM      5  C   UNL     1       3.403   4.066  17.733  0.00  0.00    +0.000 C 
BRANCH   5   6
ATOM      6  C   UNL     1       2.787   3.658  19.027  0.00  0.00    +0.000 A 
ATOM      7  C   UNL     1       1.400   3.826  19.174  0.00  0.00    +0.000 A 
ATOM      8  C   UNL     1       0.757   3.407  20.341  0.00  0.00    +0.000 A 
ATOM      9  C   UNL     1       1.500   2.822  21.358  0.00  0.00    +0.000 A 
ATOM     10  F   UNL     1       0.880   2.399  22.468  0.00  0.00    +0.000 F 
ATOM     11  C   UNL     1       2.877   2.664  21.240  0.00  0.00    +0.000 A 
ATOM     12  C   UNL     1       3.525   3.087  20.075  0.00  0.00    +0.000 A 
ENDBRANCH   5   6
ENDBRANCH   3   5
ENDBRANCH   2   3
ENDBRANCH   1   2
BRANCH   1  13
ATOM     13  C   UNL     1       2.278   8.101  17.873  0.00  0.00    +0.000 C 
BRANCH  13  14
ATOM     14  C   UNL     1       1.539   8.940  18.880  0.00  0.00    +0.000 A 
ATOM     15  C   UNL     1       1.394   8.598  20.165  0.00  0.00    +0.000 A 
ATOM     16  C   UNL     1       0.594   9.448  21.034  0.00  0.00    +0.000 A 
ATOM     17  C   UNL     1       0.361   9.094  22.368  0.00  0.00    +0.000 A 
ATOM     18  C   UNL     1      -0.442   9.899  23.180  0.00  0.00    +0.000 A 
ATOM     19  C   UNL     1      -1.011  11.065  22.668  0.00  0.00    +0.000 A 
ATOM     20  C   UNL     1      -0.776  11.428  21.341  0.00  0.00    +0.000 A 
ATOM     21  C   UNL     1       0.024  10.617  20.524  0.00  0.00    +0.000 A 
ATOM     22  C   UNL     1       0.246  10.998  19.109  0.00  0.00    +0.000 A 
ATOM     23  O   UNL     1      -0.209  12.039  18.649  0.00  0.00    +0.000 OA
ATOM     24  O   UNL     1       0.966  10.120  18.347  0.00  0.00    +0.000 OA
ENDBRANCH  13  14
ENDBRANCH   1  13
TORSDOF 6
ENDMDL
