MODEL 1
REMARK VINA RESULT:      -6.6      0.000      0.000
REMARK  Name = 
REMARK  21 active torsions:
REMARK  status: ('A' for Active; 'I' for Inactive)
REMARK    1  A    between atoms: C_1  and  C_2
REMARK    2  A    between atoms: C_2  and  C_3
REMARK    3  A    between atoms: C_3  and  C_4
REMARK    4  A    between atoms: C_4  and  C_5
REMARK    5  A    between atoms: C_5  and  C_6
REMARK    6  A    between atoms: C_6  and  C_7
REMARK    7  A    between atoms: C_7  and  C_8
REMARK    8  A    between atoms: C_8  and  C_9
REMARK    9  A    between atoms: C_9  and  C_10
REMARK   10  A    between atoms: C_10  and  C_11
REMARK   11  A    between atoms: C_11  and  C_12
REMARK   12  A    between atoms: C_12  and  O_13
REMARK   13  A    between atoms: O_13  and  S_14
REMARK   14  A    between atoms: S_14  and  N_17
REMARK   15  A    between atoms: N_20  and  C_21
REMARK   16  A    between atoms: C_22  and  C_23
REMARK   17  A    between atoms: C_23  and  C_24
REMARK   18  A    between atoms: C_23  and  C_25
REMARK   19  A    between atoms: C_29  and  C_30
REMARK   20  A    between atoms: C_30  and  C_31
REMARK   21  A    between atoms: C_30  and  C_32
REMARK                            x       y       z     vdW  Elec       q    Type
REMARK                         _______ _______ _______ _____ _____    ______ ____
ROOT
ATOM      1  N   UNL     1       5.637   5.423  17.792  0.00  0.00    +0.000 N 
ATOM      2  C   UNL     1       4.779   4.985  16.771  0.00  0.00    +0.000 C 
ATOM      3  O   UNL     1       5.239   4.750  15.656  0.00  0.00    +0.000 OA
ATOM      4  N   UNL     1       3.434   4.836  17.066  0.00  0.00    +0.000 N 
ATOM      5  H   UNL     1       5.402   5.124  18.739  0.00  0.00    +0.000 HD
ATOM      6  H   UNL     1       2.837   4.380  16.375  0.00  0.00    +0.000 HD
ENDROOT
BRANCH   4   7
ATOM      7  C   UNL     1       2.842   5.161  18.308  0.00  0.00    +0.000 A 
ATOM      8  C   UNL     1       2.485   6.507  18.593  0.00  0.00    +0.000 A 
ATOM      9  C   UNL     1       2.060   6.818  19.910  0.00  0.00    +0.000 A 
ATOM     10  C   UNL     1       1.912   5.849  20.891  0.00  0.00    +0.000 A 
ATOM     11  C   UNL     1       2.215   4.539  20.585  0.00  0.00    +0.000 A 
ATOM     12  C   UNL     1       2.681   4.158  19.306  0.00  0.00    +0.000 A 
BRANCH  12  13
ATOM     13  C   UNL     1       3.060   2.683  19.169  0.00  0.00    +0.000 C 
ATOM     14  C   UNL     1       4.239   2.387  20.112  0.00  0.00    +0.000 C 
ATOM     15  C   UNL     1       1.937   1.697  19.525  0.00  0.00    +0.000 C 
ENDBRANCH  12  13
BRANCH   8  16
ATOM     16  C   UNL     1       2.490   7.694  17.624  0.00  0.00    +0.000 C 
ATOM     17  C   UNL     1       1.490   8.789  18.000  0.00  0.00    +0.000 C 
ATOM     18  C   UNL     1       3.847   8.349  17.360  0.00  0.00    +0.000 C 
ENDBRANCH   8  16
ENDBRANCH   4   7
BRANCH   1  19
ATOM     19  S   UNL     1       7.266   5.543  17.475  0.00  0.00    +0.000 S 
ATOM     20  O   UNL     1       7.404   5.799  16.033  0.00  0.00    +0.000 OA
ATOM     21  O   UNL     1       7.911   4.416  18.065  0.00  0.00    +0.000 OA
BRANCH  19  22
ATOM     22  O   UNL     1       7.792   6.868  18.265  0.00  0.00    +0.000 OA
BRANCH  22  23
ATOM     23  C   UNL     1       7.359   8.107  17.719  0.00  0.00    +0.000 C 
BRANCH  23  24
ATOM     24  C   UNL     1       8.475   9.143  17.708  0.00  0.00    +0.000 C 
BRANCH  24  25
ATOM     25  C   UNL     1       8.927   9.484  19.130  0.00  0.00    +0.000 C 
BRANCH  25  26
ATOM     26  C   UNL     1       9.552  10.874  19.218  0.00  0.00    +0.000 C 
BRANCH  26  27
ATOM     27  C   UNL     1      10.207  11.273  17.898  0.00  0.00    +0.000 C 
BRANCH  27  28
ATOM     28  C   UNL     1      10.884  12.631  18.009  0.00  0.00    +0.000 C 
BRANCH  28  29
ATOM     29  C   UNL     1      11.544  12.793  19.373  0.00  0.00    +0.000 C 
BRANCH  29  30
ATOM     30  C   UNL     1      11.340  14.207  19.902  0.00  0.00    +0.000 C 
BRANCH  30  31
ATOM     31  C   UNL     1      10.453  14.195  21.141  0.00  0.00    +0.000 C 
BRANCH  31  32
ATOM     32  C   UNL     1       8.985  14.302  20.746  0.00  0.00    +0.000 C 
BRANCH  32  34
ATOM     33  C   UNL     1       8.984  12.520  22.504  0.00  0.00    +0.000 C 
ATOM     34  C   UNL     1       8.120  13.388  21.607  0.00  0.00    +0.000 C 
ENDBRANCH  32  34
ENDBRANCH  31  32
ENDBRANCH  30  31
ENDBRANCH  29  30
ENDBRANCH  28  29
ENDBRANCH  27  28
ENDBRANCH  26  27
ENDBRANCH  25  26
ENDBRANCH  24  25
ENDBRANCH  23  24
ENDBRANCH  22  23
ENDBRANCH  19  22
ENDBRANCH   1  19
TORSDOF 16
ENDMDL
MODEL 2
REMARK VINA RESULT:      -6.6      6.148      9.745
REMARK  Name = 
REMARK  21 active torsions:
REMARK  status: ('A' for Active; 'I' for Inactive)
REMARK    1  A    between atoms: C_1  and  C_2
REMARK    2  A    between atoms: C_2  and  C_3
REMARK    3  A    between atoms: C_3  and  C_4
REMARK    4  A    between atoms: C_4  and  C_5
REMARK    5  A    between atoms: C_5  and  C_6
REMARK    6  A    between atoms: C_6  and  C_7
REMARK    7  A    between atoms: C_7  and  C_8
REMARK    8  A    between atoms: C_8  and  C_9
REMARK    9  A    between atoms: C_9  and  C_10
REMARK   10  A    between atoms: C_10  and  C_11
REMARK   11  A    between atoms: C_11  and  C_12
REMARK   12  A    between atoms: C_12  and  O_13
REMARK   13  A    between atoms: O_13  and  S_14
REMARK   14  A    between atoms: S_14  and  N_17
REMARK   15  A    between atoms: N_20  and  C_21
REMARK   16  A    between atoms: C_22  and  C_23
REMARK   17  A    between atoms: C_23  and  C_24
REMARK   18  A    between atoms: C_23  and  C_25
REMARK   19  A    between atoms: C_29  and  C_30
REMARK   20  A    between atoms: C_30  and  C_31
REMARK   21  A    between atoms: C_30  and  C_32
REMARK                            x       y       z     vdW  Elec       q    Type
REMARK                         _______ _______ _______ _____ _____    ______ ____
ROOT
ATOM      1  N   UNL     1      -0.810  10.363  20.680  0.00  0.00    +0.000 N 
ATOM      2  C   UNL     1      -0.247  11.518  20.117  0.00  0.00    +0.000 C 
ATOM      3  O   UNL     1       0.954  11.735  20.258  0.00  0.00    +0.000 OA
ATOM      4  N   UNL     1      -1.080  12.378  19.418  0.00  0.00    +0.000 N 
ATOM      5  H   UNL     1      -1.583   9.940  20.166  0.00  0.00    +0.000 HD
ATOM      6  H   UNL     1      -0.652  13.135  18.885  0.00  0.00    +0.000 HD
ENDROOT
BRANCH   4   7
ATOM      7  C   UNL     1      -2.477  12.213  19.287  0.00  0.00    +0.000 A 
ATOM      8  C   UNL     1      -3.019  11.675  18.089  0.00  0.00    +0.000 A 
ATOM      9  C   UNL     1      -4.428  11.690  17.929  0.00  0.00    +0.000 A 
ATOM     10  C   UNL     1      -5.283  12.139  18.925  0.00  0.00    +0.000 A 
ATOM     11  C   UNL     1      -4.745  12.613  20.102  0.00  0.00    +0.000 A 
ATOM     12  C   UNL     1      -3.349  12.664  20.319  0.00  0.00    +0.000 A 
BRANCH  12  13
ATOM     13  C   UNL     1      -2.923  13.307  21.639  0.00  0.00    +0.000 C 
ATOM     14  C   UNL     1      -3.858  14.491  21.936  0.00  0.00    +0.000 C 
ATOM     15  C   UNL     1      -2.981  12.370  22.856  0.00  0.00    +0.000 C 
ENDBRANCH  12  13
BRANCH   8  16
ATOM     16  C   UNL     1      -2.249  11.049  16.920  0.00  0.00    +0.000 C 
ATOM     17  C   UNL     1      -1.645   9.684  17.253  0.00  0.00    +0.000 C 
ATOM     18  C   UNL     1      -3.004  10.934  15.594  0.00  0.00    +0.000 C 
ENDBRANCH   8  16
ENDBRANCH   4   7
BRANCH   1  19
ATOM     19  S   UNL     1       0.187   9.286  21.465  0.00  0.00    +0.000 S 
ATOM     20  O   UNL     1      -0.664   8.187  21.946  0.00  0.00    +0.000 OA
ATOM     21  O   UNL     1       0.991  10.023  22.384  0.00  0.00    +0.000 OA
BRANCH  19  22
ATOM     22  O   UNL     1       1.187   8.676  20.332  0.00  0.00    +0.000 OA
BRANCH  22  23
ATOM     23  C   UNL     1       1.839   7.465  20.692  0.00  0.00    +0.000 C 
BRANCH  23  24
ATOM     24  C   UNL     1       2.309   6.688  19.471  0.00  0.00    +0.000 C 
BRANCH  24  25
ATOM     25  C   UNL     1       2.310   7.569  18.219  0.00  0.00    +0.000 C 
BRANCH  25  26
ATOM     26  C   UNL     1       3.686   7.635  17.562  0.00  0.00    +0.000 C 
BRANCH  26  27
ATOM     27  C   UNL     1       4.204   6.242  17.217  0.00  0.00    +0.000 C 
BRANCH  27  28
ATOM     28  C   UNL     1       5.567   5.992  17.845  0.00  0.00    +0.000 C 
BRANCH  28  29
ATOM     29  C   UNL     1       5.449   5.035  19.025  0.00  0.00    +0.000 C 
BRANCH  29  30
ATOM     30  C   UNL     1       4.839   3.711  18.581  0.00  0.00    +0.000 C 
BRANCH  30  31
ATOM     31  C   UNL     1       4.009   3.099  19.703  0.00  0.00    +0.000 C 
BRANCH  31  32
ATOM     32  C   UNL     1       2.892   2.236  19.128  0.00  0.00    +0.000 C 
BRANCH  32  34
ATOM     33  C   UNL     1       0.832   3.377  19.974  0.00  0.00    +0.000 C 
ATOM     34  C   UNL     1       1.684   3.086  18.753  0.00  0.00    +0.000 C 
ENDBRANCH  32  34
ENDBRANCH  31  32
ENDBRANCH  30  31
ENDBRANCH  29  30
ENDBRANCH  28  29
ENDBRANCH  27  28
ENDBRANCH  26  27
ENDBRANCH  25  26
ENDBRANCH  24  25
ENDBRANCH  23  24
ENDBRANCH  22  23
ENDBRANCH  19  22
ENDBRANCH   1  19
TORSDOF 16
ENDMDL
MODEL 3
REMARK VINA RESULT:      -6.5      1.484      3.613
REMARK  Name = 
REMARK  21 active torsions:
REMARK  status: ('A' for Active; 'I' for Inactive)
REMARK    1  A    between atoms: C_1  and  C_2
REMARK    2  A    between atoms: C_2  and  C_3
REMARK    3  A    between atoms: C_3  and  C_4
REMARK    4  A    between atoms: C_4  and  C_5
REMARK    5  A    between atoms: C_5  and  C_6
REMARK    6  A    between atoms: C_6  and  C_7
REMARK    7  A    between atoms: C_7  and  C_8
REMARK    8  A    between atoms: C_8  and  C_9
REMARK    9  A    between atoms: C_9  and  C_10
REMARK   10  A    between atoms: C_10  and  C_11
REMARK   11  A    between atoms: C_11  and  C_12
REMARK   12  A    between atoms: C_12  and  O_13
REMARK   13  A    between atoms: O_13  and  S_14
REMARK   14  A    between atoms: S_14  and  N_17
REMARK   15  A    between atoms: N_20  and  C_21
REMARK   16  A    between atoms: C_22  and  C_23
REMARK   17  A    between atoms: C_23  and  C_24
REMARK   18  A    between atoms: C_23  and  C_25
REMARK   19  A    between atoms: C_29  and  C_30
REMARK   20  A    between atoms: C_30  and  C_31
REMARK   21  A    between atoms: C_30  and  C_32
REMARK                            x       y       z     vdW  Elec       q    Type
REMARK                         _______ _______ _______ _____ _____    ______ ____
ROOT
ATOM      1  N   UNL     1       5.972   5.207  17.840  0.00  0.00    +0.000 N 
ATOM      2  C   UNL     1       5.868   5.345  19.233  0.00  0.00    +0.000 C 
ATOM      3  O   UNL     1       6.878   5.572  19.895  0.00  0.00    +0.000 OA
ATOM      4  N   UNL     1       4.615   5.215  19.811  0.00  0.00    +0.000 N 
ATOM      5  H   UNL     1       5.176   5.533  17.293  0.00  0.00    +0.000 HD
ATOM      6  H   UNL     1       4.512   5.460  20.796  0.00  0.00    +0.000 HD
ENDROOT
BRANCH   4   7
ATOM      7  C   UNL     1       3.436   4.884  19.107  0.00  0.00    +0.000 A 
ATOM      8  C   UNL     1       3.192   3.537  18.725  0.00  0.00    +0.000 A 
ATOM      9  C   UNL     1       2.091   3.275  17.871  0.00  0.00    +0.000 A 
ATOM     10  C   UNL     1       1.213   4.270  17.466  0.00  0.00    +0.000 A 
ATOM     11  C   UNL     1       1.433   5.564  17.885  0.00  0.00    +0.000 A 
ATOM     12  C   UNL     1       2.532   5.908  18.705  0.00  0.00    +0.000 A 
BRANCH  12  13
ATOM     13  C   UNL     1       2.680   7.403  18.996  0.00  0.00    +0.000 C 
ATOM     14  C   UNL     1       2.212   8.193  17.762  0.00  0.00    +0.000 C 
ATOM     15  C   UNL     1       1.858   7.907  20.193  0.00  0.00    +0.000 C 
ENDBRANCH  12  13
BRANCH   8  16
ATOM     16  C   UNL     1       3.987   2.295  19.144  0.00  0.00    +0.000 C 
ATOM     17  C   UNL     1       3.835   1.948  20.626  0.00  0.00    +0.000 C 
ATOM     18  C   UNL     1       3.746   1.026  18.323  0.00  0.00    +0.000 C 
ENDBRANCH   8  16
ENDBRANCH   4   7
BRANCH   1  19
ATOM     19  S   UNL     1       7.457   5.425  17.122  0.00  0.00    +0.000 S 
ATOM     20  O   UNL     1       7.205   5.787  15.718  0.00  0.00    +0.000 OA
ATOM     21  O   UNL     1       8.266   4.292  17.434  0.00  0.00    +0.000 OA
BRANCH  19  22
ATOM     22  O   UNL     1       8.135   6.716  17.851  0.00  0.00    +0.000 OA
BRANCH  22  23
ATOM     23  C   UNL     1       7.488   7.957  17.602  0.00  0.00    +0.000 C 
BRANCH  23  24
ATOM     24  C   UNL     1       8.486   9.096  17.447  0.00  0.00    +0.000 C 
BRANCH  24  25
ATOM     25  C   UNL     1       8.757   9.782  18.788  0.00  0.00    +0.000 C 
BRANCH  25  26
ATOM     26  C   UNL     1       9.620  11.032  18.633  0.00  0.00    +0.000 C 
BRANCH  26  27
ATOM     27  C   UNL     1      10.447  11.295  19.889  0.00  0.00    +0.000 C 
BRANCH  27  28
ATOM     28  C   UNL     1      11.801  11.893  19.539  0.00  0.00    +0.000 C 
BRANCH  28  29
ATOM     29  C   UNL     1      11.763  13.412  19.647  0.00  0.00    +0.000 C 
BRANCH  29  30
ATOM     30  C   UNL     1      10.672  13.853  20.615  0.00  0.00    +0.000 C 
BRANCH  30  31
ATOM     31  C   UNL     1       9.659  14.748  19.912  0.00  0.00    +0.000 C 
BRANCH  31  32
ATOM     32  C   UNL     1      10.117  15.057  18.492  0.00  0.00    +0.000 C 
BRANCH  32  34
ATOM     33  C   UNL     1       7.698  15.580  18.113  0.00  0.00    +0.000 C 
ATOM     34  C   UNL     1       9.126  15.978  17.788  0.00  0.00    +0.000 C 
ENDBRANCH  32  34
ENDBRANCH  31  32
ENDBRANCH  30  31
ENDBRANCH  29  30
ENDBRANCH  28  29
ENDBRANCH  27  28
ENDBRANCH  26  27
ENDBRANCH  25  26
ENDBRANCH  24  25
ENDBRANCH  23  24
ENDBRANCH  22  23
ENDBRANCH  19  22
ENDBRANCH   1  19
TORSDOF 16
ENDMDL
MODEL 4
REMARK VINA RESULT:      -6.5      0.881      3.093
REMARK  Name = 
REMARK  21 active torsions:
REMARK  status: ('A' for Active; 'I' for Inactive)
REMARK    1  A    between atoms: C_1  and  C_2
REMARK    2  A    between atoms: C_2  and  C_3
REMARK    3  A    between atoms: C_3  and  C_4
REMARK    4  A    between atoms: C_4  and  C_5
REMARK    5  A    between atoms: C_5  and  C_6
REMARK    6  A    between atoms: C_6  and  C_7
REMARK    7  A    between atoms: C_7  and  C_8
REMARK    8  A    between atoms: C_8  and  C_9
REMARK    9  A    between atoms: C_9  and  C_10
REMARK   10  A    between atoms: C_10  and  C_11
REMARK   11  A    between atoms: C_11  and  C_12
REMARK   12  A    between atoms: C_12  and  O_13
REMARK   13  A    between atoms: O_13  and  S_14
REMARK   14  A    between atoms: S_14  and  N_17
REMARK   15  A    between atoms: N_20  and  C_21
REMARK   16  A    between atoms: C_22  and  C_23
REMARK   17  A    between atoms: C_23  and  C_24
REMARK   18  A    between atoms: C_23  and  C_25
REMARK   19  A    between atoms: C_29  and  C_30
REMARK   20  A    between atoms: C_30  and  C_31
REMARK   21  A    between atoms: C_30  and  C_32
REMARK                            x       y       z     vdW  Elec       q    Type
REMARK                         _______ _______ _______ _____ _____    ______ ____
ROOT
ATOM      1  N   UNL     1       5.686   5.168  17.780  0.00  0.00    +0.000 N 
ATOM      2  C   UNL     1       4.773   4.588  16.885  0.00  0.00    +0.000 C 
ATOM      3  O   UNL     1       5.161   4.224  15.778  0.00  0.00    +0.000 OA
ATOM      4  N   UNL     1       3.455   4.451  17.292  0.00  0.00    +0.000 N 
ATOM      5  H   UNL     1       5.525   4.985  18.771  0.00  0.00    +0.000 HD
ATOM      6  H   UNL     1       2.826   3.900  16.707  0.00  0.00    +0.000 HD
ENDROOT
BRANCH   4   7
ATOM      7  C   UNL     1       2.941   4.918  18.523  0.00  0.00    +0.000 A 
ATOM      8  C   UNL     1       2.758   4.013  19.604  0.00  0.00    +0.000 A 
ATOM      9  C   UNL     1       2.079   4.482  20.757  0.00  0.00    +0.000 A 
ATOM     10  C   UNL     1       1.662   5.798  20.889  0.00  0.00    +0.000 A 
ATOM     11  C   UNL     1       1.890   6.677  19.852  0.00  0.00    +0.000 A 
ATOM     12  C   UNL     1       2.527   6.274  18.656  0.00  0.00    +0.000 A 
BRANCH  12  13
ATOM     13  C   UNL     1       2.613   7.351  17.574  0.00  0.00    +0.000 C 
ATOM     14  C   UNL     1       1.685   8.515  17.962  0.00  0.00    +0.000 C 
ATOM     15  C   UNL     1       4.016   7.940  17.367  0.00  0.00    +0.000 C 
ENDBRANCH  12  13
BRANCH   8  16
ATOM     16  C   UNL     1       3.230   2.557  19.686  0.00  0.00    +0.000 C 
ATOM     17  C   UNL     1       2.852   1.726  18.458  0.00  0.00    +0.000 C 
ATOM     18  C   UNL     1       4.716   2.340  19.977  0.00  0.00    +0.000 C 
ENDBRANCH   8  16
ENDBRANCH   4   7
BRANCH   1  19
ATOM     19  S   UNL     1       7.285   5.278  17.335  0.00  0.00    +0.000 S 
ATOM     20  O   UNL     1       7.309   5.601  15.900  0.00  0.00    +0.000 OA
ATOM     21  O   UNL     1       7.956   4.115  17.817  0.00  0.00    +0.000 OA
BRANCH  19  22
ATOM     22  O   UNL     1       7.899   6.557  18.139  0.00  0.00    +0.000 OA
BRANCH  22  23
ATOM     23  C   UNL     1       7.270   7.801  17.862  0.00  0.00    +0.000 C 
BRANCH  23  24
ATOM     24  C   UNL     1       8.286   8.901  17.588  0.00  0.00    +0.000 C 
BRANCH  24  25
ATOM     25  C   UNL     1       8.864   9.458  18.891  0.00  0.00    +0.000 C 
BRANCH  25  26
ATOM     26  C   UNL     1       9.222  10.938  18.777  0.00  0.00    +0.000 C 
BRANCH  26  27
ATOM     27  C   UNL     1      10.716  11.165  18.991  0.00  0.00    +0.000 C 
BRANCH  27  28
ATOM     28  C   UNL     1      11.364  11.760  17.750  0.00  0.00    +0.000 C 
BRANCH  28  29
ATOM     29  C   UNL     1      10.708  13.086  17.382  0.00  0.00    +0.000 C 
BRANCH  29  30
ATOM     30  C   UNL     1      11.090  14.168  18.385  0.00  0.00    +0.000 C 
BRANCH  30  31
ATOM     31  C   UNL     1       9.882  15.029  18.732  0.00  0.00    +0.000 C 
BRANCH  31  32
ATOM     32  C   UNL     1       9.191  14.498  19.982  0.00  0.00    +0.000 C 
BRANCH  32  34
ATOM     33  C   UNL     1      10.300  15.381  22.045  0.00  0.00    +0.000 C 
ATOM     34  C   UNL     1      10.204  14.210  21.084  0.00  0.00    +0.000 C 
ENDBRANCH  32  34
ENDBRANCH  31  32
ENDBRANCH  30  31
ENDBRANCH  29  30
ENDBRANCH  28  29
ENDBRANCH  27  28
ENDBRANCH  26  27
ENDBRANCH  25  26
ENDBRANCH  24  25
ENDBRANCH  23  24
ENDBRANCH  22  23
ENDBRANCH  19  22
ENDBRANCH   1  19
TORSDOF 16
ENDMDL
MODEL 5
REMARK VINA RESULT:      -6.5      1.165      3.402
REMARK  Name = 
REMARK  21 active torsions:
REMARK  status: ('A' for Active; 'I' for Inactive)
REMARK    1  A    between atoms: C_1  and  C_2
REMARK    2  A    between atoms: C_2  and  C_3
REMARK    3  A    between atoms: C_3  and  C_4
REMARK    4  A    between atoms: C_4  and  C_5
REMARK    5  A    between atoms: C_5  and  C_6
REMARK    6  A    between atoms: C_6  and  C_7
REMARK    7  A    between atoms: C_7  and  C_8
REMARK    8  A    between atoms: C_8  and  C_9
REMARK    9  A    between atoms: C_9  and  C_10
REMARK   10  A    between atoms: C_10  and  C_11
REMARK   11  A    between atoms: C_11  and  C_12
REMARK   12  A    between atoms: C_12  and  O_13
REMARK   13  A    between atoms: O_13  and  S_14
REMARK   14  A    between atoms: S_14  and  N_17
REMARK   15  A    between atoms: N_20  and  C_21
REMARK   16  A    between atoms: C_22  and  C_23
REMARK   17  A    between atoms: C_23  and  C_24
REMARK   18  A    between atoms: C_23  and  C_25
REMARK   19  A    between atoms: C_29  and  C_30
REMARK   20  A    between atoms: C_30  and  C_31
REMARK   21  A    between atoms: C_30  and  C_32
REMARK                            x       y       z     vdW  Elec       q    Type
REMARK                         _______ _______ _______ _____ _____    ______ ____
ROOT
ATOM      1  N   UNL     1       5.801   5.464  17.771  0.00  0.00    +0.000 N 
ATOM      2  C   UNL     1       4.849   5.142  16.791  0.00  0.00    +0.000 C 
ATOM      3  O   UNL     1       5.191   5.085  15.612  0.00  0.00    +0.000 OA
ATOM      4  N   UNL     1       3.546   4.901  17.198  0.00  0.00    +0.000 N 
ATOM      5  H   UNL     1       5.676   5.024  18.683  0.00  0.00    +0.000 HD
ATOM      6  H   UNL     1       2.890   4.525  16.514  0.00  0.00    +0.000 HD
ENDROOT
BRANCH   4   7
ATOM      7  C   UNL     1       3.084   5.023  18.528  0.00  0.00    +0.000 A 
ATOM      8  C   UNL     1       3.186   3.920  19.419  0.00  0.00    +0.000 A 
ATOM      9  C   UNL     1       2.554   4.024  20.684  0.00  0.00    +0.000 A 
ATOM     10  C   UNL     1       1.914   5.183  21.100  0.00  0.00    +0.000 A 
ATOM     11  C   UNL     1       1.866   6.262  20.245  0.00  0.00    +0.000 A 
ATOM     12  C   UNL     1       2.440   6.220  18.954  0.00  0.00    +0.000 A 
BRANCH  12  13
ATOM     13  C   UNL     1       2.211   7.469  18.102  0.00  0.00    +0.000 C 
ATOM     14  C   UNL     1       1.542   8.545  18.975  0.00  0.00    +0.000 C 
ATOM     15  C   UNL     1       3.490   8.091  17.521  0.00  0.00    +0.000 C 
ENDBRANCH  12  13
BRANCH   8  16
ATOM     16  C   UNL     1       3.927   2.599  19.180  0.00  0.00    +0.000 C 
ATOM     17  C   UNL     1       4.472   1.969  20.462  0.00  0.00    +0.000 C 
ATOM     18  C   UNL     1       3.165   1.526  18.400  0.00  0.00    +0.000 C 
ENDBRANCH   8  16
ENDBRANCH   4   7
BRANCH   1  19
ATOM     19  S   UNL     1       7.383   5.690  17.309  0.00  0.00    +0.000 S 
ATOM     20  O   UNL     1       7.355   6.324  15.982  0.00  0.00    +0.000 OA
ATOM     21  O   UNL     1       8.075   4.457  17.497  0.00  0.00    +0.000 OA
BRANCH  19  22
ATOM     22  O   UNL     1       8.019   6.764  18.357  0.00  0.00    +0.000 OA
BRANCH  22  23
ATOM     23  C   UNL     1       8.026   8.112  17.907  0.00  0.00    +0.000 C 
BRANCH  23  24
ATOM     24  C   UNL     1       8.910   8.996  18.776  0.00  0.00    +0.000 C 
BRANCH  24  25
ATOM     25  C   UNL     1       8.722  10.475  18.435  0.00  0.00    +0.000 C 
BRANCH  25  26
ATOM     26  C   UNL     1      10.035  11.149  18.043  0.00  0.00    +0.000 C 
BRANCH  26  27
ATOM     27  C   UNL     1      10.884  11.466  19.271  0.00  0.00    +0.000 C 
BRANCH  27  28
ATOM     28  C   UNL     1      10.026  11.550  20.525  0.00  0.00    +0.000 C 
BRANCH  28  29
ATOM     29  C   UNL     1       9.880  12.996  20.982  0.00  0.00    +0.000 C 
BRANCH  29  30
ATOM     30  C   UNL     1       8.812  13.110  22.063  0.00  0.00    +0.000 C 
BRANCH  30  31
ATOM     31  C   UNL     1       8.291  11.732  22.452  0.00  0.00    +0.000 C 
BRANCH  31  32
ATOM     32  C   UNL     1       7.017  11.859  23.279  0.00  0.00    +0.000 C 
BRANCH  32  34
ATOM     33  C   UNL     1       6.006  13.725  24.606  0.00  0.00    +0.000 C 
ATOM     34  C   UNL     1       7.216  12.823  24.443  0.00  0.00    +0.000 C 
ENDBRANCH  32  34
ENDBRANCH  31  32
ENDBRANCH  30  31
ENDBRANCH  29  30
ENDBRANCH  28  29
ENDBRANCH  27  28
ENDBRANCH  26  27
ENDBRANCH  25  26
ENDBRANCH  24  25
ENDBRANCH  23  24
ENDBRANCH  22  23
ENDBRANCH  19  22
ENDBRANCH   1  19
TORSDOF 16
ENDMDL
MODEL 6
REMARK VINA RESULT:      -6.5      1.434      3.520
REMARK  Name = 
REMARK  21 active torsions:
REMARK  status: ('A' for Active; 'I' for Inactive)
REMARK    1  A    between atoms: C_1  and  C_2
REMARK    2  A    between atoms: C_2  and  C_3
REMARK    3  A    between atoms: C_3  and  C_4
REMARK    4  A    between atoms: C_4  and  C_5
REMARK    5  A    between atoms: C_5  and  C_6
REMARK    6  A    between atoms: C_6  and  C_7
REMARK    7  A    between atoms: C_7  and  C_8
REMARK    8  A    between atoms: C_8  and  C_9
REMARK    9  A    between atoms: C_9  and  C_10
REMARK   10  A    between atoms: C_10  and  C_11
REMARK   11  A    between atoms: C_11  and  C_12
REMARK   12  A    between atoms: C_12  and  O_13
REMARK   13  A    between atoms: O_13  and  S_14
REMARK   14  A    between atoms: S_14  and  N_17
REMARK   15  A    between atoms: N_20  and  C_21
REMARK   16  A    between atoms: C_22  and  C_23
REMARK   17  A    between atoms: C_23  and  C_24
REMARK   18  A    between atoms: C_23  and  C_25
REMARK   19  A    between atoms: C_29  and  C_30
REMARK   20  A    between atoms: C_30  and  C_31
REMARK   21  A    between atoms: C_30  and  C_32
REMARK                            x       y       z     vdW  Elec       q    Type
REMARK                         _______ _______ _______ _____ _____    ______ ____
ROOT
ATOM      1  N   UNL     1       5.868   5.104  17.977  0.00  0.00    +0.000 N 
ATOM      2  C   UNL     1       5.730   5.210  19.370  0.00  0.00    +0.000 C 
ATOM      3  O   UNL     1       6.727   5.389  20.064  0.00  0.00    +0.000 OA
ATOM      4  N   UNL     1       4.458   5.105  19.910  0.00  0.00    +0.000 N 
ATOM      5  H   UNL     1       5.098   5.468  17.417  0.00  0.00    +0.000 HD
ATOM      6  H   UNL     1       4.335   5.328  20.898  0.00  0.00    +0.000 HD
ENDROOT
BRANCH   4   7
ATOM      7  C   UNL     1       3.289   4.828  19.166  0.00  0.00    +0.000 A 
ATOM      8  C   UNL     1       2.724   3.524  19.191  0.00  0.00    +0.000 A 
ATOM      9  C   UNL     1       1.660   3.241  18.297  0.00  0.00    +0.000 A 
ATOM     10  C   UNL     1       1.112   4.208  17.466  0.00  0.00    +0.000 A 
ATOM     11  C   UNL     1       1.637   5.482  17.489  0.00  0.00    +0.000 A 
ATOM     12  C   UNL     1       2.723   5.828  18.325  0.00  0.00    +0.000 A 
BRANCH  12  13
ATOM     13  C   UNL     1       3.242   7.257  18.153  0.00  0.00    +0.000 C 
ATOM     14  C   UNL     1       3.956   7.362  16.795  0.00  0.00    +0.000 C 
ATOM     15  C   UNL     1       2.154   8.341  18.176  0.00  0.00    +0.000 C 
ENDBRANCH  12  13
BRANCH   8  16
ATOM     16  C   UNL     1       3.125   2.355  20.098  0.00  0.00    +0.000 C 
ATOM     17  C   UNL     1       4.610   2.000  20.010  0.00  0.00    +0.000 C 
ATOM     18  C   UNL     1       2.746   2.483  21.575  0.00  0.00    +0.000 C 
ENDBRANCH   8  16
ENDBRANCH   4   7
BRANCH   1  19
ATOM     19  S   UNL     1       7.378   5.294  17.305  0.00  0.00    +0.000 S 
ATOM     20  O   UNL     1       7.177   5.640  15.889  0.00  0.00    +0.000 OA
ATOM     21  O   UNL     1       8.162   4.156  17.658  0.00  0.00    +0.000 OA
BRANCH  19  22
ATOM     22  O   UNL     1       8.049   6.586  18.038  0.00  0.00    +0.000 OA
BRANCH  22  23
ATOM     23  C   UNL     1       7.451   7.836  17.721  0.00  0.00    +0.000 C 
BRANCH  23  24
ATOM     24  C   UNL     1       8.494   8.915  17.466  0.00  0.00    +0.000 C 
BRANCH  24  25
ATOM     25  C   UNL     1       8.647   9.836  18.679  0.00  0.00    +0.000 C 
BRANCH  25  26
ATOM     26  C   UNL     1       9.176  11.215  18.292  0.00  0.00    +0.000 C 
BRANCH  26  27
ATOM     27  C   UNL     1      10.644  11.375  18.676  0.00  0.00    +0.000 C 
BRANCH  27  28
ATOM     28  C   UNL     1      10.796  11.649  20.165  0.00  0.00    +0.000 C 
BRANCH  28  29
ATOM     29  C   UNL     1      10.775  13.147  20.442  0.00  0.00    +0.000 C 
BRANCH  29  30
ATOM     30  C   UNL     1       9.829  13.466  21.593  0.00  0.00    +0.000 C 
BRANCH  30  31
ATOM     31  C   UNL     1       8.552  12.643  21.483  0.00  0.00    +0.000 C 
BRANCH  31  32
ATOM     32  C   UNL     1       8.356  11.795  22.733  0.00  0.00    +0.000 C 
BRANCH  32  34
ATOM     33  C   UNL     1       6.956  11.477  24.784  0.00  0.00    +0.000 C 
ATOM     34  C   UNL     1       7.029  12.119  23.410  0.00  0.00    +0.000 C 
ENDBRANCH  32  34
ENDBRANCH  31  32
ENDBRANCH  30  31
ENDBRANCH  29  30
ENDBRANCH  28  29
ENDBRANCH  27  28
ENDBRANCH  26  27
ENDBRANCH  25  26
ENDBRANCH  24  25
ENDBRANCH  23  24
ENDBRANCH  22  23
ENDBRANCH  19  22
ENDBRANCH   1  19
TORSDOF 16
ENDMDL
MODEL 7
REMARK VINA RESULT:      -6.5      6.580     10.073
REMARK  Name = 
REMARK  21 active torsions:
REMARK  status: ('A' for Active; 'I' for Inactive)
REMARK    1  A    between atoms: C_1  and  C_2
REMARK    2  A    between atoms: C_2  and  C_3
REMARK    3  A    between atoms: C_3  and  C_4
REMARK    4  A    between atoms: C_4  and  C_5
REMARK    5  A    between atoms: C_5  and  C_6
REMARK    6  A    between atoms: C_6  and  C_7
REMARK    7  A    between atoms: C_7  and  C_8
REMARK    8  A    between atoms: C_8  and  C_9
REMARK    9  A    between atoms: C_9  and  C_10
REMARK   10  A    between atoms: C_10  and  C_11
REMARK   11  A    between atoms: C_11  and  C_12
REMARK   12  A    between atoms: C_12  and  O_13
REMARK   13  A    between atoms: O_13  and  S_14
REMARK   14  A    between atoms: S_14  and  N_17
REMARK   15  A    between atoms: N_20  and  C_21
REMARK   16  A    between atoms: C_22  and  C_23
REMARK   17  A    between atoms: C_23  and  C_24
REMARK   18  A    between atoms: C_23  and  C_25
REMARK   19  A    between atoms: C_29  and  C_30
REMARK   20  A    between atoms: C_30  and  C_31
REMARK   21  A    between atoms: C_30  and  C_32
REMARK                            x       y       z     vdW  Elec       q    Type
REMARK                         _______ _______ _______ _____ _____    ______ ____
ROOT
ATOM      1  N   UNL     1      -0.761  10.597  20.712  0.00  0.00    +0.000 N 
ATOM      2  C   UNL     1      -0.245  11.778  20.158  0.00  0.00    +0.000 C 
ATOM      3  O   UNL     1       0.969  11.971  20.169  0.00  0.00    +0.000 OA
ATOM      4  N   UNL     1      -1.136  12.691  19.616  0.00  0.00    +0.000 N 
ATOM      5  H   UNL     1      -1.597  10.217  20.267  0.00  0.00    +0.000 HD
ATOM      6  H   UNL     1      -0.758  13.475  19.084  0.00  0.00    +0.000 HD
ENDROOT
BRANCH   4   7
ATOM      7  C   UNL     1      -2.542  12.553  19.642  0.00  0.00    +0.000 A 
ATOM      8  C   UNL     1      -3.281  13.021  20.762  0.00  0.00    +0.000 A 
ATOM      9  C   UNL     1      -4.662  12.706  20.828  0.00  0.00    +0.000 A 
ATOM     10  C   UNL     1      -5.319  12.032  19.809  0.00  0.00    +0.000 A 
ATOM     11  C   UNL     1      -4.600  11.628  18.705  0.00  0.00    +0.000 A 
ATOM     12  C   UNL     1      -3.212  11.871  18.586  0.00  0.00    +0.000 A 
BRANCH  12  13
ATOM     13  C   UNL     1      -2.554  11.271  17.343  0.00  0.00    +0.000 C 
ATOM     14  C   UNL     1      -2.170   9.812  17.644  0.00  0.00    +0.000 C 
ATOM     15  C   UNL     1      -3.444  11.255  16.091  0.00  0.00    +0.000 C 
ENDBRANCH  12  13
BRANCH   8  16
ATOM     16  C   UNL     1      -2.758  13.857  21.935  0.00  0.00    +0.000 C 
ATOM     17  C   UNL     1      -2.053  13.026  23.008  0.00  0.00    +0.000 C 
ATOM     18  C   UNL     1      -1.861  15.044  21.576  0.00  0.00    +0.000 C 
ENDBRANCH   8  16
ENDBRANCH   4   7
BRANCH   1  19
ATOM     19  S   UNL     1       0.298   9.460  21.305  0.00  0.00    +0.000 S 
ATOM     20  O   UNL     1      -0.463   8.212  21.477  0.00  0.00    +0.000 OA
ATOM     21  O   UNL     1       0.983  10.036  22.416  0.00  0.00    +0.000 OA
BRANCH  19  22
ATOM     22  O   UNL     1       1.404   9.206  20.135  0.00  0.00    +0.000 OA
BRANCH  22  23
ATOM     23  C   UNL     1       1.742   7.844  19.910  0.00  0.00    +0.000 C 
BRANCH  23  24
ATOM     24  C   UNL     1       2.504   7.657  18.606  0.00  0.00    +0.000 C 
BRANCH  24  25
ATOM     25  C   UNL     1       2.840   6.183  18.366  0.00  0.00    +0.000 C 
BRANCH  25  26
ATOM     26  C   UNL     1       3.781   5.625  19.431  0.00  0.00    +0.000 C 
BRANCH  26  27
ATOM     27  C   UNL     1       4.928   4.840  18.802  0.00  0.00    +0.000 C 
BRANCH  27  28
ATOM     28  C   UNL     1       4.422   3.906  17.713  0.00  0.00    +0.000 C 
BRANCH  28  29
ATOM     29  C   UNL     1       3.659   2.735  18.319  0.00  0.00    +0.000 C 
BRANCH  29  30
ATOM     30  C   UNL     1       2.289   2.594  17.668  0.00  0.00    +0.000 C 
BRANCH  30  31
ATOM     31  C   UNL     1       1.243   2.185  18.698  0.00  0.00    +0.000 C 
BRANCH  31  32
ATOM     32  C   UNL     1       0.975   3.329  19.667  0.00  0.00    +0.000 C 
BRANCH  32  34
ATOM     33  C   UNL     1       2.458   3.101  21.671  0.00  0.00    +0.000 C 
ATOM     34  C   UNL     1       1.069   2.853  21.113  0.00  0.00    +0.000 C 
ENDBRANCH  32  34
ENDBRANCH  31  32
ENDBRANCH  30  31
ENDBRANCH  29  30
ENDBRANCH  28  29
ENDBRANCH  27  28
ENDBRANCH  26  27
ENDBRANCH  25  26
ENDBRANCH  24  25
ENDBRANCH  23  24
ENDBRANCH  22  23
ENDBRANCH  19  22
ENDBRANCH   1  19
TORSDOF 16
ENDMDL
MODEL 8
REMARK VINA RESULT:      -6.4      6.655     10.496
REMARK  Name = 
REMARK  21 active torsions:
REMARK  status: ('A' for Active; 'I' for Inactive)
REMARK    1  A    between atoms: C_1  and  C_2
REMARK    2  A    between atoms: C_2  and  C_3
REMARK    3  A    between atoms: C_3  and  C_4
REMARK    4  A    between atoms: C_4  and  C_5
REMARK    5  A    between atoms: C_5  and  C_6
REMARK    6  A    between atoms: C_6  and  C_7
REMARK    7  A    between atoms: C_7  and  C_8
REMARK    8  A    between atoms: C_8  and  C_9
REMARK    9  A    between atoms: C_9  and  C_10
REMARK   10  A    between atoms: C_10  and  C_11
REMARK   11  A    between atoms: C_11  and  C_12
REMARK   12  A    between atoms: C_12  and  O_13
REMARK   13  A    between atoms: O_13  and  S_14
REMARK   14  A    between atoms: S_14  and  N_17
REMARK   15  A    between atoms: N_20  and  C_21
REMARK   16  A    between atoms: C_22  and  C_23
REMARK   17  A    between atoms: C_23  and  C_24
REMARK   18  A    between atoms: C_23  and  C_25
REMARK   19  A    between atoms: C_29  and  C_30
REMARK   20  A    between atoms: C_30  and  C_31
REMARK   21  A    between atoms: C_30  and  C_32
REMARK                            x       y       z     vdW  Elec       q    Type
REMARK                         _______ _______ _______ _____ _____    ______ ____
ROOT
ATOM      1  N   UNL     1      -1.231  11.245  20.491  0.00  0.00    +0.000 N 
ATOM      2  C   UNL     1      -1.152  12.560  20.008  0.00  0.00    +0.000 C 
ATOM      3  O   UNL     1      -0.150  13.231  20.243  0.00  0.00    +0.000 OA
ATOM      4  N   UNL     1      -2.221  13.054  19.277  0.00  0.00    +0.000 N 
ATOM      5  H   UNL     1      -1.738  10.579  19.908  0.00  0.00    +0.000 HD
ATOM      6  H   UNL     1      -2.107  13.949  18.802  0.00  0.00    +0.000 HD
ENDROOT
BRANCH   4   7
ATOM      7  C   UNL     1      -3.425  12.352  19.039  0.00  0.00    +0.000 A 
ATOM      8  C   UNL     1      -4.510  12.475  19.949  0.00  0.00    +0.000 A 
ATOM      9  C   UNL     1      -5.628  11.622  19.771  0.00  0.00    +0.000 A 
ATOM     10  C   UNL     1      -5.726  10.738  18.706  0.00  0.00    +0.000 A 
ATOM     11  C   UNL     1      -4.687  10.665  17.803  0.00  0.00    +0.000 A 
ATOM     12  C   UNL     1      -3.523  11.455  17.937  0.00  0.00    +0.000 A 
BRANCH  12  13
ATOM     13  C   UNL     1      -2.430  11.178  16.904  0.00  0.00    +0.000 C 
ATOM     14  C   UNL     1      -1.628   9.945  17.353  0.00  0.00    +0.000 C 
ATOM     15  C   UNL     1      -2.947  10.888  15.486  0.00  0.00    +0.000 C 
ENDBRANCH  12  13
BRANCH   8  16
ATOM     16  C   UNL     1      -4.630  13.452  21.124  0.00  0.00    +0.000 C 
ATOM     17  C   UNL     1      -4.958  14.882  20.693  0.00  0.00    +0.000 C 
ATOM     18  C   UNL     1      -5.593  13.051  22.243  0.00  0.00    +0.000 C 
ENDBRANCH   8  16
ENDBRANCH   4   7
BRANCH   1  19
ATOM     19  S   UNL     1       0.071  10.613  21.312  0.00  0.00    +0.000 S 
ATOM     20  O   UNL     1      -0.116  10.944  22.733  0.00  0.00    +0.000 OA
ATOM     21  O   UNL     1       1.257  11.022  20.633  0.00  0.00    +0.000 OA
BRANCH  19  22
ATOM     22  O   UNL     1      -0.034   8.993  21.164  0.00  0.00    +0.000 OA
BRANCH  22  23
ATOM     23  C   UNL     1       1.115   8.274  21.591  0.00  0.00    +0.000 C 
BRANCH  23  24
ATOM     24  C   UNL     1       1.664   7.377  20.490  0.00  0.00    +0.000 C 
BRANCH  24  25
ATOM     25  C   UNL     1       1.242   5.921  20.698  0.00  0.00    +0.000 C 
BRANCH  25  26
ATOM     26  C   UNL     1       2.431   5.012  20.997  0.00  0.00    +0.000 C 
BRANCH  26  27
ATOM     27  C   UNL     1       1.983   3.707  21.648  0.00  0.00    +0.000 C 
BRANCH  27  28
ATOM     28  C   UNL     1       1.394   2.753  20.619  0.00  0.00    +0.000 C 
BRANCH  28  29
ATOM     29  C   UNL     1       2.346   2.576  19.443  0.00  0.00    +0.000 C 
BRANCH  29  30
ATOM     30  C   UNL     1       1.653   2.934  18.134  0.00  0.00    +0.000 C 
BRANCH  30  31
ATOM     31  C   UNL     1       2.674   3.335  17.077  0.00  0.00    +0.000 C 
BRANCH  31  32
ATOM     32  C   UNL     1       3.815   4.123  17.710  0.00  0.00    +0.000 C 
BRANCH  32  34
ATOM     33  C   UNL     1       4.816   6.337  17.108  0.00  0.00    +0.000 C 
ATOM     34  C   UNL     1       3.569   5.623  17.599  0.00  0.00    +0.000 C 
ENDBRANCH  32  34
ENDBRANCH  31  32
ENDBRANCH  30  31
ENDBRANCH  29  30
ENDBRANCH  28  29
ENDBRANCH  27  28
ENDBRANCH  26  27
ENDBRANCH  25  26
ENDBRANCH  24  25
ENDBRANCH  23  24
ENDBRANCH  22  23
ENDBRANCH  19  22
ENDBRANCH   1  19
TORSDOF 16
ENDMDL
MODEL 9
REMARK VINA RESULT:      -6.4      6.215      9.985
REMARK  Name = 
REMARK  21 active torsions:
REMARK  status: ('A' for Active; 'I' for Inactive)
REMARK    1  A    between atoms: C_1  and  C_2
REMARK    2  A    between atoms: C_2  and  C_3
REMARK    3  A    between atoms: C_3  and  C_4
REMARK    4  A    between atoms: C_4  and  C_5
REMARK    5  A    between atoms: C_5  and  C_6
REMARK    6  A    between atoms: C_6  and  C_7
REMARK    7  A    between atoms: C_7  and  C_8
REMARK    8  A    between atoms: C_8  and  C_9
REMARK    9  A    between atoms: C_9  and  C_10
REMARK   10  A    between atoms: C_10  and  C_11
REMARK   11  A    between atoms: C_11  and  C_12
REMARK   12  A    between atoms: C_12  and  O_13
REMARK   13  A    between atoms: O_13  and  S_14
REMARK   14  A    between atoms: S_14  and  N_17
REMARK   15  A    between atoms: N_20  and  C_21
REMARK   16  A    between atoms: C_22  and  C_23
REMARK   17  A    between atoms: C_23  and  C_24
REMARK   18  A    between atoms: C_23  and  C_25
REMARK   19  A    between atoms: C_29  and  C_30
REMARK   20  A    between atoms: C_30  and  C_31
REMARK   21  A    between atoms: C_30  and  C_32
REMARK                            x       y       z     vdW  Elec       q    Type
REMARK                         _______ _______ _______ _____ _____    ______ ____
ROOT
ATOM      1  N   UNL     1      -0.839  10.612  20.513  0.00  0.00    +0.000 N 
ATOM      2  C   UNL     1      -0.467  11.882  20.045  0.00  0.00    +0.000 C 
ATOM      3  O   UNL     1       0.687  12.272  20.208  0.00  0.00    +0.000 OA
ATOM      4  N   UNL     1      -1.429  12.653  19.412  0.00  0.00    +0.000 N 
ATOM      5  H   UNL     1      -1.540  10.115  19.964  0.00  0.00    +0.000 HD
ATOM      6  H   UNL     1      -1.128  13.507  18.942  0.00  0.00    +0.000 HD
ENDROOT
BRANCH   4   7
ATOM      7  C   UNL     1      -2.784  12.283  19.261  0.00  0.00    +0.000 A 
ATOM      8  C   UNL     1      -3.216  11.634  18.073  0.00  0.00    +0.000 A 
ATOM      9  C   UNL     1      -4.608  11.440  17.887  0.00  0.00    +0.000 A 
ATOM     10  C   UNL     1      -5.541  11.791  18.851  0.00  0.00    +0.000 A 
ATOM     11  C   UNL     1      -5.104  12.375  20.021  0.00  0.00    +0.000 A 
ATOM     12  C   UNL     1      -3.736  12.635  20.261  0.00  0.00    +0.000 A 
BRANCH  12  13
ATOM     13  C   UNL     1      -3.437  13.375  21.566  0.00  0.00    +0.000 C 
ATOM     14  C   UNL     1      -4.617  14.308  21.885  0.00  0.00    +0.000 C 
ATOM     15  C   UNL     1      -3.238  12.464  22.787  0.00  0.00    +0.000 C 
ENDBRANCH  12  13
BRANCH   8  16
ATOM     16  C   UNL     1      -2.337  11.090  16.941  0.00  0.00    +0.000 C 
ATOM     17  C   UNL     1      -1.725   9.722  17.251  0.00  0.00    +0.000 C 
ATOM     18  C   UNL     1      -2.978  11.029  15.553  0.00  0.00    +0.000 C 
ENDBRANCH   8  16
ENDBRANCH   4   7
BRANCH   1  19
ATOM     19  S   UNL     1       0.319   9.646  21.216  0.00  0.00    +0.000 S 
ATOM     20  O   UNL     1      -0.374   8.777  22.180  0.00  0.00    +0.000 OA
ATOM     21  O   UNL     1       1.386  10.487  21.651  0.00  0.00    +0.000 OA
BRANCH  19  22
ATOM     22  O   UNL     1       0.907   8.696  20.029  0.00  0.00    +0.000 OA
BRANCH  22  23
ATOM     23  C   UNL     1       1.595   9.383  18.992  0.00  0.00    +0.000 C 
BRANCH  23  24
ATOM     24  C   UNL     1       1.850   8.486  17.789  0.00  0.00    +0.000 C 
BRANCH  24  25
ATOM     25  C   UNL     1       2.625   7.229  18.189  0.00  0.00    +0.000 C 
BRANCH  25  26
ATOM     26  C   UNL     1       4.102   7.317  17.813  0.00  0.00    +0.000 C 
BRANCH  26  27
ATOM     27  C   UNL     1       4.469   6.274  16.760  0.00  0.00    +0.000 C 
BRANCH  27  28
ATOM     28  C   UNL     1       4.946   4.983  17.409  0.00  0.00    +0.000 C 
BRANCH  28  29
ATOM     29  C   UNL     1       4.133   3.797  16.908  0.00  0.00    +0.000 C 
BRANCH  29  30
ATOM     30  C   UNL     1       3.272   3.225  18.028  0.00  0.00    +0.000 C 
BRANCH  30  31
ATOM     31  C   UNL     1       1.804   3.571  17.808  0.00  0.00    +0.000 C 
BRANCH  31  32
ATOM     32  C   UNL     1       0.934   2.889  18.856  0.00  0.00    +0.000 C 
BRANCH  32  34
ATOM     33  C   UNL     1       1.273   4.669  20.584  0.00  0.00    +0.000 C 
ATOM     34  C   UNL     1       1.436   3.194  20.263  0.00  0.00    +0.000 C 
ENDBRANCH  32  34
ENDBRANCH  31  32
ENDBRANCH  30  31
ENDBRANCH  29  30
ENDBRANCH  28  29
ENDBRANCH  27  28
ENDBRANCH  26  27
ENDBRANCH  25  26
ENDBRANCH  24  25
ENDBRANCH  23  24
ENDBRANCH  22  23
ENDBRANCH  19  22
ENDBRANCH   1  19
TORSDOF 16
ENDMDL
