MODEL 1
REMARK VINA RESULT:      -8.1      0.000      0.000
REMARK  Name = 
REMARK  5 active torsions:
REMARK  status: ('A' for Active; 'I' for Inactive)
REMARK    1  A    between atoms: C_1  and  N_2
REMARK    2  A    between atoms: C_5  and  C_6
REMARK    3  A    between atoms: N_8  and  C_9
REMARK    4  A    between atoms: C_9  and  C_10
REMARK    5  A    between atoms: C_14  and  N_15
REMARK                            x       y       z     vdW  Elec       q    Type
REMARK                         _______ _______ _______ _____ _____    ______ ____
ROOT
ATOM      1  C   UNL     1       6.557   6.763  17.021  0.00  0.00    +0.000 C 
ENDROOT
BRANCH   1   2
ATOM      2  C   UNL     1       5.099   6.731  17.408  0.00  0.00    +0.000 A 
ATOM      3  C   UNL     1       4.260   7.823  17.165  0.00  0.00    +0.000 A 
ATOM      4  C   UNL     1       2.921   7.792  17.563  0.00  0.00    +0.000 A 
ATOM      5  C   UNL     1       2.414   6.677  18.232  0.00  0.00    +0.000 A 
ATOM      6  C   UNL     1       3.238   5.577  18.496  0.00  0.00    +0.000 A 
ATOM      7  C   UNL     1       4.573   5.609  18.066  0.00  0.00    +0.000 A 
BRANCH   6   8
ATOM      8  N   UNL     1       2.735   4.458  19.229  0.00  0.00    +0.000 N 
ATOM      9  C   UNL     1       2.550   4.640  20.670  0.00  0.00    +0.000 C 
ATOM     10  C   UNL     1       2.326   3.334  21.413  0.00  0.00    +0.000 C 
ATOM     11  C   UNL     1       1.157   2.620  20.770  0.00  0.00    +0.000 C 
ATOM     12  C   UNL     1       1.488   2.301  19.325  0.00  0.00    +0.000 C 
ATOM     13  C   UNL     1       2.089   3.440  18.520  0.00  0.00    +0.000 C 
ATOM     14  O   UNL     1       2.027   3.382  17.289  0.00  0.00    +0.000 OA
ENDBRANCH   6   8
ENDBRANCH   1   2
BRANCH   1  17
ATOM     15  C   UNL     1       8.122   8.228  18.245  0.00  0.00    +0.000 C 
ATOM     16  O   UNL     1       8.527   7.315  18.957  0.00  0.00    +0.000 OA
ATOM     17  N   UNL     1       7.163   8.052  17.274  0.00  0.00    +0.000 N 
ATOM     18  H   UNL     1       6.750   8.850  16.816  0.00  0.00    +0.000 HD
BRANCH  15  23
ATOM     19  C   UNL     1       9.964  13.652  18.752  0.00  0.00    +0.000 C 
ATOM     20  N   UNL     1       9.476  12.286  18.657  0.00  0.00    +0.000 N 
ATOM     21  C   UNL     1       8.584  11.936  17.666  0.00  0.00    +0.000 A 
ATOM     22  C   UNL     1       8.161  10.673  17.536  0.00  0.00    +0.000 A 
ATOM     23  C   UNL     1       8.636   9.634  18.432  0.00  0.00    +0.000 A 
ATOM     24  C   UNL     1       9.465   9.967  19.433  0.00  0.00    +0.000 A 
ATOM     25  C   UNL     1       9.953  11.360  19.582  0.00  0.00    +0.000 A 
ATOM     26  O   UNL     1      10.745  11.622  20.483  0.00  0.00    +0.000 OA
ENDBRANCH  15  23
ENDBRANCH   1  17
TORSDOF 4
ENDMDL
MODEL 2
REMARK VINA RESULT:      -8.1      0.893      1.314
REMARK  Name = 
REMARK  5 active torsions:
REMARK  status: ('A' for Active; 'I' for Inactive)
REMARK    1  A    between atoms: C_1  and  N_2
REMARK    2  A    between atoms: C_5  and  C_6
REMARK    3  A    between atoms: N_8  and  C_9
REMARK    4  A    between atoms: C_9  and  C_10
REMARK    5  A    between atoms: C_14  and  N_15
REMARK                            x       y       z     vdW  Elec       q    Type
REMARK                         _______ _______ _______ _____ _____    ______ ____
ROOT
ATOM      1  C   UNL     1       6.490   6.778  16.980  0.00  0.00    +0.000 C 
ENDROOT
BRANCH   1   2
ATOM      2  C   UNL     1       5.037   6.723  17.383  0.00  0.00    +0.000 A 
ATOM      3  C   UNL     1       4.180   7.805  17.160  0.00  0.00    +0.000 A 
ATOM      4  C   UNL     1       2.846   7.753  17.574  0.00  0.00    +0.000 A 
ATOM      5  C   UNL     1       2.363   6.624  18.237  0.00  0.00    +0.000 A 
ATOM      6  C   UNL     1       3.204   5.534  18.480  0.00  0.00    +0.000 A 
ATOM      7  C   UNL     1       4.533   5.588  18.036  0.00  0.00    +0.000 A 
BRANCH   6   8
ATOM      8  N   UNL     1       2.724   4.400  19.208  0.00  0.00    +0.000 N 
ATOM      9  C   UNL     1       2.536   4.571  20.650  0.00  0.00    +0.000 C 
ATOM     10  C   UNL     1       2.340   3.258  21.387  0.00  0.00    +0.000 C 
ATOM     11  C   UNL     1       1.185   2.523  20.742  0.00  0.00    +0.000 C 
ATOM     12  C   UNL     1       1.522   2.218  19.295  0.00  0.00    +0.000 C 
ATOM     13  C   UNL     1       2.099   3.373  18.495  0.00  0.00    +0.000 C 
ATOM     14  O   UNL     1       2.038   3.320  17.264  0.00  0.00    +0.000 OA
ENDBRANCH   6   8
ENDBRANCH   1   2
BRANCH   1  17
ATOM     15  C   UNL     1       8.061   8.256  18.180  0.00  0.00    +0.000 C 
ATOM     16  O   UNL     1       8.501   7.342  18.869  0.00  0.00    +0.000 OA
ATOM     17  N   UNL     1       7.080   8.075  17.233  0.00  0.00    +0.000 N 
ATOM     18  H   UNL     1       6.640   8.871  16.796  0.00  0.00    +0.000 HD
BRANCH  15  23
ATOM     19  C   UNL     1      10.070  13.565  19.104  0.00  0.00    +0.000 C 
ATOM     20  N   UNL     1       9.584  12.221  18.837  0.00  0.00    +0.000 N 
ATOM     21  C   UNL     1      10.015  11.161  19.607  0.00  0.00    +0.000 A 
ATOM     22  C   UNL     1       9.542   9.926  19.404  0.00  0.00    +0.000 A 
ATOM     23  C   UNL     1       8.555   9.669  18.371  0.00  0.00    +0.000 A 
ATOM     24  C   UNL     1       8.163  10.678  17.580  0.00  0.00    +0.000 A 
ATOM     25  C   UNL     1       8.668  12.056  17.801  0.00  0.00    +0.000 A 
ATOM     26  O   UNL     1       8.256  12.965  17.086  0.00  0.00    +0.000 OA
ENDBRANCH  15  23
ENDBRANCH   1  17
TORSDOF 4
ENDMDL
MODEL 3
REMARK VINA RESULT:      -8.0      4.757      6.819
REMARK  Name = 
REMARK  5 active torsions:
REMARK  status: ('A' for Active; 'I' for Inactive)
REMARK    1  A    between atoms: C_1  and  N_2
REMARK    2  A    between atoms: C_5  and  C_6
REMARK    3  A    between atoms: N_8  and  C_9
REMARK    4  A    between atoms: C_9  and  C_10
REMARK    5  A    between atoms: C_14  and  N_15
REMARK                            x       y       z     vdW  Elec       q    Type
REMARK                         _______ _______ _______ _____ _____    ______ ____
ROOT
ATOM      1  C   UNL     1       2.265   9.026  17.473  0.00  0.00    +0.000 C 
ENDROOT
BRANCH   1   2
ATOM      2  C   UNL     1       3.046   7.757  17.712  0.00  0.00    +0.000 A 
ATOM      3  C   UNL     1       4.302   7.559  17.130  0.00  0.00    +0.000 A 
ATOM      4  C   UNL     1       4.996   6.363  17.330  0.00  0.00    +0.000 A 
ATOM      5  C   UNL     1       4.429   5.343  18.095  0.00  0.00    +0.000 A 
ATOM      6  C   UNL     1       3.169   5.515  18.678  0.00  0.00    +0.000 A 
ATOM      7  C   UNL     1       2.494   6.731  18.493  0.00  0.00    +0.000 A 
BRANCH   6   8
ATOM      8  N   UNL     1       2.564   4.450  19.415  0.00  0.00    +0.000 N 
ATOM      9  C   UNL     1       2.635   4.533  20.875  0.00  0.00    +0.000 C 
ATOM     10  C   UNL     1       2.264   3.232  21.566  0.00  0.00    +0.000 C 
ATOM     11  C   UNL     1       0.892   2.815  21.082  0.00  0.00    +0.000 C 
ATOM     12  C   UNL     1       0.935   2.571  19.586  0.00  0.00    +0.000 C 
ATOM     13  C   UNL     1       1.628   3.642  18.762  0.00  0.00    +0.000 C 
ATOM     14  O   UNL     1       1.374   3.708  17.556  0.00  0.00    +0.000 OA
ENDBRANCH   6   8
ENDBRANCH   1   2
BRANCH   1  17
ATOM     15  C   UNL     1       0.300   9.911  18.678  0.00  0.00    +0.000 C 
ATOM     16  O   UNL     1      -0.407   9.896  17.676  0.00  0.00    +0.000 OA
ATOM     17  N   UNL     1       1.615   9.504  18.675  0.00  0.00    +0.000 N 
ATOM     18  H   UNL     1       2.202   9.672  19.477  0.00  0.00    +0.000 HD
BRANCH  15  23
ATOM     19  C   UNL     1      -1.876  12.050  23.552  0.00  0.00    +0.000 C 
ATOM     20  N   UNL     1      -1.347  11.476  22.326  0.00  0.00    +0.000 N 
ATOM     21  C   UNL     1      -1.766  11.949  21.101  0.00  0.00    +0.000 A 
ATOM     22  C   UNL     1      -1.255  11.464  19.964  0.00  0.00    +0.000 A 
ATOM     23  C   UNL     1      -0.237  10.428  19.990  0.00  0.00    +0.000 A 
ATOM     24  C   UNL     1       0.145   9.920  21.171  0.00  0.00    +0.000 A 
ATOM     25  C   UNL     1      -0.404  10.458  22.440  0.00  0.00    +0.000 A 
ATOM     26  O   UNL     1       0.000  10.000  23.506  0.00  0.00    +0.000 OA
ENDBRANCH  15  23
ENDBRANCH   1  17
TORSDOF 4
ENDMDL
MODEL 4
REMARK VINA RESULT:      -7.9      5.180      8.456
REMARK  Name = 
REMARK  5 active torsions:
REMARK  status: ('A' for Active; 'I' for Inactive)
REMARK    1  A    between atoms: C_1  and  N_2
REMARK    2  A    between atoms: C_5  and  C_6
REMARK    3  A    between atoms: N_8  and  C_9
REMARK    4  A    between atoms: C_9  and  C_10
REMARK    5  A    between atoms: C_14  and  N_15
REMARK                            x       y       z     vdW  Elec       q    Type
REMARK                         _______ _______ _______ _____ _____    ______ ____
ROOT
ATOM      1  C   UNL     1       2.301   9.500  17.855  0.00  0.00    +0.000 C 
ENDROOT
BRANCH   1   2
ATOM      2  C   UNL     1       2.594   8.101  18.339  0.00  0.00    +0.000 A 
ATOM      3  C   UNL     1       1.933   7.564  19.448  0.00  0.00    +0.000 A 
ATOM      4  C   UNL     1       2.243   6.281  19.907  0.00  0.00    +0.000 A 
ATOM      5  C   UNL     1       3.235   5.531  19.273  0.00  0.00    +0.000 A 
ATOM      6  C   UNL     1       3.917   6.052  18.168  0.00  0.00    +0.000 A 
ATOM      7  C   UNL     1       3.577   7.330  17.701  0.00  0.00    +0.000 A 
BRANCH   6   8
ATOM      8  N   UNL     1       4.971   5.307  17.554  0.00  0.00    +0.000 N 
ATOM      9  C   UNL     1       4.812   4.983  16.134  0.00  0.00    +0.000 C 
ATOM     10  C   UNL     1       5.796   3.935  15.647  0.00  0.00    +0.000 C 
ATOM     11  C   UNL     1       7.195   4.414  15.973  0.00  0.00    +0.000 C 
ATOM     12  C   UNL     1       7.346   4.555  17.475  0.00  0.00    +0.000 C 
ATOM     13  C   UNL     1       6.218   5.282  18.185  0.00  0.00    +0.000 C 
ATOM     14  O   UNL     1       6.441   5.760  19.301  0.00  0.00    +0.000 OA
ENDBRANCH   6   8
ENDBRANCH   1   2
BRANCH   1  17
ATOM     15  C   UNL     1       0.263  10.670  18.612  0.00  0.00    +0.000 C 
ATOM     16  O   UNL     1       0.865  11.307  19.470  0.00  0.00    +0.000 OA
ATOM     17  N   UNL     1       0.880   9.767  17.777  0.00  0.00    +0.000 N 
ATOM     18  H   UNL     1       0.332   9.156  17.192  0.00  0.00    +0.000 HD
BRANCH  15  23
ATOM     19  C   UNL     1      -5.418  11.071  17.818  0.00  0.00    +0.000 C 
ATOM     20  N   UNL     1      -3.989  10.952  18.054  0.00  0.00    +0.000 N 
ATOM     21  C   UNL     1      -3.240  10.046  17.333  0.00  0.00    +0.000 A 
ATOM     22  C   UNL     1      -1.916   9.956  17.505  0.00  0.00    +0.000 A 
ATOM     23  C   UNL     1      -1.230  10.817  18.452  0.00  0.00    +0.000 A 
ATOM     24  C   UNL     1      -1.950  11.669  19.198  0.00  0.00    +0.000 A 
ATOM     25  C   UNL     1      -3.417  11.788  19.009  0.00  0.00    +0.000 A 
ATOM     26  O   UNL     1      -4.040  12.609  19.678  0.00  0.00    +0.000 OA
ENDBRANCH  15  23
ENDBRANCH   1  17
TORSDOF 4
ENDMDL
MODEL 5
REMARK VINA RESULT:      -7.8      4.743      8.239
REMARK  Name = 
REMARK  5 active torsions:
REMARK  status: ('A' for Active; 'I' for Inactive)
REMARK    1  A    between atoms: C_1  and  N_2
REMARK    2  A    between atoms: C_5  and  C_6
REMARK    3  A    between atoms: N_8  and  C_9
REMARK    4  A    between atoms: C_9  and  C_10
REMARK    5  A    between atoms: C_14  and  N_15
REMARK                            x       y       z     vdW  Elec       q    Type
REMARK                         _______ _______ _______ _____ _____    ______ ____
ROOT
ATOM      1  C   UNL     1       1.998   8.346  20.076  0.00  0.00    +0.000 C 
ENDROOT
BRANCH   1   2
ATOM      2  C   UNL     1       2.291   6.883  19.853  0.00  0.00    +0.000 A 
ATOM      3  C   UNL     1       1.562   5.889  20.514  0.00  0.00    +0.000 A 
ATOM      4  C   UNL     1       1.870   4.539  20.326  0.00  0.00    +0.000 A 
ATOM      5  C   UNL     1       2.927   4.171  19.492  0.00  0.00    +0.000 A 
ATOM      6  C   UNL     1       3.676   5.149  18.828  0.00  0.00    +0.000 A 
ATOM      7  C   UNL     1       3.339   6.499  19.004  0.00  0.00    +0.000 A 
BRANCH   6   8
ATOM      8  N   UNL     1       4.793   4.775  18.018  0.00  0.00    +0.000 N 
ATOM      9  C   UNL     1       4.567   4.706  16.572  0.00  0.00    +0.000 C 
ATOM     10  C   UNL     1       5.687   4.003  15.826  0.00  0.00    +0.000 C 
ATOM     11  C   UNL     1       6.990   4.693  16.171  0.00  0.00    +0.000 C 
ATOM     12  C   UNL     1       7.251   4.570  17.659  0.00  0.00    +0.000 C 
ATOM     13  C   UNL     1       6.074   4.891  18.564  0.00  0.00    +0.000 C 
ATOM     14  O   UNL     1       6.304   5.180  19.742  0.00  0.00    +0.000 OA
ENDBRANCH   6   8
ENDBRANCH   1   2
BRANCH   1  17
ATOM     15  C   UNL     1       0.380  10.088  19.412  0.00  0.00    +0.000 C 
ATOM     16  O   UNL     1       0.954  10.963  20.053  0.00  0.00    +0.000 OA
ATOM     17  N   UNL     1       0.817   8.784  19.364  0.00  0.00    +0.000 N 
ATOM     18  H   UNL     1       0.239   8.068  18.953  0.00  0.00    +0.000 HD
BRANCH  15  23
ATOM     19  C   UNL     1      -4.531  11.407  16.726  0.00  0.00    +0.000 C 
ATOM     20  N   UNL     1      -3.269  11.094  17.377  0.00  0.00    +0.000 N 
ATOM     21  C   UNL     1      -2.936  11.698  18.571  0.00  0.00    +0.000 A 
ATOM     22  C   UNL     1      -1.800  11.387  19.206  0.00  0.00    +0.000 A 
ATOM     23  C   UNL     1      -0.890  10.397  18.658  0.00  0.00    +0.000 A 
ATOM     24  C   UNL     1      -1.174   9.837  17.473  0.00  0.00    +0.000 A 
ATOM     25  C   UNL     1      -2.436  10.163  16.763  0.00  0.00    +0.000 A 
ATOM     26  O   UNL     1      -2.686   9.599  15.701  0.00  0.00    +0.000 OA
ENDBRANCH  15  23
ENDBRANCH   1  17
TORSDOF 4
ENDMDL
MODEL 6
REMARK VINA RESULT:      -7.7      5.124      7.827
REMARK  Name = 
REMARK  5 active torsions:
REMARK  status: ('A' for Active; 'I' for Inactive)
REMARK    1  A    between atoms: C_1  and  N_2
REMARK    2  A    between atoms: C_5  and  C_6
REMARK    3  A    between atoms: N_8  and  C_9
REMARK    4  A    between atoms: C_9  and  C_10
REMARK    5  A    between atoms: C_14  and  N_15
REMARK                            x       y       z     vdW  Elec       q    Type
REMARK                         _______ _______ _______ _____ _____    ______ ____
ROOT
ATOM      1  C   UNL     1       2.018   9.031  17.992  0.00  0.00    +0.000 C 
ENDROOT
BRANCH   1   2
ATOM      2  C   UNL     1       2.487   7.687  18.492  0.00  0.00    +0.000 A 
ATOM      3  C   UNL     1       1.964   7.125  19.661  0.00  0.00    +0.000 A 
ATOM      4  C   UNL     1       2.436   5.897  20.131  0.00  0.00    +0.000 A 
ATOM      5  C   UNL     1       3.455   5.230  19.449  0.00  0.00    +0.000 A 
ATOM      6  C   UNL     1       4.000   5.779  18.284  0.00  0.00    +0.000 A 
ATOM      7  C   UNL     1       3.499   6.998  17.807  0.00  0.00    +0.000 A 
BRANCH   6   8
ATOM      8  N   UNL     1       5.081   5.123  17.616  0.00  0.00    +0.000 N 
ATOM      9  C   UNL     1       4.879   4.784  16.206  0.00  0.00    +0.000 C 
ATOM     10  C   UNL     1       5.922   3.821  15.667  0.00  0.00    +0.000 C 
ATOM     11  C   UNL     1       7.290   4.416  15.923  0.00  0.00    +0.000 C 
ATOM     12  C   UNL     1       7.505   4.574  17.416  0.00  0.00    +0.000 C 
ATOM     13  C   UNL     1       6.356   5.204  18.184  0.00  0.00    +0.000 C 
ATOM     14  O   UNL     1       6.595   5.703  19.288  0.00  0.00    +0.000 OA
ENDBRANCH   6   8
ENDBRANCH   1   2
BRANCH   1  17
ATOM     15  C   UNL     1      -0.052  10.143  18.750  0.00  0.00    +0.000 C 
ATOM     16  O   UNL     1      -0.639   9.920  17.696  0.00  0.00    +0.000 OA
ATOM     17  N   UNL     1       1.245   9.746  18.985  0.00  0.00    +0.000 N 
ATOM     18  H   UNL     1       1.739  10.077  19.798  0.00  0.00    +0.000 HD
BRANCH  15  23
ATOM     19  C   UNL     1      -2.723  13.243  22.790  0.00  0.00    +0.000 C 
ATOM     20  N   UNL     1      -2.071  12.428  21.779  0.00  0.00    +0.000 N 
ATOM     21  C   UNL     1      -2.324  12.647  20.441  0.00  0.00    +0.000 A 
ATOM     22  C   UNL     1      -1.697  11.937  19.496  0.00  0.00    +0.000 A 
ATOM     23  C   UNL     1      -0.725  10.919  19.855  0.00  0.00    +0.000 A 
ATOM     24  C   UNL     1      -0.503  10.659  21.152  0.00  0.00    +0.000 A 
ATOM     25  C   UNL     1      -1.182  11.447  22.210  0.00  0.00    +0.000 A 
ATOM     26  O   UNL     1      -0.924  11.211  23.388  0.00  0.00    +0.000 OA
ENDBRANCH  15  23
ENDBRANCH   1  17
TORSDOF 4
ENDMDL
MODEL 7
REMARK VINA RESULT:      -7.6      5.947      7.885
REMARK  Name = 
REMARK  5 active torsions:
REMARK  status: ('A' for Active; 'I' for Inactive)
REMARK    1  A    between atoms: C_1  and  N_2
REMARK    2  A    between atoms: C_5  and  C_6
REMARK    3  A    between atoms: N_8  and  C_9
REMARK    4  A    between atoms: C_9  and  C_10
REMARK    5  A    between atoms: C_14  and  N_15
REMARK                            x       y       z     vdW  Elec       q    Type
REMARK                         _______ _______ _______ _____ _____    ______ ____
ROOT
ATOM      1  C   UNL     1       1.029   8.190  21.557  0.00  0.00    +0.000 C 
ENDROOT
BRANCH   1   2
ATOM      2  C   UNL     1       1.665   7.791  20.248  0.00  0.00    +0.000 A 
ATOM      3  C   UNL     1       1.814   8.710  19.204  0.00  0.00    +0.000 A 
ATOM      4  C   UNL     1       2.370   8.315  17.985  0.00  0.00    +0.000 A 
ATOM      5  C   UNL     1       2.762   6.990  17.790  0.00  0.00    +0.000 A 
ATOM      6  C   UNL     1       2.614   6.051  18.816  0.00  0.00    +0.000 A 
ATOM      7  C   UNL     1       2.079   6.466  20.045  0.00  0.00    +0.000 A 
BRANCH   6   8
ATOM      8  N   UNL     1       2.963   4.682  18.598  0.00  0.00    +0.000 N 
ATOM      9  C   UNL     1       3.980   4.110  19.483  0.00  0.00    +0.000 C 
ATOM     10  C   UNL     1       4.521   2.779  18.991  0.00  0.00    +0.000 C 
ATOM     11  C   UNL     1       3.350   1.843  18.782  0.00  0.00    +0.000 C 
ATOM     12  C   UNL     1       2.428   2.411  17.721  0.00  0.00    +0.000 C 
ATOM     13  C   UNL     1       2.079   3.882  17.870  0.00  0.00    +0.000 C 
ATOM     14  O   UNL     1       1.070   4.304  17.297  0.00  0.00    +0.000 OA
ENDBRANCH   6   8
ENDBRANCH   1   2
BRANCH   1  17
ATOM     15  C   UNL     1      -0.131  10.138  22.533  0.00  0.00    +0.000 C 
ATOM     16  O   UNL     1       0.192   9.842  23.679  0.00  0.00    +0.000 OA
ATOM     17  N   UNL     1       0.232   9.392  21.436  0.00  0.00    +0.000 N 
ATOM     18  H   UNL     1      -0.176   9.580  20.534  0.00  0.00    +0.000 HD
BRANCH  15  23
ATOM     19  C   UNL     1      -3.584  14.661  21.708  0.00  0.00    +0.000 C 
ATOM     20  N   UNL     1      -2.681  13.543  21.927  0.00  0.00    +0.000 N 
ATOM     21  C   UNL     1      -2.856  12.713  23.014  0.00  0.00    +0.000 A 
ATOM     22  C   UNL     1      -2.063  11.653  23.205  0.00  0.00    +0.000 A 
ATOM     23  C   UNL     1      -1.000  11.342  22.267  0.00  0.00    +0.000 A 
ATOM     24  C   UNL     1      -0.784  12.166  21.231  0.00  0.00    +0.000 A 
ATOM     25  C   UNL     1      -1.663  13.339  21.000  0.00  0.00    +0.000 A 
ATOM     26  O   UNL     1      -1.464  14.049  20.017  0.00  0.00    +0.000 OA
ENDBRANCH  15  23
ENDBRANCH   1  17
TORSDOF 4
ENDMDL
MODEL 8
REMARK VINA RESULT:      -7.6      6.190      8.265
REMARK  Name = 
REMARK  5 active torsions:
REMARK  status: ('A' for Active; 'I' for Inactive)
REMARK    1  A    between atoms: C_1  and  N_2
REMARK    2  A    between atoms: C_5  and  C_6
REMARK    3  A    between atoms: N_8  and  C_9
REMARK    4  A    between atoms: C_9  and  C_10
REMARK    5  A    between atoms: C_14  and  N_15
REMARK                            x       y       z     vdW  Elec       q    Type
REMARK                         _______ _______ _______ _____ _____    ______ ____
ROOT
ATOM      1  C   UNL     1       0.987   8.547  21.501  0.00  0.00    +0.000 C 
ENDROOT
BRANCH   1   2
ATOM      2  C   UNL     1       1.571   8.151  20.167  0.00  0.00    +0.000 A 
ATOM      3  C   UNL     1       1.558   9.031  19.080  0.00  0.00    +0.000 A 
ATOM      4  C   UNL     1       2.068   8.636  17.841  0.00  0.00    +0.000 A 
ATOM      5  C   UNL     1       2.576   7.347  17.671  0.00  0.00    +0.000 A 
ATOM      6  C   UNL     1       2.590   6.447  18.741  0.00  0.00    +0.000 A 
ATOM      7  C   UNL     1       2.100   6.864  19.987  0.00  0.00    +0.000 A 
BRANCH   6   8
ATOM      8  N   UNL     1       3.058   5.109  18.553  0.00  0.00    +0.000 N 
ATOM      9  C   UNL     1       4.171   4.672  19.399  0.00  0.00    +0.000 C 
ATOM     10  C   UNL     1       4.810   3.379  18.926  0.00  0.00    +0.000 C 
ATOM     11  C   UNL     1       3.726   2.329  18.817  0.00  0.00    +0.000 C 
ATOM     12  C   UNL     1       2.699   2.763  17.789  0.00  0.00    +0.000 C 
ATOM     13  C   UNL     1       2.218   4.199  17.904  0.00  0.00    +0.000 C 
ATOM     14  O   UNL     1       1.145   4.500  17.375  0.00  0.00    +0.000 OA
ENDBRANCH   6   8
ENDBRANCH   1   2
BRANCH   1  17
ATOM     15  C   UNL     1      -0.368  10.362  22.482  0.00  0.00    +0.000 C 
ATOM     16  O   UNL     1       0.023  10.131  23.621  0.00  0.00    +0.000 OA
ATOM     17  N   UNL     1       0.048   9.642  21.386  0.00  0.00    +0.000 N 
ATOM     18  H   UNL     1      -0.407   9.762  20.494  0.00  0.00    +0.000 HD
BRANCH  15  23
ATOM     19  C   UNL     1      -4.146  14.525  21.271  0.00  0.00    +0.000 C 
ATOM     20  N   UNL     1      -3.222  13.446  21.579  0.00  0.00    +0.000 N 
ATOM     21  C   UNL     1      -2.374  12.961  20.606  0.00  0.00    +0.000 A 
ATOM     22  C   UNL     1      -1.484  12.000  20.884  0.00  0.00    +0.000 A 
ATOM     23  C   UNL     1      -1.383  11.448  22.223  0.00  0.00    +0.000 A 
ATOM     24  C   UNL     1      -2.234  11.873  23.169  0.00  0.00    +0.000 A 
ATOM     25  C   UNL     1      -3.217  12.946  22.878  0.00  0.00    +0.000 A 
ATOM     26  O   UNL     1      -3.953  13.342  23.779  0.00  0.00    +0.000 OA
ENDBRANCH  15  23
ENDBRANCH   1  17
TORSDOF 4
ENDMDL
MODEL 9
REMARK VINA RESULT:      -7.5      4.077      6.852
REMARK  Name = 
REMARK  5 active torsions:
REMARK  status: ('A' for Active; 'I' for Inactive)
REMARK    1  A    between atoms: C_1  and  N_2
REMARK    2  A    between atoms: C_5  and  C_6
REMARK    3  A    between atoms: N_8  and  C_9
REMARK    4  A    between atoms: C_9  and  C_10
REMARK    5  A    between atoms: C_14  and  N_15
REMARK                            x       y       z     vdW  Elec       q    Type
REMARK                         _______ _______ _______ _____ _____    ______ ____
ROOT
ATOM      1  C   UNL     1       1.388   6.114  21.073  0.00  0.00    +0.000 C 
ENDROOT
BRANCH   1   2
ATOM      2  C   UNL     1       2.355   5.203  20.357  0.00  0.00    +0.000 A 
ATOM      3  C   UNL     1       2.217   3.813  20.412  0.00  0.00    +0.000 A 
ATOM      4  C   UNL     1       3.143   2.982  19.775  0.00  0.00    +0.000 A 
ATOM      5  C   UNL     1       4.229   3.535  19.095  0.00  0.00    +0.000 A 
ATOM      6  C   UNL     1       4.392   4.923  19.036  0.00  0.00    +0.000 A 
ATOM      7  C   UNL     1       3.442   5.747  19.656  0.00  0.00    +0.000 A 
BRANCH   6   8
ATOM      8  N   UNL     1       5.534   5.488  18.387  0.00  0.00    +0.000 N 
ATOM      9  C   UNL     1       5.286   6.279  17.180  0.00  0.00    +0.000 C 
ATOM     10  C   UNL     1       6.547   6.566  16.384  0.00  0.00    +0.000 C 
ATOM     11  C   UNL     1       7.547   7.228  17.307  0.00  0.00    +0.000 C 
ATOM     12  C   UNL     1       7.897   6.282  18.439  0.00  0.00    +0.000 C 
ATOM     13  C   UNL     1       6.720   5.603  19.118  0.00  0.00    +0.000 C 
ATOM     14  O   UNL     1       6.886   5.141  20.251  0.00  0.00    +0.000 OA
ENDBRANCH   6   8
ENDBRANCH   1   2
BRANCH   1  17
ATOM     15  C   UNL     1       0.607   8.454  20.984  0.00  0.00    +0.000 C 
ATOM     16  O   UNL     1      -0.432   8.202  21.586  0.00  0.00    +0.000 OA
ATOM     17  N   UNL     1       1.553   7.500  20.690  0.00  0.00    +0.000 N 
ATOM     18  H   UNL     1       2.316   7.714  20.067  0.00  0.00    +0.000 HD
BRANCH  15  23
ATOM     19  C   UNL     1       1.721  13.683  18.867  0.00  0.00    +0.000 C 
ATOM     20  N   UNL     1       1.401  12.372  19.406  0.00  0.00    +0.000 N 
ATOM     21  C   UNL     1       1.390  11.266  18.582  0.00  0.00    +0.000 A 
ATOM     22  C   UNL     1       1.143  10.046  19.071  0.00  0.00    +0.000 A 
ATOM     23  C   UNL     1       0.886   9.851  20.487  0.00  0.00    +0.000 A 
ATOM     24  C   UNL     1       0.843  10.921  21.294  0.00  0.00    +0.000 A 
ATOM     25  C   UNL     1       1.128  12.279  20.768  0.00  0.00    +0.000 A 
ATOM     26  O   UNL     1       1.123  13.232  21.543  0.00  0.00    +0.000 OA
ENDBRANCH  15  23
ENDBRANCH   1  17
TORSDOF 4
ENDMDL
