MODEL 1
REMARK VINA RESULT:      -8.0      0.000      0.000
REMARK  Name = 
REMARK  6 active torsions:
REMARK  status: ('A' for Active; 'I' for Inactive)
REMARK    1  A    between atoms: C_1  and  N_2
REMARK    2  A    between atoms: C_6  and  C_7
REMARK    3  A    between atoms: C_11  and  N_12
REMARK    4  A    between atoms: N_15  and  C_16
REMARK    5  A    between atoms: C_16  and  C_17
REMARK    6  A    between atoms: C_17  and  N_18
REMARK                            x       y       z     vdW  Elec       q    Type
REMARK                         _______ _______ _______ _____ _____    ______ ____
ROOT
ATOM      1  N   UNL     1       7.679   6.211  18.205  0.00  0.00    +0.000 N 
ATOM      2  C   UNL     1       7.714   7.561  17.969  0.00  0.00    +0.000 C 
ATOM      3  O   UNL     1       7.026   8.160  17.137  0.00  0.00    +0.000 OA
ATOM      4  N   UNL     1       8.611   8.254  18.741  0.00  0.00    +0.000 N 
ATOM      5  H   UNL     1       8.156   5.861  19.029  0.00  0.00    +0.000 HD
ATOM      6  H   UNL     1       9.465   7.748  18.929  0.00  0.00    +0.000 HD
ENDROOT
BRANCH   1  11
ATOM      7  C   UNL     1       4.712   4.071  17.406  0.00  0.00    +0.000 A 
ATOM      8  C   UNL     1       5.059   3.647  16.116  0.00  0.00    +0.000 A 
ATOM      9  C   UNL     1       6.265   4.003  15.545  0.00  0.00    +0.000 A 
ATOM     10  C   UNL     1       7.128   4.831  16.246  0.00  0.00    +0.000 A 
ATOM     11  C   UNL     1       6.807   5.324  17.518  0.00  0.00    +0.000 A 
ATOM     12  C   UNL     1       5.593   4.929  18.100  0.00  0.00    +0.000 A 
BRANCH   7  18
ATOM     13  C   UNL     1       4.320   2.234  19.927  0.00  0.00    +0.000 C 
ATOM     14  N   UNL     1       3.284   2.817  19.107  0.00  0.00    +0.000 N 
ATOM     15  C   UNL     1       1.945   2.653  19.343  0.00  0.00    +0.000 A 
ATOM     16  C   UNL     1       1.319   3.423  18.399  0.00  0.00    +0.000 A 
ATOM     17  N   UNL     1       2.240   4.059  17.604  0.00  0.00    +0.000 NA
ATOM     18  C   UNL     1       3.433   3.658  18.015  0.00  0.00    +0.000 A 
ENDBRANCH   7  18
ENDBRANCH   1  11
BRANCH   4  19
ATOM     19  C   UNL     1       8.790   9.666  18.413  0.00  0.00    +0.000 C 
BRANCH  19  20
ATOM     20  C   UNL     1       9.447  10.556  19.515  0.00  0.00    +0.000 C 
BRANCH  20  21
ATOM     21  N   UNL     1      10.719  11.171  19.091  0.00  0.00    +0.000 NA
ATOM     22  C   UNL     1      11.301  12.066  20.117  0.00  0.00    +0.000 C 
ATOM     23  C   UNL     1      10.779  13.520  20.124  0.00  0.00    +0.000 C 
ATOM     24  O   UNL     1      10.866  14.119  18.829  0.00  0.00    +0.000 OA
ATOM     25  C   UNL     1      10.133  13.346  17.873  0.00  0.00    +0.000 C 
ATOM     26  C   UNL     1      10.660  11.904  17.808  0.00  0.00    +0.000 C 
ENDBRANCH  20  21
ENDBRANCH  19  20
ENDBRANCH   4  19
TORSDOF 5
ENDMDL
MODEL 2
REMARK VINA RESULT:      -7.9      0.677      1.147
REMARK  Name = 
REMARK  6 active torsions:
REMARK  status: ('A' for Active; 'I' for Inactive)
REMARK    1  A    between atoms: C_1  and  N_2
REMARK    2  A    between atoms: C_6  and  C_7
REMARK    3  A    between atoms: C_11  and  N_12
REMARK    4  A    between atoms: N_15  and  C_16
REMARK    5  A    between atoms: C_16  and  C_17
REMARK    6  A    between atoms: C_17  and  N_18
REMARK                            x       y       z     vdW  Elec       q    Type
REMARK                         _______ _______ _______ _____ _____    ______ ____
ROOT
ATOM      1  N   UNL     1       7.720   6.257  18.208  0.00  0.00    +0.000 N 
ATOM      2  C   UNL     1       7.800   7.606  17.975  0.00  0.00    +0.000 C 
ATOM      3  O   UNL     1       7.201   8.215  17.084  0.00  0.00    +0.000 OA
ATOM      4  N   UNL     1       8.634   8.285  18.826  0.00  0.00    +0.000 N 
ATOM      5  H   UNL     1       8.113   5.901  19.072  0.00  0.00    +0.000 HD
ATOM      6  H   UNL     1       9.459   7.765  19.091  0.00  0.00    +0.000 HD
ENDROOT
BRANCH   1  11
ATOM      7  C   UNL     1       4.885   4.018  17.224  0.00  0.00    +0.000 A 
ATOM      8  C   UNL     1       5.247   3.736  15.899  0.00  0.00    +0.000 A 
ATOM      9  C   UNL     1       6.424   4.218  15.360  0.00  0.00    +0.000 A 
ATOM     10  C   UNL     1       7.239   5.030  16.132  0.00  0.00    +0.000 A 
ATOM     11  C   UNL     1       6.899   5.384  17.445  0.00  0.00    +0.000 A 
ATOM     12  C   UNL     1       5.717   4.863  17.992  0.00  0.00    +0.000 A 
BRANCH   7  18
ATOM     13  C   UNL     1       2.345   5.638  18.121  0.00  0.00    +0.000 C 
ATOM     14  N   UNL     1       2.544   4.211  18.218  0.00  0.00    +0.000 N 
ATOM     15  C   UNL     1       1.607   3.345  18.716  0.00  0.00    +0.000 A 
ATOM     16  C   UNL     1       2.154   2.099  18.556  0.00  0.00    +0.000 A 
ATOM     17  N   UNL     1       3.390   2.183  17.965  0.00  0.00    +0.000 NA
ATOM     18  C   UNL     1       3.639   3.473  17.795  0.00  0.00    +0.000 A 
ENDBRANCH   7  18
ENDBRANCH   1  11
BRANCH   4  19
ATOM     19  C   UNL     1       8.868   9.693  18.515  0.00  0.00    +0.000 C 
BRANCH  19  20
ATOM     20  C   UNL     1       9.489  10.561  19.654  0.00  0.00    +0.000 C 
BRANCH  20  21
ATOM     21  N   UNL     1      10.705  11.287  19.241  0.00  0.00    +0.000 NA
ATOM     22  C   UNL     1      11.112  12.332  20.207  0.00  0.00    +0.000 C 
ATOM     23  C   UNL     1      10.425  13.707  20.050  0.00  0.00    +0.000 C 
ATOM     24  O   UNL     1      10.523  14.197  18.710  0.00  0.00    +0.000 OA
ATOM     25  C   UNL     1       9.947  13.260  17.795  0.00  0.00    +0.000 C 
ATOM     26  C   UNL     1      10.642  11.893  17.893  0.00  0.00    +0.000 C 
ENDBRANCH  20  21
ENDBRANCH  19  20
ENDBRANCH   4  19
TORSDOF 5
ENDMDL
MODEL 3
REMARK VINA RESULT:      -7.9      1.179      1.646
REMARK  Name = 
REMARK  6 active torsions:
REMARK  status: ('A' for Active; 'I' for Inactive)
REMARK    1  A    between atoms: C_1  and  N_2
REMARK    2  A    between atoms: C_6  and  C_7
REMARK    3  A    between atoms: C_11  and  N_12
REMARK    4  A    between atoms: N_15  and  C_16
REMARK    5  A    between atoms: C_16  and  C_17
REMARK    6  A    between atoms: C_17  and  N_18
REMARK                            x       y       z     vdW  Elec       q    Type
REMARK                         _______ _______ _______ _____ _____    ______ ____
ROOT
ATOM      1  N   UNL     1       6.742   7.551  16.920  0.00  0.00    +0.000 N 
ATOM      2  C   UNL     1       7.716   7.930  17.809  0.00  0.00    +0.000 C 
ATOM      3  O   UNL     1       8.307   7.176  18.587  0.00  0.00    +0.000 OA
ATOM      4  N   UNL     1       8.012   9.269  17.796  0.00  0.00    +0.000 N 
ATOM      5  H   UNL     1       6.459   8.221  16.213  0.00  0.00    +0.000 HD
ATOM      6  H   UNL     1       7.211   9.863  17.635  0.00  0.00    +0.000 HD
ENDROOT
BRANCH   1  11
ATOM      7  C   UNL     1       5.060   4.277  17.605  0.00  0.00    +0.000 A 
ATOM      8  C   UNL     1       5.379   3.589  16.426  0.00  0.00    +0.000 A 
ATOM      9  C   UNL     1       6.178   4.162  15.457  0.00  0.00    +0.000 A 
ATOM     10  C   UNL     1       6.637   5.457  15.636  0.00  0.00    +0.000 A 
ATOM     11  C   UNL     1       6.305   6.207  16.772  0.00  0.00    +0.000 A 
ATOM     12  C   UNL     1       5.519   5.604  17.764  0.00  0.00    +0.000 A 
BRANCH   7  18
ATOM     13  C   UNL     1       1.921   4.264  17.775  0.00  0.00    +0.000 C 
ATOM     14  N   UNL     1       2.844   3.680  18.719  0.00  0.00    +0.000 N 
ATOM     15  C   UNL     1       2.455   3.003  19.844  0.00  0.00    +0.000 A 
ATOM     16  C   UNL     1       3.618   2.551  20.409  0.00  0.00    +0.000 A 
ATOM     17  N   UNL     1       4.702   2.924  19.653  0.00  0.00    +0.000 NA
ATOM     18  C   UNL     1       4.228   3.642  18.646  0.00  0.00    +0.000 A 
ENDBRANCH   7  18
ENDBRANCH   1  11
BRANCH   4  19
ATOM     19  C   UNL     1       8.929   9.737  18.833  0.00  0.00    +0.000 C 
BRANCH  19  20
ATOM     20  C   UNL     1       9.664  11.085  18.550  0.00  0.00    +0.000 C 
BRANCH  20  21
ATOM     21  N   UNL     1      10.871  11.278  19.376  0.00  0.00    +0.000 NA
ATOM     22  C   UNL     1      10.606  12.029  20.624  0.00  0.00    +0.000 C 
ATOM     23  C   UNL     1      10.629  13.569  20.508  0.00  0.00    +0.000 C 
ATOM     24  O   UNL     1      11.830  14.035  19.887  0.00  0.00    +0.000 OA
ATOM     25  C   UNL     1      11.979  13.449  18.590  0.00  0.00    +0.000 C 
ATOM     26  C   UNL     1      12.009  11.915  18.678  0.00  0.00    +0.000 C 
ENDBRANCH  20  21
ENDBRANCH  19  20
ENDBRANCH   4  19
TORSDOF 5
ENDMDL
MODEL 4
REMARK VINA RESULT:      -7.9      0.593      1.175
REMARK  Name = 
REMARK  6 active torsions:
REMARK  status: ('A' for Active; 'I' for Inactive)
REMARK    1  A    between atoms: C_1  and  N_2
REMARK    2  A    between atoms: C_6  and  C_7
REMARK    3  A    between atoms: C_11  and  N_12
REMARK    4  A    between atoms: N_15  and  C_16
REMARK    5  A    between atoms: C_16  and  C_17
REMARK    6  A    between atoms: C_17  and  N_18
REMARK                            x       y       z     vdW  Elec       q    Type
REMARK                         _______ _______ _______ _____ _____    ______ ____
ROOT
ATOM      1  N   UNL     1       7.696   6.318  18.321  0.00  0.00    +0.000 N 
ATOM      2  C   UNL     1       7.794   7.656  18.036  0.00  0.00    +0.000 C 
ATOM      3  O   UNL     1       7.189   8.240  17.132  0.00  0.00    +0.000 OA
ATOM      4  N   UNL     1       8.654   8.353  18.844  0.00  0.00    +0.000 N 
ATOM      5  H   UNL     1       8.100   5.989  19.191  0.00  0.00    +0.000 HD
ATOM      6  H   UNL     1       9.474   7.829  19.115  0.00  0.00    +0.000 HD
ENDROOT
BRANCH   1  11
ATOM      7  C   UNL     1       4.767   4.160  17.436  0.00  0.00    +0.000 A 
ATOM      8  C   UNL     1       5.147   3.751  16.150  0.00  0.00    +0.000 A 
ATOM      9  C   UNL     1       6.362   4.124  15.610  0.00  0.00    +0.000 A 
ATOM     10  C   UNL     1       7.202   4.951  16.338  0.00  0.00    +0.000 A 
ATOM     11  C   UNL     1       6.848   5.430  17.607  0.00  0.00    +0.000 A 
ATOM     12  C   UNL     1       5.625   5.020  18.158  0.00  0.00    +0.000 A 
BRANCH   7  18
ATOM     13  C   UNL     1       4.334   2.240  19.887  0.00  0.00    +0.000 C 
ATOM     14  N   UNL     1       3.311   2.853  19.072  0.00  0.00    +0.000 N 
ATOM     15  C   UNL     1       1.969   2.685  19.284  0.00  0.00    +0.000 A 
ATOM     16  C   UNL     1       1.358   3.489  18.357  0.00  0.00    +0.000 A 
ATOM     17  N   UNL     1       2.292   4.150  17.598  0.00  0.00    +0.000 NA
ATOM     18  C   UNL     1       3.478   3.731  18.012  0.00  0.00    +0.000 A 
ENDBRANCH   7  18
ENDBRANCH   1  11
BRANCH   4  19
ATOM     19  C   UNL     1       8.904   9.744  18.475  0.00  0.00    +0.000 C 
BRANCH  19  20
ATOM     20  C   UNL     1       9.493  10.662  19.592  0.00  0.00    +0.000 C 
BRANCH  20  21
ATOM     21  N   UNL     1       9.437  12.098  19.259  0.00  0.00    +0.000 NA
ATOM     22  C   UNL     1       9.750  12.376  17.838  0.00  0.00    +0.000 C 
ATOM     23  C   UNL     1      11.248  12.511  17.487  0.00  0.00    +0.000 C 
ATOM     24  O   UNL     1      11.909  13.450  18.339  0.00  0.00    +0.000 OA
ATOM     25  C   UNL     1      11.766  13.064  19.709  0.00  0.00    +0.000 C 
ATOM     26  C   UNL     1      10.284  12.968  20.104  0.00  0.00    +0.000 C 
ENDBRANCH  20  21
ENDBRANCH  19  20
ENDBRANCH   4  19
TORSDOF 5
ENDMDL
MODEL 5
REMARK VINA RESULT:      -7.8      0.861      1.632
REMARK  Name = 
REMARK  6 active torsions:
REMARK  status: ('A' for Active; 'I' for Inactive)
REMARK    1  A    between atoms: C_1  and  N_2
REMARK    2  A    between atoms: C_6  and  C_7
REMARK    3  A    between atoms: C_11  and  N_12
REMARK    4  A    between atoms: N_15  and  C_16
REMARK    5  A    between atoms: C_16  and  C_17
REMARK    6  A    between atoms: C_17  and  N_18
REMARK                            x       y       z     vdW  Elec       q    Type
REMARK                         _______ _______ _______ _____ _____    ______ ____
ROOT
ATOM      1  N   UNL     1       7.712   6.164  18.181  0.00  0.00    +0.000 N 
ATOM      2  C   UNL     1       7.740   7.519  17.974  0.00  0.00    +0.000 C 
ATOM      3  O   UNL     1       7.072   8.128  17.133  0.00  0.00    +0.000 OA
ATOM      4  N   UNL     1       8.604   8.205  18.789  0.00  0.00    +0.000 N 
ATOM      5  H   UNL     1       8.167   5.802  19.012  0.00  0.00    +0.000 HD
ATOM      6  H   UNL     1       9.457   7.704  18.993  0.00  0.00    +0.000 HD
ENDROOT
BRANCH   1  11
ATOM      7  C   UNL     1       4.811   3.985  17.258  0.00  0.00    +0.000 A 
ATOM      8  C   UNL     1       5.187   3.618  15.958  0.00  0.00    +0.000 A 
ATOM      9  C   UNL     1       6.392   4.024  15.419  0.00  0.00    +0.000 A 
ATOM     10  C   UNL     1       7.224   4.845  16.164  0.00  0.00    +0.000 A 
ATOM     11  C   UNL     1       6.873   5.283  17.448  0.00  0.00    +0.000 A 
ATOM     12  C   UNL     1       5.661   4.837  17.997  0.00  0.00    +0.000 A 
BRANCH   7  18
ATOM     13  C   UNL     1       2.360   5.758  18.111  0.00  0.00    +0.000 C 
ATOM     14  N   UNL     1       2.479   4.325  18.234  0.00  0.00    +0.000 N 
ATOM     15  C   UNL     1       1.493   3.520  18.741  0.00  0.00    +0.000 A 
ATOM     16  C   UNL     1       1.971   2.243  18.607  0.00  0.00    +0.000 A 
ATOM     17  N   UNL     1       3.213   2.248  18.023  0.00  0.00    +0.000 NA
ATOM     18  C   UNL     1       3.534   3.519  17.832  0.00  0.00    +0.000 A 
ENDBRANCH   7  18
ENDBRANCH   1  11
BRANCH   4  19
ATOM     19  C   UNL     1       8.778   9.625  18.496  0.00  0.00    +0.000 C 
BRANCH  19  20
ATOM     20  C   UNL     1       9.509  10.473  19.584  0.00  0.00    +0.000 C 
BRANCH  20  21
ATOM     21  N   UNL     1       9.471  11.924  19.319  0.00  0.00    +0.000 NA
ATOM     22  C   UNL     1       9.779  12.264  17.911  0.00  0.00    +0.000 C 
ATOM     23  C   UNL     1      11.277  12.394  17.556  0.00  0.00    +0.000 C 
ATOM     24  O   UNL     1      11.956  13.283  18.446  0.00  0.00    +0.000 OA
ATOM     25  C   UNL     1      11.816  12.835  19.798  0.00  0.00    +0.000 C 
ATOM     26  C   UNL     1      10.335  12.742  20.198  0.00  0.00    +0.000 C 
ENDBRANCH  20  21
ENDBRANCH  19  20
ENDBRANCH   4  19
TORSDOF 5
ENDMDL
MODEL 6
REMARK VINA RESULT:      -7.7      1.083      1.139
REMARK  Name = 
REMARK  6 active torsions:
REMARK  status: ('A' for Active; 'I' for Inactive)
REMARK    1  A    between atoms: C_1  and  N_2
REMARK    2  A    between atoms: C_6  and  C_7
REMARK    3  A    between atoms: C_11  and  N_12
REMARK    4  A    between atoms: N_15  and  C_16
REMARK    5  A    between atoms: C_16  and  C_17
REMARK    6  A    between atoms: C_17  and  N_18
REMARK                            x       y       z     vdW  Elec       q    Type
REMARK                         _______ _______ _______ _____ _____    ______ ____
ROOT
ATOM      1  N   UNL     1       6.472   7.367  16.795  0.00  0.00    +0.000 N 
ATOM      2  C   UNL     1       7.486   7.674  17.665  0.00  0.00    +0.000 C 
ATOM      3  O   UNL     1       8.104   6.862  18.360  0.00  0.00    +0.000 OA
ATOM      4  N   UNL     1       7.793   9.009  17.737  0.00  0.00    +0.000 N 
ATOM      5  H   UNL     1       6.164   8.088  16.152  0.00  0.00    +0.000 HD
ATOM      6  H   UNL     1       6.992   9.618  17.655  0.00  0.00    +0.000 HD
ENDROOT
BRANCH   1  11
ATOM      7  C   UNL     1       4.444   4.229  17.031  0.00  0.00    +0.000 A 
ATOM      8  C   UNL     1       5.079   3.455  16.050  0.00  0.00    +0.000 A 
ATOM      9  C   UNL     1       6.185   3.927  15.370  0.00  0.00    +0.000 A 
ATOM     10  C   UNL     1       6.647   5.206  15.635  0.00  0.00    +0.000 A 
ATOM     11  C   UNL     1       6.017   6.040  16.569  0.00  0.00    +0.000 A 
ATOM     12  C   UNL     1       4.914   5.538  17.275  0.00  0.00    +0.000 A 
BRANCH   7  18
ATOM     13  C   UNL     1       4.477   2.730  19.794  0.00  0.00    +0.000 C 
ATOM     14  N   UNL     1       3.323   3.009  18.971  0.00  0.00    +0.000 N 
ATOM     15  C   UNL     1       2.044   2.661  19.312  0.00  0.00    +0.000 A 
ATOM     16  C   UNL     1       1.257   3.174  18.315  0.00  0.00    +0.000 A 
ATOM     17  N   UNL     1       2.020   3.835  17.386  0.00  0.00    +0.000 NA
ATOM     18  C   UNL     1       3.281   3.700  17.770  0.00  0.00    +0.000 A 
ENDBRANCH   7  18
ENDBRANCH   1  11
BRANCH   4  19
ATOM     19  C   UNL     1       8.758   9.395  18.764  0.00  0.00    +0.000 C 
BRANCH  19  20
ATOM     20  C   UNL     1       9.633  10.651  18.455  0.00  0.00    +0.000 C 
BRANCH  20  21
ATOM     21  N   UNL     1      10.322  11.190  19.643  0.00  0.00    +0.000 NA
ATOM     22  C   UNL     1       9.508  12.180  20.386  0.00  0.00    +0.000 C 
ATOM     23  C   UNL     1       9.577  13.636  19.875  0.00  0.00    +0.000 C 
ATOM     24  O   UNL     1      10.927  14.089  19.752  0.00  0.00    +0.000 OA
ATOM     25  C   UNL     1      11.661  13.232  18.871  0.00  0.00    +0.000 C 
ATOM     26  C   UNL     1      11.652  11.781  19.379  0.00  0.00    +0.000 C 
ENDBRANCH  20  21
ENDBRANCH  19  20
ENDBRANCH   4  19
TORSDOF 5
ENDMDL
MODEL 7
REMARK VINA RESULT:      -7.7      1.371      1.492
REMARK  Name = 
REMARK  6 active torsions:
REMARK  status: ('A' for Active; 'I' for Inactive)
REMARK    1  A    between atoms: C_1  and  N_2
REMARK    2  A    between atoms: C_6  and  C_7
REMARK    3  A    between atoms: C_11  and  N_12
REMARK    4  A    between atoms: N_15  and  C_16
REMARK    5  A    between atoms: C_16  and  C_17
REMARK    6  A    between atoms: C_17  and  N_18
REMARK                            x       y       z     vdW  Elec       q    Type
REMARK                         _______ _______ _______ _____ _____    ______ ____
ROOT
ATOM      1  N   UNL     1       6.787   7.493  16.808  0.00  0.00    +0.000 N 
ATOM      2  C   UNL     1       7.708   7.774  17.785  0.00  0.00    +0.000 C 
ATOM      3  O   UNL     1       8.139   6.967  18.614  0.00  0.00    +0.000 OA
ATOM      4  N   UNL     1       8.146   9.073  17.802  0.00  0.00    +0.000 N 
ATOM      5  H   UNL     1       6.645   8.183  16.079  0.00  0.00    +0.000 HD
ATOM      6  H   UNL     1       7.432   9.748  17.568  0.00  0.00    +0.000 HD
ENDROOT
BRANCH   1  11
ATOM      7  C   UNL     1       4.460   4.571  17.056  0.00  0.00    +0.000 A 
ATOM      8  C   UNL     1       5.082   3.688  16.164  0.00  0.00    +0.000 A 
ATOM      9  C   UNL     1       6.271   4.018  15.542  0.00  0.00    +0.000 A 
ATOM     10  C   UNL     1       6.833   5.263  15.774  0.00  0.00    +0.000 A 
ATOM     11  C   UNL     1       6.225   6.202  16.617  0.00  0.00    +0.000 A 
ATOM     12  C   UNL     1       5.035   5.844  17.268  0.00  0.00    +0.000 A 
BRANCH   7  18
ATOM     13  C   UNL     1       3.487   5.509  19.895  0.00  0.00    +0.000 C 
ATOM     14  N   UNL     1       2.814   4.592  19.005  0.00  0.00    +0.000 N 
ATOM     15  C   UNL     1       1.609   4.005  19.287  0.00  0.00    +0.000 A 
ATOM     16  C   UNL     1       1.292   3.285  18.166  0.00  0.00    +0.000 A 
ATOM     17  N   UNL     1       2.263   3.428  17.207  0.00  0.00    +0.000 NA
ATOM     18  C   UNL     1       3.205   4.194  17.736  0.00  0.00    +0.000 A 
ENDBRANCH   7  18
ENDBRANCH   1  11
BRANCH   4  19
ATOM     19  C   UNL     1       9.006   9.450  18.921  0.00  0.00    +0.000 C 
BRANCH  19  20
ATOM     20  C   UNL     1       9.215  10.980  19.151  0.00  0.00    +0.000 C 
BRANCH  20  21
ATOM     21  N   UNL     1       9.591  11.710  17.926  0.00  0.00    +0.000 NA
ATOM     22  C   UNL     1      11.054  11.748  17.700  0.00  0.00    +0.000 C 
ATOM     23  C   UNL     1      11.823  12.876  18.422  0.00  0.00    +0.000 C 
ATOM     24  O   UNL     1      11.244  14.158  18.169  0.00  0.00    +0.000 OA
ATOM     25  C   UNL     1       9.871  14.171  18.574  0.00  0.00    +0.000 C 
ATOM     26  C   UNL     1       9.067  13.090  17.835  0.00  0.00    +0.000 C 
ENDBRANCH  20  21
ENDBRANCH  19  20
ENDBRANCH   4  19
TORSDOF 5
ENDMDL
MODEL 8
REMARK VINA RESULT:      -7.6      1.083      1.450
REMARK  Name = 
REMARK  6 active torsions:
REMARK  status: ('A' for Active; 'I' for Inactive)
REMARK    1  A    between atoms: C_1  and  N_2
REMARK    2  A    between atoms: C_6  and  C_7
REMARK    3  A    between atoms: C_11  and  N_12
REMARK    4  A    between atoms: N_15  and  C_16
REMARK    5  A    between atoms: C_16  and  C_17
REMARK    6  A    between atoms: C_17  and  N_18
REMARK                            x       y       z     vdW  Elec       q    Type
REMARK                         _______ _______ _______ _____ _____    ______ ____
ROOT
ATOM      1  N   UNL     1       6.641   7.551  16.851  0.00  0.00    +0.000 N 
ATOM      2  C   UNL     1       7.627   7.904  17.737  0.00  0.00    +0.000 C 
ATOM      3  O   UNL     1       8.201   7.134  18.512  0.00  0.00    +0.000 OA
ATOM      4  N   UNL     1       7.958   9.234  17.724  0.00  0.00    +0.000 N 
ATOM      5  H   UNL     1       6.373   8.229  16.146  0.00  0.00    +0.000 HD
ATOM      6  H   UNL     1       7.173   9.850  17.567  0.00  0.00    +0.000 HD
ENDROOT
BRANCH   1  11
ATOM      7  C   UNL     1       4.536   4.478  17.225  0.00  0.00    +0.000 A 
ATOM      8  C   UNL     1       5.199   3.620  16.336  0.00  0.00    +0.000 A 
ATOM      9  C   UNL     1       6.345   4.019  15.676  0.00  0.00    +0.000 A 
ATOM     10  C   UNL     1       6.822   5.306  15.866  0.00  0.00    +0.000 A 
ATOM     11  C   UNL     1       6.168   6.220  16.704  0.00  0.00    +0.000 A 
ATOM     12  C   UNL     1       5.023   5.793  17.393  0.00  0.00    +0.000 A 
BRANCH   7  18
ATOM     13  C   UNL     1       4.426   2.655  19.784  0.00  0.00    +0.000 C 
ATOM     14  N   UNL     1       3.303   3.194  19.052  0.00  0.00    +0.000 N 
ATOM     15  C   UNL     1       1.996   2.986  19.404  0.00  0.00    +0.000 A 
ATOM     16  C   UNL     1       1.265   3.725  18.511  0.00  0.00    +0.000 A 
ATOM     17  N   UNL     1       2.091   4.384  17.635  0.00  0.00    +0.000 NA
ATOM     18  C   UNL     1       3.329   4.028  17.945  0.00  0.00    +0.000 A 
ENDBRANCH   7  18
ENDBRANCH   1  11
BRANCH   4  19
ATOM     19  C   UNL     1       8.891   9.678  18.758  0.00  0.00    +0.000 C 
BRANCH  19  20
ATOM     20  C   UNL     1       9.802  10.892  18.395  0.00  0.00    +0.000 C 
BRANCH  20  21
ATOM     21  N   UNL     1       9.190  12.197  18.706  0.00  0.00    +0.000 NA
ATOM     22  C   UNL     1       9.746  13.306  17.897  0.00  0.00    +0.000 C 
ATOM     23  C   UNL     1      11.038  13.958  18.436  0.00  0.00    +0.000 C 
ATOM     24  O   UNL     1      10.901  14.355  19.803  0.00  0.00    +0.000 OA
ATOM     25  C   UNL     1      10.552  13.229  20.614  0.00  0.00    +0.000 C 
ATOM     26  C   UNL     1       9.241  12.586  20.132  0.00  0.00    +0.000 C 
ENDBRANCH  20  21
ENDBRANCH  19  20
ENDBRANCH   4  19
TORSDOF 5
ENDMDL
MODEL 9
REMARK VINA RESULT:      -7.6      1.220      1.304
REMARK  Name = 
REMARK  6 active torsions:
REMARK  status: ('A' for Active; 'I' for Inactive)
REMARK    1  A    between atoms: C_1  and  N_2
REMARK    2  A    between atoms: C_6  and  C_7
REMARK    3  A    between atoms: C_11  and  N_12
REMARK    4  A    between atoms: N_15  and  C_16
REMARK    5  A    between atoms: C_16  and  C_17
REMARK    6  A    between atoms: C_17  and  N_18
REMARK                            x       y       z     vdW  Elec       q    Type
REMARK                         _______ _______ _______ _____ _____    ______ ____
ROOT
ATOM      1  N   UNL     1       6.607   7.452  16.910  0.00  0.00    +0.000 N 
ATOM      2  C   UNL     1       7.609   7.689  17.817  0.00  0.00    +0.000 C 
ATOM      3  O   UNL     1       8.093   6.851  18.583  0.00  0.00    +0.000 OA
ATOM      4  N   UNL     1       8.067   8.981  17.838  0.00  0.00    +0.000 N 
ATOM      5  H   UNL     1       6.417   8.167  16.216  0.00  0.00    +0.000 HD
ATOM      6  H   UNL     1       7.347   9.672  17.683  0.00  0.00    +0.000 HD
ENDROOT
BRANCH   1  11
ATOM      7  C   UNL     1       4.311   4.523  17.317  0.00  0.00    +0.000 A 
ATOM      8  C   UNL     1       4.792   3.693  16.294  0.00  0.00    +0.000 A 
ATOM      9  C   UNL     1       5.882   4.058  15.529  0.00  0.00    +0.000 A 
ATOM     10  C   UNL     1       6.484   5.287  15.751  0.00  0.00    +0.000 A 
ATOM     11  C   UNL     1       6.012   6.175  16.726  0.00  0.00    +0.000 A 
ATOM     12  C   UNL     1       4.923   5.780  17.518  0.00  0.00    +0.000 A 
BRANCH   7  18
ATOM     13  C   UNL     1       3.645   1.615  18.308  0.00  0.00    +0.000 C 
ATOM     14  N   UNL     1       2.869   2.811  18.541  0.00  0.00    +0.000 N 
ATOM     15  C   UNL     1       1.709   2.836  19.267  0.00  0.00    +0.000 A 
ATOM     16  C   UNL     1       1.344   4.156  19.312  0.00  0.00    +0.000 A 
ATOM     17  N   UNL     1       2.256   4.934  18.645  0.00  0.00    +0.000 NA
ATOM     18  C   UNL     1       3.163   4.107  18.145  0.00  0.00    +0.000 A 
ENDBRANCH   7  18
ENDBRANCH   1  11
BRANCH   4  19
ATOM     19  C   UNL     1       9.021   9.311  18.895  0.00  0.00    +0.000 C 
BRANCH  19  20
ATOM     20  C   UNL     1       9.307  10.828  19.122  0.00  0.00    +0.000 C 
BRANCH  20  21
ATOM     21  N   UNL     1       9.699  11.541  17.891  0.00  0.00    +0.000 NA
ATOM     22  C   UNL     1      11.142  11.870  17.847  0.00  0.00    +0.000 C 
ATOM     23  C   UNL     1      11.562  13.178  18.553  0.00  0.00    +0.000 C 
ATOM     24  O   UNL     1      10.781  14.291  18.114  0.00  0.00    +0.000 OA
ATOM     25  C   UNL     1       9.390  14.043  18.342  0.00  0.00    +0.000 C 
ATOM     26  C   UNL     1       8.929  12.772  17.611  0.00  0.00    +0.000 C 
ENDBRANCH  20  21
ENDBRANCH  19  20
ENDBRANCH   4  19
TORSDOF 5
ENDMDL
