MODEL 1
REMARK VINA RESULT:      -8.1      0.000      0.000
REMARK  Name = 
REMARK  5 active torsions:
REMARK  status: ('A' for Active; 'I' for Inactive)
REMARK    1  A    between atoms: C_2  and  C_3
REMARK    2  A    between atoms: C_3  and  O_4
REMARK    3  A    between atoms: O_4  and  C_5
REMARK    4  A    between atoms: C_8  and  N_9
REMARK    5  A    between atoms: N_16  and  C_17
REMARK                            x       y       z     vdW  Elec       q    Type
REMARK                         _______ _______ _______ _____ _____    ______ ____
ROOT
ATOM      1  C   UNL     1       2.550   3.497  21.098  0.00  0.00    +0.000 C 
ENDROOT
BRANCH   1   3
ATOM      2  O   UNL     1       0.595   4.597  20.309  0.00  0.00    +0.000 OA
ATOM      3  C   UNL     1       1.800   4.704  20.548  0.00  0.00    +0.000 C 
ATOM      4  N   UNL     1       2.545   5.851  20.374  0.00  0.00    +0.000 N 
ATOM      5  H   UNL     1       3.560   5.753  20.391  0.00  0.00    +0.000 HD
BRANCH   4   6
ATOM      6  C   UNL     1       2.020   7.125  20.062  0.00  0.00    +0.000 A 
ATOM      7  C   UNL     1       1.350   7.917  21.003  0.00  0.00    +0.000 A 
ATOM      8  C   UNL     1       0.890   9.190  20.669  0.00  0.00    +0.000 A 
ATOM      9  C   UNL     1       1.095   9.689  19.384  0.00  0.00    +0.000 A 
ATOM     10 BR   UNL     1       0.494  11.427  18.952  0.00  0.00    +0.000 Br
ATOM     11  C   UNL     1       1.748   8.918  18.426  0.00  0.00    +0.000 A 
ATOM     12  C   UNL     1       2.210   7.646  18.778  0.00  0.00    +0.000 A 
ATOM     13  F   UNL     1       2.830   6.907  17.845  0.00  0.00    +0.000 F 
ENDBRANCH   4   6
ENDBRANCH   1   3
BRANCH   1  14
ATOM     14  O   UNL     1       2.995   2.560  20.127  0.00  0.00    +0.000 OA
BRANCH  14  15
ATOM     15  C   UNL     1       3.787   3.116  19.151  0.00  0.00    +0.000 A 
ATOM     16  C   UNL     1       3.290   3.032  17.851  0.00  0.00    +0.000 A 
ATOM     17  C   UNL     1       4.023   3.541  16.773  0.00  0.00    +0.000 A 
ATOM     18  C   UNL     1       5.266   4.148  16.996  0.00  0.00    +0.000 A 
ATOM     19  C   UNL     1       5.749   4.265  18.305  0.00  0.00    +0.000 A 
ATOM     20  C   UNL     1       5.009   3.757  19.375  0.00  0.00    +0.000 A 
BRANCH  18  21
ATOM     21  N   UNL     1       6.049   4.627  15.920  0.00  0.00    +0.000 N 
ATOM     22  C   UNL     1       5.826   4.535  14.570  0.00  0.00    +0.000 A 
ATOM     23  N   UNL     1       6.837   5.066  13.924  0.00  0.00    +0.000 NA
ATOM     24  N   UNL     1       7.701   5.514  14.888  0.00  0.00    +0.000 NA
ATOM     25  N   UNL     1       7.229   5.265  16.101  0.00  0.00    +0.000 NA
ENDBRANCH  18  21
ENDBRANCH  14  15
ENDBRANCH   1  14
TORSDOF 5
ENDMDL
MODEL 2
REMARK VINA RESULT:      -7.8      1.025      1.727
REMARK  Name = 
REMARK  5 active torsions:
REMARK  status: ('A' for Active; 'I' for Inactive)
REMARK    1  A    between atoms: C_2  and  C_3
REMARK    2  A    between atoms: C_3  and  O_4
REMARK    3  A    between atoms: O_4  and  C_5
REMARK    4  A    between atoms: C_8  and  N_9
REMARK    5  A    between atoms: N_16  and  C_17
REMARK                            x       y       z     vdW  Elec       q    Type
REMARK                         _______ _______ _______ _____ _____    ______ ____
ROOT
ATOM      1  C   UNL     1       2.588   4.070  21.141  0.00  0.00    +0.000 C 
ENDROOT
BRANCH   1   3
ATOM      2  O   UNL     1       0.600   5.106  20.346  0.00  0.00    +0.000 OA
ATOM      3  C   UNL     1       1.813   5.232  20.530  0.00  0.00    +0.000 C 
ATOM      4  N   UNL     1       2.546   6.363  20.242  0.00  0.00    +0.000 N 
ATOM      5  H   UNL     1       3.561   6.268  20.228  0.00  0.00    +0.000 HD
BRANCH   4   6
ATOM      6  C   UNL     1       2.005   7.610  19.856  0.00  0.00    +0.000 A 
ATOM      7  C   UNL     1       2.039   8.072  18.535  0.00  0.00    +0.000 A 
ATOM      8  C   UNL     1       1.450   9.288  18.187  0.00  0.00    +0.000 A 
ATOM      9  C   UNL     1       0.818  10.059  19.161  0.00  0.00    +0.000 A 
ATOM     10 BR   UNL     1      -0.002  11.689  18.671  0.00  0.00    +0.000 Br
ATOM     11  C   UNL     1       0.780   9.628  20.484  0.00  0.00    +0.000 A 
ATOM     12  C   UNL     1       1.369   8.404  20.817  0.00  0.00    +0.000 A 
ATOM     13  F   UNL     1       1.335   8.001  22.096  0.00  0.00    +0.000 F 
ENDBRANCH   4   6
ENDBRANCH   1   3
BRANCH   1  14
ATOM     14  O   UNL     1       2.846   2.981  20.264  0.00  0.00    +0.000 OA
BRANCH  14  15
ATOM     15  C   UNL     1       3.569   3.333  19.151  0.00  0.00    +0.000 A 
ATOM     16  C   UNL     1       4.865   3.789  19.393  0.00  0.00    +0.000 A 
ATOM     17  C   UNL     1       5.686   4.200  18.337  0.00  0.00    +0.000 A 
ATOM     18  C   UNL     1       5.210   4.148  17.020  0.00  0.00    +0.000 A 
ATOM     19  C   UNL     1       3.923   3.656  16.772  0.00  0.00    +0.000 A 
ATOM     20  C   UNL     1       3.112   3.246  17.833  0.00  0.00    +0.000 A 
BRANCH  18  21
ATOM     21  N   UNL     1       6.001   4.603  15.939  0.00  0.00    +0.000 N 
ATOM     22  C   UNL     1       5.702   4.661  14.602  0.00  0.00    +0.000 A 
ATOM     23  N   UNL     1       6.747   5.097  13.939  0.00  0.00    +0.000 NA
ATOM     24  N   UNL     1       7.713   5.331  14.882  0.00  0.00    +0.000 NA
ATOM     25  N   UNL     1       7.270   5.047  16.097  0.00  0.00    +0.000 NA
ENDBRANCH  18  21
ENDBRANCH  14  15
ENDBRANCH   1  14
TORSDOF 5
ENDMDL
MODEL 3
REMARK VINA RESULT:      -7.7      1.074      1.182
REMARK  Name = 
REMARK  5 active torsions:
REMARK  status: ('A' for Active; 'I' for Inactive)
REMARK    1  A    between atoms: C_2  and  C_3
REMARK    2  A    between atoms: C_3  and  O_4
REMARK    3  A    between atoms: O_4  and  C_5
REMARK    4  A    between atoms: C_8  and  N_9
REMARK    5  A    between atoms: N_16  and  C_17
REMARK                            x       y       z     vdW  Elec       q    Type
REMARK                         _______ _______ _______ _____ _____    ______ ____
ROOT
ATOM      1  C   UNL     1       3.366   4.475  20.323  0.00  0.00    +0.000 C 
ENDROOT
BRANCH   1   3
ATOM      2  O   UNL     1       1.494   5.157  19.024  0.00  0.00    +0.000 OA
ATOM      3  C   UNL     1       2.438   5.527  19.726  0.00  0.00    +0.000 C 
ATOM      4  N   UNL     1       2.727   6.837  20.043  0.00  0.00    +0.000 N 
ATOM      5  H   UNL     1       3.647   7.028  20.437  0.00  0.00    +0.000 HD
BRANCH   4   6
ATOM      6  C   UNL     1       1.898   7.946  19.761  0.00  0.00    +0.000 A 
ATOM      7  C   UNL     1       1.081   8.543  20.729  0.00  0.00    +0.000 A 
ATOM      8  C   UNL     1       0.314   9.668  20.423  0.00  0.00    +0.000 A 
ATOM      9  C   UNL     1       0.355  10.209  19.140  0.00  0.00    +0.000 A 
ATOM     10 BR   UNL     1      -0.665  11.750  18.746  0.00  0.00    +0.000 Br
ATOM     11  C   UNL     1       1.150   9.628  18.156  0.00  0.00    +0.000 A 
ATOM     12  C   UNL     1       1.919   8.505  18.479  0.00  0.00    +0.000 A 
ATOM     13  F   UNL     1       2.675   7.947  17.521  0.00  0.00    +0.000 F 
ENDBRANCH   4   6
ENDBRANCH   1   3
BRANCH   1  14
ATOM     14  O   UNL     1       3.703   3.398  19.459  0.00  0.00    +0.000 OA
BRANCH  14  15
ATOM     15  C   UNL     1       4.474   3.777  18.387  0.00  0.00    +0.000 A 
ATOM     16  C   UNL     1       3.921   3.532  17.129  0.00  0.00    +0.000 A 
ATOM     17  C   UNL     1       4.628   3.853  15.965  0.00  0.00    +0.000 A 
ATOM     18  C   UNL     1       5.900   4.432  16.055  0.00  0.00    +0.000 A 
ATOM     19  C   UNL     1       6.441   4.712  17.316  0.00  0.00    +0.000 A 
ATOM     20  C   UNL     1       5.727   4.391  18.473  0.00  0.00    +0.000 A 
BRANCH  18  21
ATOM     21  N   UNL     1       6.655   4.721  14.895  0.00  0.00    +0.000 N 
ATOM     22  C   UNL     1       6.539   4.209  13.628  0.00  0.00    +0.000 A 
ATOM     23  N   UNL     1       7.482   4.712  12.866  0.00  0.00    +0.000 NA
ATOM     24  N   UNL     1       8.192   5.566  13.668  0.00  0.00    +0.000 NA
ATOM     25  N   UNL     1       7.693   5.590  14.895  0.00  0.00    +0.000 NA
ENDBRANCH  18  21
ENDBRANCH  14  15
ENDBRANCH   1  14
TORSDOF 5
ENDMDL
MODEL 4
REMARK VINA RESULT:      -7.6      1.745      2.456
REMARK  Name = 
REMARK  5 active torsions:
REMARK  status: ('A' for Active; 'I' for Inactive)
REMARK    1  A    between atoms: C_2  and  C_3
REMARK    2  A    between atoms: C_3  and  O_4
REMARK    3  A    between atoms: O_4  and  C_5
REMARK    4  A    between atoms: C_8  and  N_9
REMARK    5  A    between atoms: N_16  and  C_17
REMARK                            x       y       z     vdW  Elec       q    Type
REMARK                         _______ _______ _______ _____ _____    ______ ____
ROOT
ATOM      1  C   UNL     1       3.492   4.704  19.755  0.00  0.00    +0.000 C 
ENDROOT
BRANCH   1   3
ATOM      2  O   UNL     1       1.931   5.593  18.197  0.00  0.00    +0.000 OA
ATOM      3  C   UNL     1       2.645   5.830  19.174  0.00  0.00    +0.000 C 
ATOM      4  N   UNL     1       2.736   7.047  19.814  0.00  0.00    +0.000 N 
ATOM      5  H   UNL     1       3.517   7.176  20.458  0.00  0.00    +0.000 HD
BRANCH   4   6
ATOM      6  C   UNL     1       1.905   8.163  19.568  0.00  0.00    +0.000 A 
ATOM      7  C   UNL     1       1.811   8.772  18.311  0.00  0.00    +0.000 A 
ATOM      8  C   UNL     1       0.941   9.841  18.097  0.00  0.00    +0.000 A 
ATOM      9  C   UNL     1       0.153  10.317  19.144  0.00  0.00    +0.000 A 
ATOM     10 BR   UNL     1      -1.043  11.746  18.835  0.00  0.00    +0.000 Br
ATOM     11  C   UNL     1       0.236   9.737  20.407  0.00  0.00    +0.000 A 
ATOM     12  C   UNL     1       1.107   8.661  20.604  0.00  0.00    +0.000 A 
ATOM     13  F   UNL     1       1.187   8.114  21.827  0.00  0.00    +0.000 F 
ENDBRANCH   4   6
ENDBRANCH   1   3
BRANCH   1  14
ATOM     14  O   UNL     1       4.897   4.864  19.618  0.00  0.00    +0.000 OA
BRANCH  14  15
ATOM     15  C   UNL     1       5.338   4.753  18.322  0.00  0.00    +0.000 A 
ATOM     16  C   UNL     1       6.310   5.676  17.935  0.00  0.00    +0.000 A 
ATOM     17  C   UNL     1       6.814   5.674  16.629  0.00  0.00    +0.000 A 
ATOM     18  C   UNL     1       6.348   4.735  15.700  0.00  0.00    +0.000 A 
ATOM     19  C   UNL     1       5.399   3.785  16.098  0.00  0.00    +0.000 A 
ATOM     20  C   UNL     1       4.904   3.792  17.404  0.00  0.00    +0.000 A 
BRANCH  18  21
ATOM     21  N   UNL     1       6.805   4.743  14.361  0.00  0.00    +0.000 N 
ATOM     22  C   UNL     1       6.414   3.967  13.301  0.00  0.00    +0.000 A 
ATOM     23  N   UNL     1       7.140   4.267  12.249  0.00  0.00    +0.000 NA
ATOM     24  N   UNL     1       7.991   5.261  12.656  0.00  0.00    +0.000 NA
ATOM     25  N   UNL     1       7.789   5.566  13.930  0.00  0.00    +0.000 NA
ENDBRANCH  18  21
ENDBRANCH  14  15
ENDBRANCH   1  14
TORSDOF 5
ENDMDL
MODEL 5
REMARK VINA RESULT:      -7.5      1.408      1.876
REMARK  Name = 
REMARK  5 active torsions:
REMARK  status: ('A' for Active; 'I' for Inactive)
REMARK    1  A    between atoms: C_2  and  C_3
REMARK    2  A    between atoms: C_3  and  O_4
REMARK    3  A    between atoms: O_4  and  C_5
REMARK    4  A    between atoms: C_8  and  N_9
REMARK    5  A    between atoms: N_16  and  C_17
REMARK                            x       y       z     vdW  Elec       q    Type
REMARK                         _______ _______ _______ _____ _____    ______ ____
ROOT
ATOM      1  C   UNL     1       3.713   4.090  19.422  0.00  0.00    +0.000 C 
ENDROOT
BRANCH   1   3
ATOM      2  O   UNL     1       1.626   4.907  18.626  0.00  0.00    +0.000 OA
ATOM      3  C   UNL     1       2.671   5.185  19.219  0.00  0.00    +0.000 C 
ATOM      4  N   UNL     1       2.983   6.421  19.742  0.00  0.00    +0.000 N 
ATOM      5  H   UNL     1       3.954   6.582  20.006  0.00  0.00    +0.000 HD
BRANCH   4   6
ATOM      6  C   UNL     1       2.093   7.514  19.838  0.00  0.00    +0.000 A 
ATOM      7  C   UNL     1       1.390   7.816  21.011  0.00  0.00    +0.000 A 
ATOM      8  C   UNL     1       0.558   8.933  21.080  0.00  0.00    +0.000 A 
ATOM      9  C   UNL     1       0.419   9.766  19.970  0.00  0.00    +0.000 A 
ATOM     10 BR   UNL     1      -0.687  11.293  20.085  0.00  0.00    +0.000 Br
ATOM     11  C   UNL     1       1.098   9.482  18.789  0.00  0.00    +0.000 A 
ATOM     12  C   UNL     1       1.934   8.363  18.737  0.00  0.00    +0.000 A 
ATOM     13  F   UNL     1       2.577   8.093  17.591  0.00  0.00    +0.000 F 
ENDBRANCH   4   6
ENDBRANCH   1   3
BRANCH   1  14
ATOM     14  O   UNL     1       5.066   4.523  19.391  0.00  0.00    +0.000 OA
BRANCH  14  15
ATOM     15  C   UNL     1       5.586   4.608  18.123  0.00  0.00    +0.000 A 
ATOM     16  C   UNL     1       4.658   4.530  17.084  0.00  0.00    +0.000 A 
ATOM     17  C   UNL     1       5.076   4.579  15.749  0.00  0.00    +0.000 A 
ATOM     18  C   UNL     1       6.437   4.714  15.446  0.00  0.00    +0.000 A 
ATOM     19  C   UNL     1       7.366   4.828  16.488  0.00  0.00    +0.000 A 
ATOM     20  C   UNL     1       6.939   4.782  17.818  0.00  0.00    +0.000 A 
BRANCH  18  21
ATOM     21  N   UNL     1       6.890   4.717  14.107  0.00  0.00    +0.000 N 
ATOM     22  C   UNL     1       6.513   3.921  13.056  0.00  0.00    +0.000 A 
ATOM     23  N   UNL     1       7.230   4.224  11.999  0.00  0.00    +0.000 NA
ATOM     24  N   UNL     1       8.059   5.241  12.392  0.00  0.00    +0.000 NA
ATOM     25  N   UNL     1       7.855   5.557  13.663  0.00  0.00    +0.000 NA
ENDBRANCH  18  21
ENDBRANCH  14  15
ENDBRANCH   1  14
TORSDOF 5
ENDMDL
MODEL 6
REMARK VINA RESULT:      -7.5      1.711      2.308
REMARK  Name = 
REMARK  5 active torsions:
REMARK  status: ('A' for Active; 'I' for Inactive)
REMARK    1  A    between atoms: C_2  and  C_3
REMARK    2  A    between atoms: C_3  and  O_4
REMARK    3  A    between atoms: O_4  and  C_5
REMARK    4  A    between atoms: C_8  and  N_9
REMARK    5  A    between atoms: N_16  and  C_17
REMARK                            x       y       z     vdW  Elec       q    Type
REMARK                         _______ _______ _______ _____ _____    ______ ____
ROOT
ATOM      1  C   UNL     1       3.697   4.611  19.727  0.00  0.00    +0.000 C 
ENDROOT
BRANCH   1   3
ATOM      2  O   UNL     1       1.668   5.245  18.660  0.00  0.00    +0.000 OA
ATOM      3  C   UNL     1       2.669   5.637  19.263  0.00  0.00    +0.000 C 
ATOM      4  N   UNL     1       2.941   6.951  19.580  0.00  0.00    +0.000 N 
ATOM      5  H   UNL     1       3.892   7.170  19.875  0.00  0.00    +0.000 HD
BRANCH   4   6
ATOM      6  C   UNL     1       2.044   8.031  19.421  0.00  0.00    +0.000 A 
ATOM      7  C   UNL     1       1.873   8.698  18.202  0.00  0.00    +0.000 A 
ATOM      8  C   UNL     1       0.942   9.728  18.074  0.00  0.00    +0.000 A 
ATOM      9  C   UNL     1       0.167  10.105  19.170  0.00  0.00    +0.000 A 
ATOM     10 BR   UNL     1      -1.112  11.482  18.977  0.00  0.00    +0.000 Br
ATOM     11  C   UNL     1       0.326   9.467  20.397  0.00  0.00    +0.000 A 
ATOM     12  C   UNL     1       1.258   8.431  20.507  0.00  0.00    +0.000 A 
ATOM     13  F   UNL     1       1.410   7.827  21.696  0.00  0.00    +0.000 F 
ENDBRANCH   4   6
ENDBRANCH   1   3
BRANCH   1  14
ATOM     14  O   UNL     1       5.056   5.007  19.595  0.00  0.00    +0.000 OA
BRANCH  14  15
ATOM     15  C   UNL     1       5.501   5.016  18.296  0.00  0.00    +0.000 A 
ATOM     16  C   UNL     1       4.876   4.111  17.438  0.00  0.00    +0.000 A 
ATOM     17  C   UNL     1       5.266   4.014  16.097  0.00  0.00    +0.000 A 
ATOM     18  C   UNL     1       6.288   4.836  15.604  0.00  0.00    +0.000 A 
ATOM     19  C   UNL     1       6.891   5.770  16.455  0.00  0.00    +0.000 A 
ATOM     20  C   UNL     1       6.493   5.862  17.791  0.00  0.00    +0.000 A 
BRANCH  18  21
ATOM     21  N   UNL     1       6.734   4.724  14.267  0.00  0.00    +0.000 N 
ATOM     22  C   UNL     1       6.348   3.843  13.289  0.00  0.00    +0.000 A 
ATOM     23  N   UNL     1       7.060   4.054  12.206  0.00  0.00    +0.000 NA
ATOM     24  N   UNL     1       7.895   5.097  12.508  0.00  0.00    +0.000 NA
ATOM     25  N   UNL     1       7.699   5.519  13.748  0.00  0.00    +0.000 NA
ENDBRANCH  18  21
ENDBRANCH  14  15
ENDBRANCH   1  14
TORSDOF 5
ENDMDL
MODEL 7
REMARK VINA RESULT:      -7.5      6.506      7.314
REMARK  Name = 
REMARK  5 active torsions:
REMARK  status: ('A' for Active; 'I' for Inactive)
REMARK    1  A    between atoms: C_2  and  C_3
REMARK    2  A    between atoms: C_3  and  O_4
REMARK    3  A    between atoms: O_4  and  C_5
REMARK    4  A    between atoms: C_8  and  N_9
REMARK    5  A    between atoms: N_16  and  C_17
REMARK                            x       y       z     vdW  Elec       q    Type
REMARK                         _______ _______ _______ _____ _____    ______ ____
ROOT
ATOM      1  C   UNL     1       8.244   7.854  18.209  0.00  0.00    +0.000 C 
ENDROOT
BRANCH   1   3
ATOM      2  O   UNL     1       7.898  10.144  17.672  0.00  0.00    +0.000 OA
ATOM      3  C   UNL     1       8.499   9.345  18.393  0.00  0.00    +0.000 C 
ATOM      4  N   UNL     1       9.390   9.688  19.387  0.00  0.00    +0.000 N 
ATOM      5  H   UNL     1       9.983   8.945  19.757  0.00  0.00    +0.000 HD
BRANCH   4   6
ATOM      6  C   UNL     1       9.626  11.000  19.855  0.00  0.00    +0.000 A 
ATOM      7  C   UNL     1       9.125  11.469  21.075  0.00  0.00    +0.000 A 
ATOM      8  C   UNL     1       9.421  12.756  21.523  0.00  0.00    +0.000 A 
ATOM      9  C   UNL     1      10.226  13.593  20.752  0.00  0.00    +0.000 A 
ATOM     10 BR   UNL     1      10.646  15.323  21.385  0.00  0.00    +0.000 Br
ATOM     11  C   UNL     1      10.729  13.156  19.530  0.00  0.00    +0.000 A 
ATOM     12  C   UNL     1      10.428  11.860  19.097  0.00  0.00    +0.000 A 
ATOM     13  F   UNL     1      10.910  11.451  17.913  0.00  0.00    +0.000 F 
ENDBRANCH   4   6
ENDBRANCH   1   3
BRANCH   1  14
ATOM     14  O   UNL     1       7.442   7.506  17.088  0.00  0.00    +0.000 OA
BRANCH  14  15
ATOM     15  C   UNL     1       6.526   6.518  17.355  0.00  0.00    +0.000 A 
ATOM     16  C   UNL     1       5.632   6.230  16.323  0.00  0.00    +0.000 A 
ATOM     17  C   UNL     1       4.638   5.259  16.491  0.00  0.00    +0.000 A 
ATOM     18  C   UNL     1       4.539   4.561  17.702  0.00  0.00    +0.000 A 
ATOM     19  C   UNL     1       5.458   4.823  18.724  0.00  0.00    +0.000 A 
ATOM     20  C   UNL     1       6.449   5.792  18.547  0.00  0.00    +0.000 A 
BRANCH  18  21
ATOM     21  N   UNL     1       3.514   3.610  17.914  0.00  0.00    +0.000 N 
ATOM     22  C   UNL     1       2.178   3.686  17.617  0.00  0.00    +0.000 A 
ATOM     23  N   UNL     1       1.574   2.600  18.038  0.00  0.00    +0.000 NA
ATOM     24  N   UNL     1       2.555   1.822  18.594  0.00  0.00    +0.000 NA
ATOM     25  N   UNL     1       3.736   2.418  18.515  0.00  0.00    +0.000 NA
ENDBRANCH  18  21
ENDBRANCH  14  15
ENDBRANCH   1  14
TORSDOF 5
ENDMDL
MODEL 8
REMARK VINA RESULT:      -7.4      6.909      7.778
REMARK  Name = 
REMARK  5 active torsions:
REMARK  status: ('A' for Active; 'I' for Inactive)
REMARK    1  A    between atoms: C_2  and  C_3
REMARK    2  A    between atoms: C_3  and  O_4
REMARK    3  A    between atoms: O_4  and  C_5
REMARK    4  A    between atoms: C_8  and  N_9
REMARK    5  A    between atoms: N_16  and  C_17
REMARK                            x       y       z     vdW  Elec       q    Type
REMARK                         _______ _______ _______ _____ _____    ______ ____
ROOT
ATOM      1  C   UNL     1       8.181   8.783  17.760  0.00  0.00    +0.000 C 
ENDROOT
BRANCH   1   3
ATOM      2  O   UNL     1       9.266   9.736  19.649  0.00  0.00    +0.000 OA
ATOM      3  C   UNL     1       8.793   9.947  18.530  0.00  0.00    +0.000 C 
ATOM      4  N   UNL     1       8.785  11.167  17.889  0.00  0.00    +0.000 N 
ATOM      5  H   UNL     1       8.174  11.262  17.077  0.00  0.00    +0.000 HD
BRANCH   4   6
ATOM      6  C   UNL     1       9.463  12.326  18.330  0.00  0.00    +0.000 A 
ATOM      7  C   UNL     1       8.810  13.389  18.963  0.00  0.00    +0.000 A 
ATOM      8  C   UNL     1       9.523  14.494  19.427  0.00  0.00    +0.000 A 
ATOM      9  C   UNL     1      10.906  14.548  19.262  0.00  0.00    +0.000 A 
ATOM     10 BR   UNL     1      11.866  16.035  19.922  0.00  0.00    +0.000 Br
ATOM     11  C   UNL     1      11.580  13.509  18.625  0.00  0.00    +0.000 A 
ATOM     12  C   UNL     1      10.851  12.405  18.172  0.00  0.00    +0.000 A 
ATOM     13  F   UNL     1      11.508  11.413  17.552  0.00  0.00    +0.000 F 
ENDBRANCH   4   6
ENDBRANCH   1   3
BRANCH   1  14
ATOM     14  O   UNL     1       8.276   7.515  18.394  0.00  0.00    +0.000 OA
BRANCH  14  15
ATOM     15  C   UNL     1       7.149   6.743  18.248  0.00  0.00    +0.000 A 
ATOM     16  C   UNL     1       6.315   7.089  17.184  0.00  0.00    +0.000 A 
ATOM     17  C   UNL     1       5.126   6.388  16.953  0.00  0.00    +0.000 A 
ATOM     18  C   UNL     1       4.767   5.323  17.791  0.00  0.00    +0.000 A 
ATOM     19  C   UNL     1       5.621   4.952  18.837  0.00  0.00    +0.000 A 
ATOM     20  C   UNL     1       6.808   5.656  19.057  0.00  0.00    +0.000 A 
BRANCH  18  21
ATOM     21  N   UNL     1       3.548   4.630  17.610  0.00  0.00    +0.000 N 
ATOM     22  C   UNL     1       2.276   4.992  17.972  0.00  0.00    +0.000 A 
ATOM     23  N   UNL     1       1.442   4.026  17.664  0.00  0.00    +0.000 NA
ATOM     24  N   UNL     1       2.206   3.049  17.083  0.00  0.00    +0.000 NA
ATOM     25  N   UNL     1       3.480   3.407  17.033  0.00  0.00    +0.000 NA
ENDBRANCH  18  21
ENDBRANCH  14  15
ENDBRANCH   1  14
TORSDOF 5
ENDMDL
MODEL 9
REMARK VINA RESULT:      -7.4      7.457      8.840
REMARK  Name = 
REMARK  5 active torsions:
REMARK  status: ('A' for Active; 'I' for Inactive)
REMARK    1  A    between atoms: C_2  and  C_3
REMARK    2  A    between atoms: C_3  and  O_4
REMARK    3  A    between atoms: O_4  and  C_5
REMARK    4  A    between atoms: C_8  and  N_9
REMARK    5  A    between atoms: N_16  and  C_17
REMARK                            x       y       z     vdW  Elec       q    Type
REMARK                         _______ _______ _______ _____ _____    ______ ____
ROOT
ATOM      1  C   UNL     1       8.060   8.941  17.684  0.00  0.00    +0.000 C 
ENDROOT
BRANCH   1   3
ATOM      2  O   UNL     1       8.066   6.780  18.677  0.00  0.00    +0.000 OA
ATOM      3  C   UNL     1       7.501   7.538  17.885  0.00  0.00    +0.000 C 
ATOM      4  N   UNL     1       6.370   7.228  17.160  0.00  0.00    +0.000 N 
ATOM      5  H   UNL     1       6.132   7.845  16.384  0.00  0.00    +0.000 HD
BRANCH   4   6
ATOM      6  C   UNL     1       5.581   6.069  17.334  0.00  0.00    +0.000 A 
ATOM      7  C   UNL     1       4.687   5.916  18.400  0.00  0.00    +0.000 A 
ATOM      8  C   UNL     1       3.891   4.776  18.509  0.00  0.00    +0.000 A 
ATOM      9  C   UNL     1       3.981   3.771  17.548  0.00  0.00    +0.000 A 
ATOM     10 BR   UNL     1       2.875   2.245  17.689  0.00  0.00    +0.000 Br
ATOM     11  C   UNL     1       4.870   3.892  16.484  0.00  0.00    +0.000 A 
ATOM     12  C   UNL     1       5.657   5.044  16.384  0.00  0.00    +0.000 A 
ATOM     13  F   UNL     1       6.517   5.148  15.360  0.00  0.00    +0.000 F 
ENDBRANCH   4   6
ENDBRANCH   1   3
BRANCH   1  14
ATOM     14  O   UNL     1       8.878   9.428  18.739  0.00  0.00    +0.000 OA
BRANCH  14  15
ATOM     15  C   UNL     1       9.315  10.716  18.545  0.00  0.00    +0.000 A 
ATOM     16  C   UNL     1       8.459  11.539  17.813  0.00  0.00    +0.000 A 
ATOM     17  C   UNL     1       8.812  12.864  17.530  0.00  0.00    +0.000 A 
ATOM     18  C   UNL     1      10.033  13.376  17.990  0.00  0.00    +0.000 A 
ATOM     19  C   UNL     1      10.876  12.562  18.756  0.00  0.00    +0.000 A 
ATOM     20  C   UNL     1      10.514  11.242  19.035  0.00  0.00    +0.000 A 
BRANCH  18  21
ATOM     21  N   UNL     1      10.435  14.696  17.678  0.00  0.00    +0.000 N 
ATOM     22  C   UNL     1       9.723  15.865  17.748  0.00  0.00    +0.000 A 
ATOM     23  N   UNL     1      10.464  16.855  17.309  0.00  0.00    +0.000 NA
ATOM     24  N   UNL     1      11.668  16.296  16.972  0.00  0.00    +0.000 NA
ATOM     25  N   UNL     1      11.667  14.991  17.202  0.00  0.00    +0.000 NA
ENDBRANCH  18  21
ENDBRANCH  14  15
ENDBRANCH   1  14
TORSDOF 5
ENDMDL
