MODEL 1
REMARK VINA RESULT:      -9.0      0.000      0.000
REMARK  Name = 
REMARK  5 active torsions:
REMARK  status: ('A' for Active; 'I' for Inactive)
REMARK    1  A    between atoms: C_2  and  C_3
REMARK    2  A    between atoms: C_3  and  C_4
REMARK    3  A    between atoms: N_14  and  C_15
REMARK    4  A    between atoms: C_18  and  O_19
REMARK    5  A    between atoms: O_19  and  C_20
REMARK                            x       y       z     vdW  Elec       q    Type
REMARK                         _______ _______ _______ _____ _____    ______ ____
ROOT
ATOM      1  C   UNL     1       1.648   8.148  19.505  0.00  0.00    +0.000 A 
ATOM      2  C   UNL     1       2.598   7.967  18.492  0.00  0.00    +0.000 A 
ATOM      3  C   UNL     1       3.367   6.806  18.433  0.00  0.00    +0.000 A 
ATOM      4  C   UNL     1       3.189   5.824  19.400  0.00  0.00    +0.000 A 
ATOM      5  C   UNL     1       2.304   6.028  20.455  0.00  0.00    +0.000 A 
ATOM      6  F   UNL     1       2.201   5.138  21.453  0.00  0.00    +0.000 F 
ATOM      7  C   UNL     1       1.529   7.184  20.511  0.00  0.00    +0.000 A 
ENDROOT
BRANCH   1  13
ATOM      8  O   UNL     1      -1.118  10.673  18.359  0.00  0.00    +0.000 OA
ATOM      9  C   UNL     1      -1.085  11.384  19.368  0.00  0.00    +0.000 C 
ATOM     10  N   UNL     1      -0.191  11.194  20.404  0.00  0.00    +0.000 N 
ATOM     11  C   UNL     1       0.706  10.172  20.588  0.00  0.00    +0.000 C 
ATOM     12  O   UNL     1       1.347  10.164  21.636  0.00  0.00    +0.000 OA
ATOM     13  N   UNL     1       0.800   9.269  19.559  0.00  0.00    +0.000 N 
ATOM     14  H   UNL     1      -0.191  11.841  21.179  0.00  0.00    +0.000 HD
ATOM     15  H   UNL     1       0.301   9.523  18.708  0.00  0.00    +0.000 HD
BRANCH   9  16
ATOM     16  C   UNL     1      -1.997  12.581  19.551  0.00  0.00    +0.000 C 
BRANCH  16  17
ATOM     17  C   UNL     1      -3.463  12.226  19.488  0.00  0.00    +0.000 A 
ATOM     18  C   UNL     1      -4.326  12.571  20.540  0.00  0.00    +0.000 A 
ATOM     19  C   UNL     1      -5.692  12.292  20.458  0.00  0.00    +0.000 A 
ATOM     20  C   UNL     1      -6.196  11.675  19.321  0.00  0.00    +0.000 A 
ATOM     21  F   UNL     1      -7.509  11.426  19.233  0.00  0.00    +0.000 F 
ATOM     22  C   UNL     1      -5.360  11.323  18.269  0.00  0.00    +0.000 A 
ATOM     23  C   UNL     1      -3.993  11.597  18.350  0.00  0.00    +0.000 A 
ENDBRANCH  16  17
ENDBRANCH   9  16
ENDBRANCH   1  13
BRANCH   4  24
ATOM     24  O   UNL     1       4.044   4.716  19.316  0.00  0.00    +0.000 OA
BRANCH  24  25
ATOM     25  C   UNL     1       5.349   4.888  18.902  0.00  0.00    +0.000 A 
ATOM     26  N   UNL     1       6.313   5.353  19.622  0.00  0.00    +0.000 NA
ATOM     27  C   UNL     1       7.524   5.517  18.995  0.00  0.00    +0.000 A 
ATOM     28  N   UNL     1       7.804   5.245  17.755  0.00  0.00    +0.000 NA
ATOM     29  N   UNL     1       6.777   4.734  17.051  0.00  0.00    +0.000 N 
ATOM     30  C   UNL     1       6.800   4.379  15.730  0.00  0.00    +0.000 A 
ATOM     31  C   UNL     1       5.561   3.865  15.408  0.00  0.00    +0.000 A 
ATOM     32  C   UNL     1       4.764   3.932  16.574  0.00  0.00    +0.000 A 
ATOM     33 CL   UNL     1       3.153   3.397  16.658  0.00  0.00    +0.000 Cl
ATOM     34  C   UNL     1       5.539   4.499  17.558  0.00  0.00    +0.000 A 
ENDBRANCH  24  25
ENDBRANCH   4  24
TORSDOF 5
ENDMDL
MODEL 2
REMARK VINA RESULT:      -8.9      1.120      1.477
REMARK  Name = 
REMARK  5 active torsions:
REMARK  status: ('A' for Active; 'I' for Inactive)
REMARK    1  A    between atoms: C_2  and  C_3
REMARK    2  A    between atoms: C_3  and  C_4
REMARK    3  A    between atoms: N_14  and  C_15
REMARK    4  A    between atoms: C_18  and  O_19
REMARK    5  A    between atoms: O_19  and  C_20
REMARK                            x       y       z     vdW  Elec       q    Type
REMARK                         _______ _______ _______ _____ _____    ______ ____
ROOT
ATOM      1  C   UNL     1       1.453   8.416  19.673  0.00  0.00    +0.000 A 
ATOM      2  C   UNL     1       1.477   7.389  20.625  0.00  0.00    +0.000 A 
ATOM      3  C   UNL     1       2.303   6.279  20.457  0.00  0.00    +0.000 A 
ATOM      4  C   UNL     1       3.103   6.192  19.324  0.00  0.00    +0.000 A 
ATOM      5  C   UNL     1       3.028   7.169  18.334  0.00  0.00    +0.000 A 
ATOM      6  F   UNL     1       3.712   7.044  17.187  0.00  0.00    +0.000 F 
ATOM      7  C   UNL     1       2.210   8.283  18.504  0.00  0.00    +0.000 A 
ENDROOT
BRANCH   1  13
ATOM      8  O   UNL     1      -1.140  11.220  18.802  0.00  0.00    +0.000 OA
ATOM      9  C   UNL     1      -1.037  11.839  19.864  0.00  0.00    +0.000 C 
ATOM     10  N   UNL     1      -0.142  11.501  20.860  0.00  0.00    +0.000 N 
ATOM     11  C   UNL     1       0.682  10.405  20.939  0.00  0.00    +0.000 C 
ATOM     12  O   UNL     1       1.338  10.264  21.968  0.00  0.00    +0.000 OA
ATOM     13  N   UNL     1       0.691   9.586  19.839  0.00  0.00    +0.000 N 
ATOM     14  H   UNL     1      -0.081  12.079  21.686  0.00  0.00    +0.000 HD
ATOM     15  H   UNL     1       0.197   9.946  19.022  0.00  0.00    +0.000 HD
BRANCH   9  16
ATOM     16  C   UNL     1      -1.855  13.079  20.166  0.00  0.00    +0.000 C 
BRANCH  16  17
ATOM     17  C   UNL     1      -3.301  12.776  20.475  0.00  0.00    +0.000 A 
ATOM     18  C   UNL     1      -3.815  12.985  21.765  0.00  0.00    +0.000 A 
ATOM     19  C   UNL     1      -5.164  12.757  22.037  0.00  0.00    +0.000 A 
ATOM     20  C   UNL     1      -6.004  12.327  21.019  0.00  0.00    +0.000 A 
ATOM     21  F   UNL     1      -7.304  12.128  21.275  0.00  0.00    +0.000 F 
ATOM     22  C   UNL     1      -5.518  12.112  19.735  0.00  0.00    +0.000 A 
ATOM     23  C   UNL     1      -4.167  12.335  19.461  0.00  0.00    +0.000 A 
ENDBRANCH  16  17
ENDBRANCH   9  16
ENDBRANCH   1  13
BRANCH   4  24
ATOM     24  O   UNL     1       3.855   5.017  19.190  0.00  0.00    +0.000 OA
BRANCH  24  25
ATOM     25  C   UNL     1       5.196   5.094  18.875  0.00  0.00    +0.000 A 
ATOM     26  N   UNL     1       6.121   5.584  19.628  0.00  0.00    +0.000 NA
ATOM     27  C   UNL     1       7.385   5.636  19.094  0.00  0.00    +0.000 A 
ATOM     28  N   UNL     1       7.750   5.236  17.912  0.00  0.00    +0.000 NA
ATOM     29  N   UNL     1       6.759   4.706  17.173  0.00  0.00    +0.000 N 
ATOM     30  C   UNL     1       6.870   4.227  15.896  0.00  0.00    +0.000 A 
ATOM     31  C   UNL     1       5.637   3.737  15.518  0.00  0.00    +0.000 A 
ATOM     32  C   UNL     1       4.754   3.947  16.602  0.00  0.00    +0.000 A 
ATOM     33 CL   UNL     1       3.116   3.492  16.597  0.00  0.00    +0.000 Cl
ATOM     34  C   UNL     1       5.474   4.572  17.593  0.00  0.00    +0.000 A 
ENDBRANCH  24  25
ENDBRANCH   4  24
TORSDOF 5
ENDMDL
MODEL 3
REMARK VINA RESULT:      -8.9      1.664      2.181
REMARK  Name = 
REMARK  5 active torsions:
REMARK  status: ('A' for Active; 'I' for Inactive)
REMARK    1  A    between atoms: C_2  and  C_3
REMARK    2  A    between atoms: C_3  and  C_4
REMARK    3  A    between atoms: N_14  and  C_15
REMARK    4  A    between atoms: C_18  and  O_19
REMARK    5  A    between atoms: O_19  and  C_20
REMARK                            x       y       z     vdW  Elec       q    Type
REMARK                         _______ _______ _______ _____ _____    ______ ____
ROOT
ATOM      1  C   UNL     1       1.513   8.446  19.812  0.00  0.00    +0.000 A 
ATOM      2  C   UNL     1       2.276   8.311  18.645  0.00  0.00    +0.000 A 
ATOM      3  C   UNL     1       2.948   7.121  18.366  0.00  0.00    +0.000 A 
ATOM      4  C   UNL     1       2.860   6.064  19.263  0.00  0.00    +0.000 A 
ATOM      5  C   UNL     1       2.169   6.216  20.463  0.00  0.00    +0.000 A 
ATOM      6  F   UNL     1       2.167   5.243  21.386  0.00  0.00    +0.000 F 
ATOM      7  C   UNL     1       1.491   7.400  20.740  0.00  0.00    +0.000 A 
ENDROOT
BRANCH   1  13
ATOM      8  O   UNL     1       0.273  11.572  21.819  0.00  0.00    +0.000 OA
ATOM      9  C   UNL     1      -0.520  11.981  20.966  0.00  0.00    +0.000 C 
ATOM     10  N   UNL     1      -0.780  11.311  19.786  0.00  0.00    +0.000 N 
ATOM     11  C   UNL     1      -0.167  10.192  19.279  0.00  0.00    +0.000 C 
ATOM     12  O   UNL     1      -0.509   9.818  18.161  0.00  0.00    +0.000 OA
ATOM     13  N   UNL     1       0.762   9.600  20.097  0.00  0.00    +0.000 N 
ATOM     14  H   UNL     1      -1.474  11.681  19.152  0.00  0.00    +0.000 HD
ATOM     15  H   UNL     1       0.802   9.965  21.048  0.00  0.00    +0.000 HD
BRANCH   9  16
ATOM     16  C   UNL     1      -1.334  13.246  21.150  0.00  0.00    +0.000 C 
BRANCH  16  17
ATOM     17  C   UNL     1      -2.610  13.023  21.925  0.00  0.00    +0.000 A 
ATOM     18  C   UNL     1      -2.568  12.729  23.298  0.00  0.00    +0.000 A 
ATOM     19  C   UNL     1      -3.749  12.578  24.027  0.00  0.00    +0.000 A 
ATOM     20  C   UNL     1      -4.972  12.727  23.387  0.00  0.00    +0.000 A 
ATOM     21  F   UNL     1      -6.105  12.602  24.091  0.00  0.00    +0.000 F 
ATOM     22  C   UNL     1      -5.037  13.016  22.030  0.00  0.00    +0.000 A 
ATOM     23  C   UNL     1      -3.858  13.164  21.297  0.00  0.00    +0.000 A 
ENDBRANCH  16  17
ENDBRANCH   9  16
ENDBRANCH   1  13
BRANCH   4  24
ATOM     24  O   UNL     1       3.615   4.926  18.948  0.00  0.00    +0.000 OA
BRANCH  24  25
ATOM     25  C   UNL     1       4.979   5.036  18.769  0.00  0.00    +0.000 A 
ATOM     26  N   UNL     1       5.817   5.503  19.631  0.00  0.00    +0.000 NA
ATOM     27  C   UNL     1       7.126   5.598  19.225  0.00  0.00    +0.000 A 
ATOM     28  N   UNL     1       7.610   5.261  18.067  0.00  0.00    +0.000 NA
ATOM     29  N   UNL     1       6.705   4.753  17.211  0.00  0.00    +0.000 N 
ATOM     30  C   UNL     1       6.948   4.338  15.930  0.00  0.00    +0.000 A 
ATOM     31  C   UNL     1       5.766   3.850  15.411  0.00  0.00    +0.000 A 
ATOM     32  C   UNL     1       4.779   3.995  16.412  0.00  0.00    +0.000 A 
ATOM     33 CL   UNL     1       3.158   3.518  16.227  0.00  0.00    +0.000 Cl
ATOM     34  C   UNL     1       5.388   4.581  17.497  0.00  0.00    +0.000 A 
ENDBRANCH  24  25
ENDBRANCH   4  24
TORSDOF 5
ENDMDL
MODEL 4
REMARK VINA RESULT:      -8.8      1.870      2.508
REMARK  Name = 
REMARK  5 active torsions:
REMARK  status: ('A' for Active; 'I' for Inactive)
REMARK    1  A    between atoms: C_2  and  C_3
REMARK    2  A    between atoms: C_3  and  C_4
REMARK    3  A    between atoms: N_14  and  C_15
REMARK    4  A    between atoms: C_18  and  O_19
REMARK    5  A    between atoms: O_19  and  C_20
REMARK                            x       y       z     vdW  Elec       q    Type
REMARK                         _______ _______ _______ _____ _____    ______ ____
ROOT
ATOM      1  C   UNL     1       1.457   8.396  19.916  0.00  0.00    +0.000 A 
ATOM      2  C   UNL     1       1.510   7.305  20.792  0.00  0.00    +0.000 A 
ATOM      3  C   UNL     1       2.311   6.199  20.509  0.00  0.00    +0.000 A 
ATOM      4  C   UNL     1       3.057   6.184  19.337  0.00  0.00    +0.000 A 
ATOM      5  C   UNL     1       2.951   7.229  18.422  0.00  0.00    +0.000 A 
ATOM      6  F   UNL     1       3.580   7.177  17.239  0.00  0.00    +0.000 F 
ATOM      7  C   UNL     1       2.158   8.337  18.707  0.00  0.00    +0.000 A 
ENDROOT
BRANCH   1  13
ATOM      8  O   UNL     1       0.221  11.515  21.937  0.00  0.00    +0.000 OA
ATOM      9  C   UNL     1      -0.538  11.953  21.068  0.00  0.00    +0.000 C 
ATOM     10  N   UNL     1      -0.777  11.307  19.871  0.00  0.00    +0.000 N 
ATOM     11  C   UNL     1      -0.172  10.184  19.364  0.00  0.00    +0.000 C 
ATOM     12  O   UNL     1      -0.488   9.834  18.230  0.00  0.00    +0.000 OA
ATOM     13  N   UNL     1       0.721   9.560  20.198  0.00  0.00    +0.000 N 
ATOM     14  H   UNL     1      -1.444  11.701  19.223  0.00  0.00    +0.000 HD
ATOM     15  H   UNL     1       0.741   9.910  21.156  0.00  0.00    +0.000 HD
BRANCH   9  16
ATOM     16  C   UNL     1      -1.333  13.231  21.249  0.00  0.00    +0.000 C 
BRANCH  16  17
ATOM     17  C   UNL     1      -2.617  13.029  22.016  0.00  0.00    +0.000 A 
ATOM     18  C   UNL     1      -2.598  12.886  23.413  0.00  0.00    +0.000 A 
ATOM     19  C   UNL     1      -3.790  12.754  24.128  0.00  0.00    +0.000 A 
ATOM     20  C   UNL     1      -5.000  12.773  23.449  0.00  0.00    +0.000 A 
ATOM     21  F   UNL     1      -6.145  12.667  24.137  0.00  0.00    +0.000 F 
ATOM     22  C   UNL     1      -5.042  12.911  22.067  0.00  0.00    +0.000 A 
ATOM     23  C   UNL     1      -3.852  13.039  21.348  0.00  0.00    +0.000 A 
ENDBRANCH  16  17
ENDBRANCH   9  16
ENDBRANCH   1  13
BRANCH   4  24
ATOM     24  O   UNL     1       3.785   5.012  19.087  0.00  0.00    +0.000 OA
BRANCH  24  25
ATOM     25  C   UNL     1       5.135   5.091  18.809  0.00  0.00    +0.000 A 
ATOM     26  N   UNL     1       6.040   5.561  19.597  0.00  0.00    +0.000 NA
ATOM     27  C   UNL     1       7.319   5.619  19.098  0.00  0.00    +0.000 A 
ATOM     28  N   UNL     1       7.714   5.244  17.919  0.00  0.00    +0.000 NA
ATOM     29  N   UNL     1       6.741   4.733  17.142  0.00  0.00    +0.000 N 
ATOM     30  C   UNL     1       6.885   4.281  15.858  0.00  0.00    +0.000 A 
ATOM     31  C   UNL     1       5.660   3.804  15.437  0.00  0.00    +0.000 A 
ATOM     32  C   UNL     1       4.749   3.995  16.501  0.00  0.00    +0.000 A 
ATOM     33 CL   UNL     1       3.111   3.546  16.442  0.00  0.00    +0.000 Cl
ATOM     34  C   UNL     1       5.445   4.596  17.524  0.00  0.00    +0.000 A 
ENDBRANCH  24  25
ENDBRANCH   4  24
TORSDOF 5
ENDMDL
MODEL 5
REMARK VINA RESULT:      -8.8      2.463      3.129
REMARK  Name = 
REMARK  5 active torsions:
REMARK  status: ('A' for Active; 'I' for Inactive)
REMARK    1  A    between atoms: C_2  and  C_3
REMARK    2  A    between atoms: C_3  and  C_4
REMARK    3  A    between atoms: N_14  and  C_15
REMARK    4  A    between atoms: C_18  and  O_19
REMARK    5  A    between atoms: O_19  and  C_20
REMARK                            x       y       z     vdW  Elec       q    Type
REMARK                         _______ _______ _______ _____ _____    ______ ____
ROOT
ATOM      1  C   UNL     1       1.145   9.547  19.488  0.00  0.00    +0.000 A 
ATOM      2  C   UNL     1       1.611   9.593  18.168  0.00  0.00    +0.000 A 
ATOM      3  C   UNL     1       2.206   8.478  17.581  0.00  0.00    +0.000 A 
ATOM      4  C   UNL     1       2.342   7.311  18.323  0.00  0.00    +0.000 A 
ATOM      5  C   UNL     1       1.954   7.279  19.660  0.00  0.00    +0.000 A 
ATOM      6  F   UNL     1       2.179   6.195  20.418  0.00  0.00    +0.000 F 
ATOM      7  C   UNL     1       1.352   8.389  20.246  0.00  0.00    +0.000 A 
ENDROOT
BRANCH   1  13
ATOM      8  O   UNL     1       0.596  12.620  21.853  0.00  0.00    +0.000 OA
ATOM      9  C   UNL     1      -0.545  12.890  21.468  0.00  0.00    +0.000 C 
ATOM     10  N   UNL     1      -1.236  12.131  20.544  0.00  0.00    +0.000 N 
ATOM     11  C   UNL     1      -0.794  11.062  19.806  0.00  0.00    +0.000 C 
ATOM     12  O   UNL     1      -1.564  10.591  18.974  0.00  0.00    +0.000 OA
ATOM     13  N   UNL     1       0.474  10.623  20.094  0.00  0.00    +0.000 N 
ATOM     14  H   UNL     1      -2.185  12.386  20.307  0.00  0.00    +0.000 HD
ATOM     15  H   UNL     1       0.904  11.042  20.918  0.00  0.00    +0.000 HD
BRANCH   9  16
ATOM     16  C   UNL     1      -1.333  14.064  22.015  0.00  0.00    +0.000 C 
BRANCH  16  17
ATOM     17  C   UNL     1      -2.671  13.666  22.588  0.00  0.00    +0.000 A 
ATOM     18  C   UNL     1      -2.746  12.824  23.710  0.00  0.00    +0.000 A 
ATOM     19  C   UNL     1      -3.981  12.501  24.274  0.00  0.00    +0.000 A 
ATOM     20  C   UNL     1      -5.142  13.025  23.722  0.00  0.00    +0.000 A 
ATOM     21  F   UNL     1      -6.326  12.731  24.275  0.00  0.00    +0.000 F 
ATOM     22  C   UNL     1      -5.093  13.859  22.612  0.00  0.00    +0.000 A 
ATOM     23  C   UNL     1      -3.859  14.181  22.043  0.00  0.00    +0.000 A 
ENDBRANCH  16  17
ENDBRANCH   9  16
ENDBRANCH   1  13
BRANCH   4  24
ATOM     24  O   UNL     1       3.010   6.253  17.689  0.00  0.00    +0.000 OA
BRANCH  24  25
ATOM     25  C   UNL     1       4.097   5.665  18.301  0.00  0.00    +0.000 A 
ATOM     26  N   UNL     1       5.243   6.222  18.500  0.00  0.00    +0.000 NA
ATOM     27  C   UNL     1       6.219   5.435  19.061  0.00  0.00    +0.000 A 
ATOM     28  N   UNL     1       6.108   4.191  19.419  0.00  0.00    +0.000 NA
ATOM     29  N   UNL     1       4.888   3.660  19.220  0.00  0.00    +0.000 N 
ATOM     30  C   UNL     1       4.511   2.374  19.494  0.00  0.00    +0.000 A 
ATOM     31  C   UNL     1       3.172   2.249  19.183  0.00  0.00    +0.000 A 
ATOM     32  C   UNL     1       2.740   3.500  18.688  0.00  0.00    +0.000 A 
ATOM     33 CL   UNL     1       1.149   3.826  18.184  0.00  0.00    +0.000 Cl
ATOM     34  C   UNL     1       3.831   4.337  18.700  0.00  0.00    +0.000 A 
ENDBRANCH  24  25
ENDBRANCH   4  24
TORSDOF 5
ENDMDL
MODEL 6
REMARK VINA RESULT:      -8.8      1.392      1.793
REMARK  Name = 
REMARK  5 active torsions:
REMARK  status: ('A' for Active; 'I' for Inactive)
REMARK    1  A    between atoms: C_2  and  C_3
REMARK    2  A    between atoms: C_3  and  C_4
REMARK    3  A    between atoms: N_14  and  C_15
REMARK    4  A    between atoms: C_18  and  O_19
REMARK    5  A    between atoms: O_19  and  C_20
REMARK                            x       y       z     vdW  Elec       q    Type
REMARK                         _______ _______ _______ _____ _____    ______ ____
ROOT
ATOM      1  C   UNL     1       1.813   8.181  19.084  0.00  0.00    +0.000 A 
ATOM      2  C   UNL     1       2.765   7.894  18.098  0.00  0.00    +0.000 A 
ATOM      3  C   UNL     1       3.529   6.730  18.160  0.00  0.00    +0.000 A 
ATOM      4  C   UNL     1       3.344   5.852  19.221  0.00  0.00    +0.000 A 
ATOM      5  C   UNL     1       2.457   6.166  20.247  0.00  0.00    +0.000 A 
ATOM      6  F   UNL     1       2.347   5.382  21.330  0.00  0.00    +0.000 F 
ATOM      7  C   UNL     1       1.687   7.325  20.183  0.00  0.00    +0.000 A 
ENDROOT
BRANCH   1  13
ATOM      8  O   UNL     1      -1.421  10.333  19.584  0.00  0.00    +0.000 OA
ATOM      9  C   UNL     1      -0.964  11.381  19.120  0.00  0.00    +0.000 C 
ATOM     10  N   UNL     1       0.298  11.483  18.568  0.00  0.00    +0.000 N 
ATOM     11  C   UNL     1       1.299  10.545  18.532  0.00  0.00    +0.000 C 
ATOM     12  O   UNL     1       2.379  10.888  18.061  0.00  0.00    +0.000 OA
ATOM     13  N   UNL     1       0.971   9.306  19.021  0.00  0.00    +0.000 N 
ATOM     14  H   UNL     1       0.591  12.363  18.167  0.00  0.00    +0.000 HD
ATOM     15  H   UNL     1      -0.017   9.166  19.231  0.00  0.00    +0.000 HD
BRANCH   9  16
ATOM     16  C   UNL     1      -1.769  12.665  19.061  0.00  0.00    +0.000 C 
BRANCH  16  17
ATOM     17  C   UNL     1      -2.788  12.778  20.169  0.00  0.00    +0.000 A 
ATOM     18  C   UNL     1      -4.155  12.600  19.902  0.00  0.00    +0.000 A 
ATOM     19  C   UNL     1      -5.092  12.650  20.936  0.00  0.00    +0.000 A 
ATOM     20  C   UNL     1      -4.662  12.869  22.238  0.00  0.00    +0.000 A 
ATOM     21  F   UNL     1      -5.559  12.897  23.233  0.00  0.00    +0.000 F 
ATOM     22  C   UNL     1      -3.315  13.049  22.525  0.00  0.00    +0.000 A 
ATOM     23  C   UNL     1      -2.376  13.004  21.492  0.00  0.00    +0.000 A 
ENDBRANCH  16  17
ENDBRANCH   9  16
ENDBRANCH   1  13
BRANCH   4  24
ATOM     24  O   UNL     1       4.194   4.737  19.252  0.00  0.00    +0.000 OA
BRANCH  24  25
ATOM     25  C   UNL     1       5.514   4.872  18.873  0.00  0.00    +0.000 A 
ATOM     26  N   UNL     1       6.467   5.330  19.611  0.00  0.00    +0.000 NA
ATOM     27  C   UNL     1       7.699   5.454  19.016  0.00  0.00    +0.000 A 
ATOM     28  N   UNL     1       8.008   5.151  17.791  0.00  0.00    +0.000 NA
ATOM     29  N   UNL     1       6.990   4.649  17.068  0.00  0.00    +0.000 N 
ATOM     30  C   UNL     1       7.043   4.267  15.755  0.00  0.00    +0.000 A 
ATOM     31  C   UNL     1       5.802   3.774  15.407  0.00  0.00    +0.000 A 
ATOM     32  C   UNL     1       4.974   3.882  16.548  0.00  0.00    +0.000 A 
ATOM     33 CL   UNL     1       3.349   3.385  16.596  0.00  0.00    +0.000 Cl
ATOM     34  C   UNL     1       5.733   4.452  17.544  0.00  0.00    +0.000 A 
ENDBRANCH  24  25
ENDBRANCH   4  24
TORSDOF 5
ENDMDL
MODEL 7
REMARK VINA RESULT:      -8.8      3.181      4.126
REMARK  Name = 
REMARK  5 active torsions:
REMARK  status: ('A' for Active; 'I' for Inactive)
REMARK    1  A    between atoms: C_2  and  C_3
REMARK    2  A    between atoms: C_3  and  C_4
REMARK    3  A    between atoms: N_14  and  C_15
REMARK    4  A    between atoms: C_18  and  O_19
REMARK    5  A    between atoms: O_19  and  C_20
REMARK                            x       y       z     vdW  Elec       q    Type
REMARK                         _______ _______ _______ _____ _____    ______ ____
ROOT
ATOM      1  C   UNL     1       1.370   9.753  19.495  0.00  0.00    +0.000 A 
ATOM      2  C   UNL     1       1.783   9.589  18.167  0.00  0.00    +0.000 A 
ATOM      3  C   UNL     1       2.155   8.336  17.683  0.00  0.00    +0.000 A 
ATOM      4  C   UNL     1       2.119   7.240  18.538  0.00  0.00    +0.000 A 
ATOM      5  C   UNL     1       1.785   7.406  19.880  0.00  0.00    +0.000 A 
ATOM      6  F   UNL     1       1.852   6.378  20.740  0.00  0.00    +0.000 F 
ATOM      7  C   UNL     1       1.407   8.656  20.363  0.00  0.00    +0.000 A 
ENDROOT
BRANCH   1  13
ATOM      8  O   UNL     1       1.550  13.240  21.269  0.00  0.00    +0.000 OA
ATOM      9  C   UNL     1       0.370  13.551  21.085  0.00  0.00    +0.000 C 
ATOM     10  N   UNL     1      -0.555  12.714  20.492  0.00  0.00    +0.000 N 
ATOM     11  C   UNL     1      -0.354  11.490  19.904  0.00  0.00    +0.000 C 
ATOM     12  O   UNL     1      -1.318  10.958  19.360  0.00  0.00    +0.000 OA
ATOM     13  N   UNL     1       0.917  10.983  20.003  0.00  0.00    +0.000 N 
ATOM     14  H   UNL     1      -1.515  13.017  20.412  0.00  0.00    +0.000 HD
ATOM     15  H   UNL     1       1.546  11.497  20.621  0.00  0.00    +0.000 HD
BRANCH   9  16
ATOM     16  C   UNL     1      -0.203  14.879  21.541  0.00  0.00    +0.000 C 
BRANCH  16  17
ATOM     17  C   UNL     1      -0.541  15.804  20.397  0.00  0.00    +0.000 A 
ATOM     18  C   UNL     1      -1.728  16.554  20.412  0.00  0.00    +0.000 A 
ATOM     19  C   UNL     1      -2.013  17.451  19.382  0.00  0.00    +0.000 A 
ATOM     20  C   UNL     1      -1.110  17.605  18.339  0.00  0.00    +0.000 A 
ATOM     21  F   UNL     1      -1.375  18.480  17.361  0.00  0.00    +0.000 F 
ATOM     22  C   UNL     1       0.070  16.872  18.303  0.00  0.00    +0.000 A 
ATOM     23  C   UNL     1       0.357  15.971  19.330  0.00  0.00    +0.000 A 
ENDBRANCH  16  17
ENDBRANCH   9  16
ENDBRANCH   1  13
BRANCH   4  24
ATOM     24  O   UNL     1       2.570   6.026  18.000  0.00  0.00    +0.000 OA
BRANCH  24  25
ATOM     25  C   UNL     1       3.784   5.509  18.402  0.00  0.00    +0.000 A 
ATOM     26  N   UNL     1       4.936   6.062  18.222  0.00  0.00    +0.000 NA
ATOM     27  C   UNL     1       6.033   5.343  18.631  0.00  0.00    +0.000 A 
ATOM     28  N   UNL     1       6.033   4.169  19.187  0.00  0.00    +0.000 NA
ATOM     29  N   UNL     1       4.809   3.644  19.382  0.00  0.00    +0.000 N 
ATOM     30  C   UNL     1       4.531   2.421  19.930  0.00  0.00    +0.000 A 
ATOM     31  C   UNL     1       3.159   2.284  19.986  0.00  0.00    +0.000 A 
ATOM     32  C   UNL     1       2.599   3.458  19.435  0.00  0.00    +0.000 A 
ATOM     33 CL   UNL     1       0.928   3.745  19.302  0.00  0.00    +0.000 Cl
ATOM     34  C   UNL     1       3.646   4.261  19.047  0.00  0.00    +0.000 A 
ENDBRANCH  24  25
ENDBRANCH   4  24
TORSDOF 5
ENDMDL
MODEL 8
REMARK VINA RESULT:      -8.7      0.885      1.320
REMARK  Name = 
REMARK  5 active torsions:
REMARK  status: ('A' for Active; 'I' for Inactive)
REMARK    1  A    between atoms: C_2  and  C_3
REMARK    2  A    between atoms: C_3  and  C_4
REMARK    3  A    between atoms: N_14  and  C_15
REMARK    4  A    between atoms: C_18  and  O_19
REMARK    5  A    between atoms: O_19  and  C_20
REMARK                            x       y       z     vdW  Elec       q    Type
REMARK                         _______ _______ _______ _____ _____    ______ ____
ROOT
ATOM      1  C   UNL     1       1.810   8.121  19.388  0.00  0.00    +0.000 A 
ATOM      2  C   UNL     1       2.738   7.885  18.366  0.00  0.00    +0.000 A 
ATOM      3  C   UNL     1       3.490   6.711  18.341  0.00  0.00    +0.000 A 
ATOM      4  C   UNL     1       3.317   5.772  19.350  0.00  0.00    +0.000 A 
ATOM      5  C   UNL     1       2.455   6.032  20.413  0.00  0.00    +0.000 A 
ATOM      6  F   UNL     1       2.359   5.184  21.448  0.00  0.00    +0.000 F 
ATOM      7  C   UNL     1       1.697   7.200  20.436  0.00  0.00    +0.000 A 
ENDROOT
BRANCH   1  13
ATOM      8  O   UNL     1      -0.998  10.544  20.647  0.00  0.00    +0.000 OA
ATOM      9  C   UNL     1      -0.811  11.424  19.802  0.00  0.00    +0.000 C 
ATOM     10  N   UNL     1       0.104  11.311  18.773  0.00  0.00    +0.000 N 
ATOM     11  C   UNL     1       1.031  10.323  18.553  0.00  0.00    +0.000 C 
ATOM     12  O   UNL     1       1.806  10.474  17.613  0.00  0.00    +0.000 OA
ATOM     13  N   UNL     1       0.979   9.255  19.412  0.00  0.00    +0.000 N 
ATOM     14  H   UNL     1       0.173  12.052  18.091  0.00  0.00    +0.000 HD
ATOM     15  H   UNL     1       0.173   9.235  20.036  0.00  0.00    +0.000 HD
BRANCH   9  16
ATOM     16  C   UNL     1      -1.612  12.711  19.776  0.00  0.00    +0.000 C 
BRANCH  16  17
ATOM     17  C   UNL     1      -3.104  12.482  19.763  0.00  0.00    +0.000 A 
ATOM     18  C   UNL     1      -3.718  11.839  18.676  0.00  0.00    +0.000 A 
ATOM     19  C   UNL     1      -5.089  11.577  18.689  0.00  0.00    +0.000 A 
ATOM     20  C   UNL     1      -5.846  11.950  19.792  0.00  0.00    +0.000 A 
ATOM     21  F   UNL     1      -7.158  11.680  19.813  0.00  0.00    +0.000 F 
ATOM     22  C   UNL     1      -5.260  12.587  20.878  0.00  0.00    +0.000 A 
ATOM     23  C   UNL     1      -3.890  12.855  20.866  0.00  0.00    +0.000 A 
ENDBRANCH  16  17
ENDBRANCH   9  16
ENDBRANCH   1  13
BRANCH   4  24
ATOM     24  O   UNL     1       4.155   4.649  19.296  0.00  0.00    +0.000 OA
BRANCH  24  25
ATOM     25  C   UNL     1       5.468   4.793  18.897  0.00  0.00    +0.000 A 
ATOM     26  N   UNL     1       6.435   5.231  19.629  0.00  0.00    +0.000 NA
ATOM     27  C   UNL     1       7.656   5.370  19.016  0.00  0.00    +0.000 A 
ATOM     28  N   UNL     1       7.942   5.100  17.777  0.00  0.00    +0.000 NA
ATOM     29  N   UNL     1       6.911   4.619  17.059  0.00  0.00    +0.000 N 
ATOM     30  C   UNL     1       6.939   4.273  15.736  0.00  0.00    +0.000 A 
ATOM     31  C   UNL     1       5.691   3.790  15.397  0.00  0.00    +0.000 A 
ATOM     32  C   UNL     1       4.885   3.867  16.556  0.00  0.00    +0.000 A 
ATOM     33 CL   UNL     1       3.260   3.370  16.620  0.00  0.00    +0.000 Cl
ATOM     34  C   UNL     1       5.662   4.410  17.552  0.00  0.00    +0.000 A 
ENDBRANCH  24  25
ENDBRANCH   4  24
TORSDOF 5
ENDMDL
MODEL 9
REMARK VINA RESULT:      -8.7      2.609      3.453
REMARK  Name = 
REMARK  5 active torsions:
REMARK  status: ('A' for Active; 'I' for Inactive)
REMARK    1  A    between atoms: C_2  and  C_3
REMARK    2  A    between atoms: C_3  and  C_4
REMARK    3  A    between atoms: N_14  and  C_15
REMARK    4  A    between atoms: C_18  and  O_19
REMARK    5  A    between atoms: O_19  and  C_20
REMARK                            x       y       z     vdW  Elec       q    Type
REMARK                         _______ _______ _______ _____ _____    ______ ____
ROOT
ATOM      1  C   UNL     1       0.433   9.637  19.997  0.00  0.00    +0.000 A 
ATOM      2  C   UNL     1       0.684   8.689  20.997  0.00  0.00    +0.000 A 
ATOM      3  C   UNL     1       1.611   7.667  20.796  0.00  0.00    +0.000 A 
ATOM      4  C   UNL     1       2.286   7.591  19.583  0.00  0.00    +0.000 A 
ATOM      5  C   UNL     1       1.987   8.482  18.555  0.00  0.00    +0.000 A 
ATOM      6  F   UNL     1       2.551   8.354  17.345  0.00  0.00    +0.000 F 
ATOM      7  C   UNL     1       1.067   9.507  18.757  0.00  0.00    +0.000 A 
ENDROOT
BRANCH   1  13
ATOM      8  O   UNL     1      -2.805  11.807  19.616  0.00  0.00    +0.000 OA
ATOM      9  C   UNL     1      -2.460  12.708  20.386  0.00  0.00    +0.000 C 
ATOM     10  N   UNL     1      -1.223  12.755  20.997  0.00  0.00    +0.000 N 
ATOM     11  C   UNL     1      -0.223  11.815  20.988  0.00  0.00    +0.000 C 
ATOM     12  O   UNL     1       0.768  12.035  21.679  0.00  0.00    +0.000 OA
ATOM     13  N   UNL     1      -0.439  10.724  20.184  0.00  0.00    +0.000 N 
ATOM     14  H   UNL     1      -0.991  13.546  21.582  0.00  0.00    +0.000 HD
ATOM     15  H   UNL     1      -1.251  10.788  19.570  0.00  0.00    +0.000 HD
BRANCH   9  16
ATOM     16  C   UNL     1      -3.350  13.895  20.701  0.00  0.00    +0.000 C 
BRANCH  16  17
ATOM     17  C   UNL     1      -4.468  13.560  21.658  0.00  0.00    +0.000 A 
ATOM     18  C   UNL     1      -5.786  13.420  21.194  0.00  0.00    +0.000 A 
ATOM     19  C   UNL     1      -6.811  13.056  22.069  0.00  0.00    +0.000 A 
ATOM     20  C   UNL     1      -6.518  12.825  23.407  0.00  0.00    +0.000 A 
ATOM     21  F   UNL     1      -7.498  12.456  24.242  0.00  0.00    +0.000 F 
ATOM     22  C   UNL     1      -5.222  12.959  23.888  0.00  0.00    +0.000 A 
ATOM     23  C   UNL     1      -4.195  13.327  23.016  0.00  0.00    +0.000 A 
ENDBRANCH  16  17
ENDBRANCH   9  16
ENDBRANCH   1  13
BRANCH   4  24
ATOM     24  O   UNL     1       3.153   6.500  19.429  0.00  0.00    +0.000 OA
BRANCH  24  25
ATOM     25  C   UNL     1       2.722   5.372  18.762  0.00  0.00    +0.000 A 
ATOM     26  N   UNL     1       1.654   4.701  19.028  0.00  0.00    +0.000 NA
ATOM     27  C   UNL     1       1.445   3.561  18.291  0.00  0.00    +0.000 A 
ATOM     28  N   UNL     1       2.205   3.092  17.347  0.00  0.00    +0.000 NA
ATOM     29  N   UNL     1       3.292   3.840  17.084  0.00  0.00    +0.000 N 
ATOM     30  C   UNL     1       4.258   3.564  16.154  0.00  0.00    +0.000 A 
ATOM     31  C   UNL     1       5.172   4.598  16.173  0.00  0.00    +0.000 A 
ATOM     32  C   UNL     1       4.746   5.514  17.162  0.00  0.00    +0.000 A 
ATOM     33 CL   UNL     1       5.562   6.958  17.536  0.00  0.00    +0.000 Cl
ATOM     34  C   UNL     1       3.600   5.000  17.721  0.00  0.00    +0.000 A 
ENDBRANCH  24  25
ENDBRANCH   4  24
TORSDOF 5
ENDMDL
