MODEL 1
REMARK VINA RESULT:      -5.9      0.000      0.000
REMARK  Name = 
REMARK  9 active torsions:
REMARK  status: ('A' for Active; 'I' for Inactive)
REMARK    1  A    between atoms: C_1  and  N_2
REMARK    2  A    between atoms: N_2  and  C_3
REMARK    3  A    between atoms: N_2  and  C_4
REMARK    4  A    between atoms: N_7  and  C_8
REMARK    5  A    between atoms: C_8  and  C_9
REMARK    6  A    between atoms: C_9  and  N_10
REMARK    7  A    between atoms: C_13  and  N_14
REMARK    8  A    between atoms: N_14  and  C_15
REMARK    9  A    between atoms: N_14  and  C_16
REMARK                            x       y       z     vdW  Elec       q    Type
REMARK                         _______ _______ _______ _____ _____    ______ ____
ROOT
ATOM      1  C   UNL     1       3.580   4.044  18.702  0.00  0.00    +0.000 C 
ENDROOT
BRANCH   1   5
ATOM      2  C   UNL     1       1.717   7.637  20.180  0.00  0.00    +0.000 A 
ATOM      3  C   UNL     1       1.694   6.438  20.897  0.00  0.00    +0.000 A 
ATOM      4  C   UNL     1       2.279   5.277  20.395  0.00  0.00    +0.000 A 
ATOM      5  N   UNL     1       2.889   5.273  19.189  0.00  0.00    +0.000 N 
ATOM      6  C   UNL     1       2.928   6.414  18.458  0.00  0.00    +0.000 A 
ATOM      7  C   UNL     1       2.336   7.586  18.929  0.00  0.00    +0.000 A 
BRANCH   2   9
ATOM      8  C   UNL     1       1.311   9.140  22.098  0.00  0.00    +0.000 C 
ATOM      9  N   UNL     1       1.139   8.791  20.681  0.00  0.00    +0.000 N 
ATOM     10  C   UNL     1       0.721   9.888  19.803  0.00  0.00    +0.000 C 
ENDBRANCH   2   9
ENDBRANCH   1   5
BRANCH   1  11
ATOM     11  C   UNL     1       5.096   4.249  18.637  0.00  0.00    +0.000 C 
BRANCH  11  12
ATOM     12  N   UNL     1       5.561   4.407  17.229  0.00  0.00    +0.000 N 
ATOM     13  C   UNL     1       4.708   4.187  16.201  0.00  0.00    +0.000 A 
ATOM     14  C   UNL     1       5.147   4.256  14.879  0.00  0.00    +0.000 A 
ATOM     15  C   UNL     1       6.476   4.538  14.560  0.00  0.00    +0.000 A 
ATOM     16  C   UNL     1       7.321   4.762  15.651  0.00  0.00    +0.000 A 
ATOM     17  C   UNL     1       6.857   4.693  16.965  0.00  0.00    +0.000 A 
BRANCH  15  18
ATOM     18  N   UNL     1       6.947   4.539  13.264  0.00  0.00    +0.000 N 
ATOM     19  C   UNL     1       6.541   3.538  12.268  0.00  0.00    +0.000 C 
ATOM     20  C   UNL     1       8.085   5.359  12.824  0.00  0.00    +0.000 C 
ENDBRANCH  15  18
ENDBRANCH  11  12
ENDBRANCH   1  11
TORSDOF 5
ENDMDL
MODEL 2
REMARK VINA RESULT:      -5.8      0.644      7.615
REMARK  Name = 
REMARK  9 active torsions:
REMARK  status: ('A' for Active; 'I' for Inactive)
REMARK    1  A    between atoms: C_1  and  N_2
REMARK    2  A    between atoms: N_2  and  C_3
REMARK    3  A    between atoms: N_2  and  C_4
REMARK    4  A    between atoms: N_7  and  C_8
REMARK    5  A    between atoms: C_8  and  C_9
REMARK    6  A    between atoms: C_9  and  N_10
REMARK    7  A    between atoms: C_13  and  N_14
REMARK    8  A    between atoms: N_14  and  C_15
REMARK    9  A    between atoms: N_14  and  C_16
REMARK                            x       y       z     vdW  Elec       q    Type
REMARK                         _______ _______ _______ _____ _____    ______ ____
ROOT
ATOM      1  C   UNL     1       5.266   4.481  18.807  0.00  0.00    +0.000 C 
ENDROOT
BRANCH   1   5
ATOM      2  C   UNL     1       6.478   4.484  14.672  0.00  0.00    +0.000 A 
ATOM      3  C   UNL     1       5.214   4.047  15.077  0.00  0.00    +0.000 A 
ATOM      4  C   UNL     1       4.845   4.028  16.420  0.00  0.00    +0.000 A 
ATOM      5  N   UNL     1       5.705   4.432  17.382  0.00  0.00    +0.000 N 
ATOM      6  C   UNL     1       6.943   4.857  17.032  0.00  0.00    +0.000 A 
ATOM      7  C   UNL     1       7.345   4.871  15.697  0.00  0.00    +0.000 A 
BRANCH   2   9
ATOM      8  C   UNL     1       8.013   5.285  12.911  0.00  0.00    +0.000 C 
ATOM      9  N   UNL     1       6.843   4.506  13.336  0.00  0.00    +0.000 N 
ATOM     10  C   UNL     1       6.388   3.479  12.395  0.00  0.00    +0.000 C 
ENDBRANCH   2   9
ENDBRANCH   1   5
BRANCH   1  11
ATOM     11  C   UNL     1       3.743   4.372  18.922  0.00  0.00    +0.000 C 
BRANCH  11  12
ATOM     12  N   UNL     1       3.119   5.709  19.136  0.00  0.00    +0.000 N 
ATOM     13  C   UNL     1       2.394   5.952  20.253  0.00  0.00    +0.000 A 
ATOM     14  C   UNL     1       1.741   7.171  20.433  0.00  0.00    +0.000 A 
ATOM     15  C   UNL     1       1.795   8.182  19.472  0.00  0.00    +0.000 A 
ATOM     16  C   UNL     1       2.558   7.890  18.336  0.00  0.00    +0.000 A 
ATOM     17  C   UNL     1       3.206   6.665  18.182  0.00  0.00    +0.000 A 
BRANCH  15  18
ATOM     18  N   UNL     1       1.099   9.365  19.595  0.00  0.00    +0.000 N 
ATOM     19  C   UNL     1       0.690   9.918  20.894  0.00  0.00    +0.000 C 
ATOM     20  C   UNL     1       0.470  10.049  18.456  0.00  0.00    +0.000 C 
ENDBRANCH  15  18
ENDBRANCH  11  12
ENDBRANCH   1  11
TORSDOF 5
ENDMDL
MODEL 3
REMARK VINA RESULT:      -5.8      0.342      1.334
REMARK  Name = 
REMARK  9 active torsions:
REMARK  status: ('A' for Active; 'I' for Inactive)
REMARK    1  A    between atoms: C_1  and  N_2
REMARK    2  A    between atoms: N_2  and  C_3
REMARK    3  A    between atoms: N_2  and  C_4
REMARK    4  A    between atoms: N_7  and  C_8
REMARK    5  A    between atoms: C_8  and  C_9
REMARK    6  A    between atoms: C_9  and  N_10
REMARK    7  A    between atoms: C_13  and  N_14
REMARK    8  A    between atoms: N_14  and  C_15
REMARK    9  A    between atoms: N_14  and  C_16
REMARK                            x       y       z     vdW  Elec       q    Type
REMARK                         _______ _______ _______ _____ _____    ______ ____
ROOT
ATOM      1  C   UNL     1       3.668   4.085  18.772  0.00  0.00    +0.000 C 
ENDROOT
BRANCH   1   5
ATOM      2  C   UNL     1       1.741   7.763  19.920  0.00  0.00    +0.000 A 
ATOM      3  C   UNL     1       2.457   7.639  18.727  0.00  0.00    +0.000 A 
ATOM      4  C   UNL     1       3.097   6.451  18.381  0.00  0.00    +0.000 A 
ATOM      5  N   UNL     1       3.046   5.373  19.194  0.00  0.00    +0.000 N 
ATOM      6  C   UNL     1       2.367   5.453  20.365  0.00  0.00    +0.000 A 
ATOM      7  C   UNL     1       1.731   6.635  20.743  0.00  0.00    +0.000 A 
BRANCH   2   9
ATOM      8  C   UNL     1       0.817   9.947  19.228  0.00  0.00    +0.000 C 
ATOM      9  N   UNL     1       1.102   8.944  20.262  0.00  0.00    +0.000 N 
ATOM     10  C   UNL     1       0.330   9.071  21.501  0.00  0.00    +0.000 C 
ENDBRANCH   2   9
ENDBRANCH   1   5
BRANCH   1  11
ATOM     11  C   UNL     1       5.191   4.211  18.673  0.00  0.00    +0.000 C 
BRANCH  11  12
ATOM     12  N   UNL     1       5.629   4.381  17.258  0.00  0.00    +0.000 N 
ATOM     13  C   UNL     1       4.810   4.021  16.242  0.00  0.00    +0.000 A 
ATOM     14  C   UNL     1       5.234   4.102  14.917  0.00  0.00    +0.000 A 
ATOM     15  C   UNL     1       6.515   4.544  14.581  0.00  0.00    +0.000 A 
ATOM     16  C   UNL     1       7.326   4.909  15.660  0.00  0.00    +0.000 A 
ATOM     17  C   UNL     1       6.878   4.824  16.977  0.00  0.00    +0.000 A 
BRANCH  15  18
ATOM     18  N   UNL     1       6.980   4.563  13.283  0.00  0.00    +0.000 N 
ATOM     19  C   UNL     1       6.558   3.585  12.271  0.00  0.00    +0.000 C 
ATOM     20  C   UNL     1       8.125   5.378  12.852  0.00  0.00    +0.000 C 
ENDBRANCH  15  18
ENDBRANCH  11  12
ENDBRANCH   1  11
TORSDOF 5
ENDMDL
MODEL 4
REMARK VINA RESULT:      -5.8      2.627      3.651
REMARK  Name = 
REMARK  9 active torsions:
REMARK  status: ('A' for Active; 'I' for Inactive)
REMARK    1  A    between atoms: C_1  and  N_2
REMARK    2  A    between atoms: N_2  and  C_3
REMARK    3  A    between atoms: N_2  and  C_4
REMARK    4  A    between atoms: N_7  and  C_8
REMARK    5  A    between atoms: C_8  and  C_9
REMARK    6  A    between atoms: C_9  and  N_10
REMARK    7  A    between atoms: C_13  and  N_14
REMARK    8  A    between atoms: N_14  and  C_15
REMARK    9  A    between atoms: N_14  and  C_16
REMARK                            x       y       z     vdW  Elec       q    Type
REMARK                         _______ _______ _______ _____ _____    ______ ____
ROOT
ATOM      1  C   UNL     1       6.464   5.594  18.809  0.00  0.00    +0.000 C 
ENDROOT
BRANCH   1   5
ATOM      2  C   UNL     1       2.841   3.507  19.844  0.00  0.00    +0.000 A 
ATOM      3  C   UNL     1       4.009   2.833  19.481  0.00  0.00    +0.000 A 
ATOM      4  C   UNL     1       5.166   3.522  19.124  0.00  0.00    +0.000 A 
ATOM      5  N   UNL     1       5.195   4.873  19.115  0.00  0.00    +0.000 N 
ATOM      6  C   UNL     1       4.081   5.565  19.456  0.00  0.00    +0.000 A 
ATOM      7  C   UNL     1       2.904   4.901  19.801  0.00  0.00    +0.000 A 
BRANCH   2   9
ATOM      8  C   UNL     1       1.349   2.661  21.622  0.00  0.00    +0.000 C 
ATOM      9  N   UNL     1       1.691   2.821  20.203  0.00  0.00    +0.000 N 
ATOM     10  C   UNL     1       0.593   2.609  19.256  0.00  0.00    +0.000 C 
ENDBRANCH   2   9
ENDBRANCH   1   5
BRANCH   1  11
ATOM     11  C   UNL     1       6.321   6.459  17.552  0.00  0.00    +0.000 C 
BRANCH  11  12
ATOM     12  N   UNL     1       6.225   5.618  16.325  0.00  0.00    +0.000 N 
ATOM     13  C   UNL     1       7.346   5.248  15.662  0.00  0.00    +0.000 A 
ATOM     14  C   UNL     1       7.269   4.528  14.471  0.00  0.00    +0.000 A 
ATOM     15  C   UNL     1       6.044   4.170  13.907  0.00  0.00    +0.000 A 
ATOM     16  C   UNL     1       4.913   4.569  14.625  0.00  0.00    +0.000 A 
ATOM     17  C   UNL     1       5.015   5.284  15.818  0.00  0.00    +0.000 A 
BRANCH  15  18
ATOM     18  N   UNL     1       5.943   3.522  12.694  0.00  0.00    +0.000 N 
ATOM     19  C   UNL     1       7.111   3.201  11.862  0.00  0.00    +0.000 C 
ATOM     20  C   UNL     1       4.667   3.328  11.991  0.00  0.00    +0.000 C 
ENDBRANCH  15  18
ENDBRANCH  11  12
ENDBRANCH   1  11
TORSDOF 5
ENDMDL
MODEL 5
REMARK VINA RESULT:      -5.8      2.638      3.679
REMARK  Name = 
REMARK  9 active torsions:
REMARK  status: ('A' for Active; 'I' for Inactive)
REMARK    1  A    between atoms: C_1  and  N_2
REMARK    2  A    between atoms: N_2  and  C_3
REMARK    3  A    between atoms: N_2  and  C_4
REMARK    4  A    between atoms: N_7  and  C_8
REMARK    5  A    between atoms: C_8  and  C_9
REMARK    6  A    between atoms: C_9  and  N_10
REMARK    7  A    between atoms: C_13  and  N_14
REMARK    8  A    between atoms: N_14  and  C_15
REMARK    9  A    between atoms: N_14  and  C_16
REMARK                            x       y       z     vdW  Elec       q    Type
REMARK                         _______ _______ _______ _____ _____    ______ ____
ROOT
ATOM      1  C   UNL     1       6.481   5.601  18.734  0.00  0.00    +0.000 C 
ENDROOT
BRANCH   1   5
ATOM      2  C   UNL     1       2.880   3.512  19.844  0.00  0.00    +0.000 A 
ATOM      3  C   UNL     1       2.951   4.907  19.809  0.00  0.00    +0.000 A 
ATOM      4  C   UNL     1       4.129   5.569  19.473  0.00  0.00    +0.000 A 
ATOM      5  N   UNL     1       5.251   4.879  19.170  0.00  0.00    +0.000 N 
ATOM      6  C   UNL     1       5.227   3.524  19.198  0.00  0.00    +0.000 A 
ATOM      7  C   UNL     1       4.065   2.836  19.547  0.00  0.00    +0.000 A 
BRANCH   2   9
ATOM      8  C   UNL     1       1.357   2.647  21.586  0.00  0.00    +0.000 C 
ATOM      9  N   UNL     1       1.707   2.854  20.174  0.00  0.00    +0.000 N 
ATOM     10  C   UNL     1       0.603   2.721  19.220  0.00  0.00    +0.000 C 
ENDBRANCH   2   9
ENDBRANCH   1   5
BRANCH   1  11
ATOM     11  C   UNL     1       6.215   6.446  17.484  0.00  0.00    +0.000 C 
BRANCH  11  12
ATOM     12  N   UNL     1       6.157   5.597  16.260  0.00  0.00    +0.000 N 
ATOM     13  C   UNL     1       7.283   5.342  15.553  0.00  0.00    +0.000 A 
ATOM     14  C   UNL     1       7.233   4.615  14.365  0.00  0.00    +0.000 A 
ATOM     15  C   UNL     1       6.029   4.132  13.849  0.00  0.00    +0.000 A 
ATOM     16  C   UNL     1       4.892   4.414  14.612  0.00  0.00    +0.000 A 
ATOM     17  C   UNL     1       4.968   5.140  15.801  0.00  0.00    +0.000 A 
BRANCH  15  18
ATOM     18  N   UNL     1       5.947   3.474  12.640  0.00  0.00    +0.000 N 
ATOM     19  C   UNL     1       7.131   3.118  11.844  0.00  0.00    +0.000 C 
ATOM     20  C   UNL     1       4.687   3.301  11.904  0.00  0.00    +0.000 C 
ENDBRANCH  15  18
ENDBRANCH  11  12
ENDBRANCH   1  11
TORSDOF 5
ENDMDL
MODEL 6
REMARK VINA RESULT:      -5.8      0.745      7.658
REMARK  Name = 
REMARK  9 active torsions:
REMARK  status: ('A' for Active; 'I' for Inactive)
REMARK    1  A    between atoms: C_1  and  N_2
REMARK    2  A    between atoms: N_2  and  C_3
REMARK    3  A    between atoms: N_2  and  C_4
REMARK    4  A    between atoms: N_7  and  C_8
REMARK    5  A    between atoms: C_8  and  C_9
REMARK    6  A    between atoms: C_9  and  N_10
REMARK    7  A    between atoms: C_13  and  N_14
REMARK    8  A    between atoms: N_14  and  C_15
REMARK    9  A    between atoms: N_14  and  C_16
REMARK                            x       y       z     vdW  Elec       q    Type
REMARK                         _______ _______ _______ _____ _____    ______ ____
ROOT
ATOM      1  C   UNL     1       4.990   4.509  18.875  0.00  0.00    +0.000 C 
ENDROOT
BRANCH   1   5
ATOM      2  C   UNL     1       6.472   4.363  14.832  0.00  0.00    +0.000 A 
ATOM      3  C   UNL     1       7.286   4.717  15.910  0.00  0.00    +0.000 A 
ATOM      4  C   UNL     1       6.787   4.784  17.209  0.00  0.00    +0.000 A 
ATOM      5  N   UNL     1       5.489   4.511  17.469  0.00  0.00    +0.000 N 
ATOM      6  C   UNL     1       4.663   4.169  16.450  0.00  0.00    +0.000 A 
ATOM      7  C   UNL     1       5.133   4.110  15.138  0.00  0.00    +0.000 A 
BRANCH   2   9
ATOM      8  C   UNL     1       6.250   3.518  12.521  0.00  0.00    +0.000 C 
ATOM      9  N   UNL     1       6.970   4.292  13.541  0.00  0.00    +0.000 N 
ATOM     10  C   UNL     1       7.934   5.271  13.032  0.00  0.00    +0.000 C 
ENDBRANCH   2   9
ENDBRANCH   1   5
BRANCH   1  11
ATOM     11  C   UNL     1       3.460   4.470  18.919  0.00  0.00    +0.000 C 
BRANCH  11  12
ATOM     12  N   UNL     1       2.890   5.825  19.165  0.00  0.00    +0.000 N 
ATOM     13  C   UNL     1       2.244   6.093  20.324  0.00  0.00    +0.000 A 
ATOM     14  C   UNL     1       1.639   7.331  20.537  0.00  0.00    +0.000 A 
ATOM     15  C   UNL     1       1.662   8.337  19.569  0.00  0.00    +0.000 A 
ATOM     16  C   UNL     1       2.342   8.019  18.390  0.00  0.00    +0.000 A 
ATOM     17  C   UNL     1       2.944   6.775  18.202  0.00  0.00    +0.000 A 
BRANCH  15  18
ATOM     18  N   UNL     1       1.009   9.540  19.729  0.00  0.00    +0.000 N 
ATOM     19  C   UNL     1      -0.092   9.729  20.685  0.00  0.00    +0.000 C 
ATOM     20  C   UNL     1       1.158  10.665  18.795  0.00  0.00    +0.000 C 
ENDBRANCH  15  18
ENDBRANCH  11  12
ENDBRANCH   1  11
TORSDOF 5
ENDMDL
MODEL 7
REMARK VINA RESULT:      -5.7      0.862      7.583
REMARK  Name = 
REMARK  9 active torsions:
REMARK  status: ('A' for Active; 'I' for Inactive)
REMARK    1  A    between atoms: C_1  and  N_2
REMARK    2  A    between atoms: N_2  and  C_3
REMARK    3  A    between atoms: N_2  and  C_4
REMARK    4  A    between atoms: N_7  and  C_8
REMARK    5  A    between atoms: C_8  and  C_9
REMARK    6  A    between atoms: C_9  and  N_10
REMARK    7  A    between atoms: C_13  and  N_14
REMARK    8  A    between atoms: N_14  and  C_15
REMARK    9  A    between atoms: N_14  and  C_16
REMARK                            x       y       z     vdW  Elec       q    Type
REMARK                         _______ _______ _______ _____ _____    ______ ____
ROOT
ATOM      1  C   UNL     1       5.397   4.901  18.917  0.00  0.00    +0.000 C 
ENDROOT
BRANCH   1   5
ATOM      2  C   UNL     1       6.489   4.374  14.783  0.00  0.00    +0.000 A 
ATOM      3  C   UNL     1       5.360   3.767  15.338  0.00  0.00    +0.000 A 
ATOM      4  C   UNL     1       5.033   3.926  16.682  0.00  0.00    +0.000 A 
ATOM      5  N   UNL     1       5.804   4.675  17.500  0.00  0.00    +0.000 N 
ATOM      6  C   UNL     1       6.913   5.277  17.004  0.00  0.00    +0.000 A 
ATOM      7  C   UNL     1       7.272   5.121  15.665  0.00  0.00    +0.000 A 
BRANCH   2   9
ATOM      8  C   UNL     1       5.930   3.440  12.566  0.00  0.00    +0.000 C 
ATOM      9  N   UNL     1       6.811   4.219  13.445  0.00  0.00    +0.000 N 
ATOM     10  C   UNL     1       7.748   5.121  12.768  0.00  0.00    +0.000 C 
ENDBRANCH   2   9
ENDBRANCH   1   5
BRANCH   1  11
ATOM     11  C   UNL     1       3.907   4.606  19.119  0.00  0.00    +0.000 C 
BRANCH  11  12
ATOM     12  N   UNL     1       3.110   5.864  19.184  0.00  0.00    +0.000 N 
ATOM     13  C   UNL     1       3.151   6.750  18.161  0.00  0.00    +0.000 A 
ATOM     14  C   UNL     1       2.472   7.965  18.239  0.00  0.00    +0.000 A 
ATOM     15  C   UNL     1       1.738   8.325  19.370  0.00  0.00    +0.000 A 
ATOM     16  C   UNL     1       1.719   7.380  20.400  0.00  0.00    +0.000 A 
ATOM     17  C   UNL     1       2.402   6.169  20.296  0.00  0.00    +0.000 A 
BRANCH  15  18
ATOM     18  N   UNL     1       1.120   9.551  19.498  0.00  0.00    +0.000 N 
ATOM     19  C   UNL     1      -0.036   9.773  20.378  0.00  0.00    +0.000 C 
ATOM     20  C   UNL     1       1.374  10.677  18.588  0.00  0.00    +0.000 C 
ENDBRANCH  15  18
ENDBRANCH  11  12
ENDBRANCH   1  11
TORSDOF 5
ENDMDL
MODEL 8
REMARK VINA RESULT:      -5.7      0.779      1.696
REMARK  Name = 
REMARK  9 active torsions:
REMARK  status: ('A' for Active; 'I' for Inactive)
REMARK    1  A    between atoms: C_1  and  N_2
REMARK    2  A    between atoms: N_2  and  C_3
REMARK    3  A    between atoms: N_2  and  C_4
REMARK    4  A    between atoms: N_7  and  C_8
REMARK    5  A    between atoms: C_8  and  C_9
REMARK    6  A    between atoms: C_9  and  N_10
REMARK    7  A    between atoms: C_13  and  N_14
REMARK    8  A    between atoms: N_14  and  C_15
REMARK    9  A    between atoms: N_14  and  C_16
REMARK                            x       y       z     vdW  Elec       q    Type
REMARK                         _______ _______ _______ _____ _____    ______ ____
ROOT
ATOM      1  C   UNL     1       3.833   4.461  19.152  0.00  0.00    +0.000 C 
ENDROOT
BRANCH   1   5
ATOM      2  C   UNL     1       1.799   8.254  19.330  0.00  0.00    +0.000 A 
ATOM      3  C   UNL     1       2.598   7.889  18.245  0.00  0.00    +0.000 A 
ATOM      4  C   UNL     1       3.271   6.670  18.212  0.00  0.00    +0.000 A 
ATOM      5  N   UNL     1       3.172   5.795  19.238  0.00  0.00    +0.000 N 
ATOM      6  C   UNL     1       2.411   6.114  20.314  0.00  0.00    +0.000 A 
ATOM      7  C   UNL     1       1.741   7.335  20.380  0.00  0.00    +0.000 A 
BRANCH   2   9
ATOM      8  C   UNL     1       0.387   9.862  20.565  0.00  0.00    +0.000 C 
ATOM      9  N   UNL     1       1.127   9.466  19.360  0.00  0.00    +0.000 N 
ATOM     10  C   UNL     1       1.450  10.549  18.428  0.00  0.00    +0.000 C 
ENDBRANCH   2   9
ENDBRANCH   1   5
BRANCH   1  11
ATOM     11  C   UNL     1       5.348   4.603  18.979  0.00  0.00    +0.000 C 
BRANCH  11  12
ATOM     12  N   UNL     1       5.744   4.470  17.547  0.00  0.00    +0.000 N 
ATOM     13  C   UNL     1       6.889   5.039  17.100  0.00  0.00    +0.000 A 
ATOM     14  C   UNL     1       7.233   4.989  15.751  0.00  0.00    +0.000 A 
ATOM     15  C   UNL     1       6.416   4.368  14.806  0.00  0.00    +0.000 A 
ATOM     16  C   UNL     1       5.246   3.791  15.310  0.00  0.00    +0.000 A 
ATOM     17  C   UNL     1       4.925   3.849  16.666  0.00  0.00    +0.000 A 
BRANCH  15  18
ATOM     18  N   UNL     1       6.701   4.370  13.457  0.00  0.00    +0.000 N 
ATOM     19  C   UNL     1       6.141   3.383  12.522  0.00  0.00    +0.000 C 
ATOM     20  C   UNL     1       7.780   5.174  12.866  0.00  0.00    +0.000 C 
ENDBRANCH  15  18
ENDBRANCH  11  12
ENDBRANCH   1  11
TORSDOF 5
ENDMDL
MODEL 9
REMARK VINA RESULT:      -5.7      1.360      2.135
REMARK  Name = 
REMARK  9 active torsions:
REMARK  status: ('A' for Active; 'I' for Inactive)
REMARK    1  A    between atoms: C_1  and  N_2
REMARK    2  A    between atoms: N_2  and  C_3
REMARK    3  A    between atoms: N_2  and  C_4
REMARK    4  A    between atoms: N_7  and  C_8
REMARK    5  A    between atoms: C_8  and  C_9
REMARK    6  A    between atoms: C_9  and  N_10
REMARK    7  A    between atoms: C_13  and  N_14
REMARK    8  A    between atoms: N_14  and  C_15
REMARK    9  A    between atoms: N_14  and  C_16
REMARK                            x       y       z     vdW  Elec       q    Type
REMARK                         _______ _______ _______ _____ _____    ______ ____
ROOT
ATOM      1  C   UNL     1       3.063   5.741  18.755  0.00  0.00    +0.000 C 
ENDROOT
BRANCH   1   5
ATOM      2  C   UNL     1       1.075   9.480  19.545  0.00  0.00    +0.000 A 
ATOM      3  C   UNL     1       1.596   9.166  18.288  0.00  0.00    +0.000 A 
ATOM      4  C   UNL     1       2.259   7.963  18.053  0.00  0.00    +0.000 A 
ATOM      5  N   UNL     1       2.422   7.057  19.042  0.00  0.00    +0.000 N 
ATOM      6  C   UNL     1       1.937   7.325  20.279  0.00  0.00    +0.000 A 
ATOM      7  C   UNL     1       1.283   8.528  20.545  0.00  0.00    +0.000 A 
BRANCH   2   9
ATOM      8  C   UNL     1       1.030  11.700  20.627  0.00  0.00    +0.000 C 
ATOM      9  N   UNL     1       0.412  10.674  19.777  0.00  0.00    +0.000 N 
ATOM     10  C   UNL     1      -0.666  11.140  18.901  0.00  0.00    +0.000 C 
ENDBRANCH   2   9
ENDBRANCH   1   5
BRANCH   1  11
ATOM     11  C   UNL     1       4.588   5.830  18.869  0.00  0.00    +0.000 C 
BRANCH  11  12
ATOM     12  N   UNL     1       5.245   5.565  17.557  0.00  0.00    +0.000 N 
ATOM     13  C   UNL     1       4.790   6.165  16.432  0.00  0.00    +0.000 A 
ATOM     14  C   UNL     1       5.344   5.868  15.188  0.00  0.00    +0.000 A 
ATOM     15  C   UNL     1       6.375   4.939  15.045  0.00  0.00    +0.000 A 
ATOM     16  C   UNL     1       6.817   4.346  16.232  0.00  0.00    +0.000 A 
ATOM     17  C   UNL     1       6.251   4.663  17.466  0.00  0.00    +0.000 A 
BRANCH  15  18
ATOM     18  N   UNL     1       6.888   4.577  13.818  0.00  0.00    +0.000 N 
ATOM     19  C   UNL     1       7.997   5.295  13.174  0.00  0.00    +0.000 C 
ATOM     20  C   UNL     1       6.221   3.624  12.919  0.00  0.00    +0.000 C 
ENDBRANCH  15  18
ENDBRANCH  11  12
ENDBRANCH   1  11
TORSDOF 5
ENDMDL
