MODEL 1
REMARK VINA RESULT:      -7.6      0.000      0.000
REMARK  Name = 
REMARK  7 active torsions:
REMARK  status: ('A' for Active; 'I' for Inactive)
REMARK    1  A    between atoms: C_1  and  C_2
REMARK    2  A    between atoms: C_5  and  N_6
REMARK    3  A    between atoms: C_7  and  C_9
REMARK    4  A    between atoms: C_13  and  C_14
REMARK    5  A    between atoms: N_16  and  C_17
REMARK    6  A    between atoms: C_17  and  C_18
REMARK    7  A    between atoms: C_22  and  C_23
REMARK                            x       y       z     vdW  Elec       q    Type
REMARK                         _______ _______ _______ _____ _____    ______ ____
ROOT
ATOM      1  C   UNL     1       1.365   9.057  21.065  0.00  0.00    +0.000 C 
ATOM      2  C   UNL     1       0.787   8.685  22.426  0.00  0.00    +0.000 C 
ATOM      3  N   UNL     1       0.493   9.889  23.208  0.00  0.00    +0.000 NA
ATOM      4  C   UNL     1      -0.457  10.758  22.499  0.00  0.00    +0.000 C 
ATOM      5  C   UNL     1       0.039  11.202  21.108  0.00  0.00    +0.000 C 
ATOM      6  C   UNL     1       0.436   9.978  20.269  0.00  0.00    +0.000 C 
ATOM      7  H   UNL     1       1.356  10.404  23.384  0.00  0.00    +0.000 HD
ENDROOT
BRANCH   1   9
ATOM      8  N   UNL     1       1.906   6.640  20.935  0.00  0.00    +0.000 N 
ATOM      9  C   UNL     1       1.806   7.845  20.261  0.00  0.00    +0.000 C 
ATOM     10  O   UNL     1       2.016   8.010  19.056  0.00  0.00    +0.000 OA
ATOM     11  H   UNL     1       1.777   6.636  21.940  0.00  0.00    +0.000 HD
BRANCH   8  16
ATOM     12  C   UNL     1       3.310   1.668  18.512  0.00  0.00    +0.000 C 
ATOM     13  C   UNL     1       2.918   2.967  19.154  0.00  0.00    +0.000 A 
ATOM     14  C   UNL     1       1.630   3.136  19.633  0.00  0.00    +0.000 A 
ATOM     15  C   UNL     1       1.280   4.353  20.223  0.00  0.00    +0.000 A 
ATOM     16  C   UNL     1       2.202   5.384  20.331  0.00  0.00    +0.000 A 
ATOM     17  C   UNL     1       3.474   5.120  19.824  0.00  0.00    +0.000 A 
ATOM     18  N   UNL     1       3.852   3.946  19.243  0.00  0.00    +0.000 NA
ENDBRANCH   8  16
ENDBRANCH   1   9
BRANCH   5  19
ATOM     19  C   UNL     1      -1.049  12.021  20.419  0.00  0.00    +0.000 C 
ATOM     20  O   UNL     1      -1.080  13.249  20.467  0.00  0.00    +0.000 OA
ATOM     21  N   UNL     1      -1.994  11.302  19.726  0.00  0.00    +0.000 N 
ATOM     22  H   UNL     1      -1.908  10.301  19.602  0.00  0.00    +0.000 HD
BRANCH  21  23
ATOM     23  C   UNL     1      -3.016  12.009  18.981  0.00  0.00    +0.000 C 
BRANCH  23  24
ATOM     24  C   UNL     1      -3.205  11.370  17.641  0.00  0.00    +0.000 A 
ATOM     25  S   UNL     1      -1.953  10.391  16.994  0.00  0.00    +0.000 S 
ATOM     26  C   UNL     1      -2.837  10.086  15.569  0.00  0.00    +0.000 A 
ATOM     27  C   UNL     1      -4.060  10.715  15.577  0.00  0.00    +0.000 A 
ATOM     28  C   UNL     1      -4.285  11.471  16.775  0.00  0.00    +0.000 A 
ATOM     29  C   UNL     1      -5.522  12.267  17.035  0.00  0.00    +0.000 C 
ENDBRANCH  23  24
ENDBRANCH  21  23
ENDBRANCH   5  19
TORSDOF 5
ENDMDL
MODEL 2
REMARK VINA RESULT:      -7.3      6.999      9.930
REMARK  Name = 
REMARK  7 active torsions:
REMARK  status: ('A' for Active; 'I' for Inactive)
REMARK    1  A    between atoms: C_1  and  C_2
REMARK    2  A    between atoms: C_5  and  N_6
REMARK    3  A    between atoms: C_7  and  C_9
REMARK    4  A    between atoms: C_13  and  C_14
REMARK    5  A    between atoms: N_16  and  C_17
REMARK    6  A    between atoms: C_17  and  C_18
REMARK    7  A    between atoms: C_22  and  C_23
REMARK                            x       y       z     vdW  Elec       q    Type
REMARK                         _______ _______ _______ _____ _____    ______ ____
ROOT
ATOM      1  C   UNL     1       7.241   6.894  17.421  0.00  0.00    +0.000 C 
ATOM      2  C   UNL     1       6.074   7.616  16.756  0.00  0.00    +0.000 C 
ATOM      3  N   UNL     1       5.292   6.687  15.936  0.00  0.00    +0.000 NA
ATOM      4  C   UNL     1       4.776   5.575  16.746  0.00  0.00    +0.000 C 
ATOM      5  C   UNL     1       5.882   4.770  17.457  0.00  0.00    +0.000 C 
ATOM      6  C   UNL     1       6.783   5.708  18.274  0.00  0.00    +0.000 C 
ATOM      7  H   UNL     1       5.876   6.316  15.185  0.00  0.00    +0.000 HD
ENDROOT
BRANCH   1   9
ATOM      8  N   UNL     1       8.236   9.144  17.737  0.00  0.00    +0.000 N 
ATOM      9  C   UNL     1       8.159   7.835  18.183  0.00  0.00    +0.000 C 
ATOM     10  O   UNL     1       8.750   7.378  19.165  0.00  0.00    +0.000 OA
ATOM     11  H   UNL     1       7.760   9.390  16.878  0.00  0.00    +0.000 HD
BRANCH   8  16
ATOM     12  C   UNL     1      11.084  13.232  20.518  0.00  0.00    +0.000 C 
ATOM     13  C   UNL     1      10.344  12.164  19.766  0.00  0.00    +0.000 A 
ATOM     14  C   UNL     1      10.425  12.116  18.384  0.00  0.00    +0.000 A 
ATOM     15  C   UNL     1       9.727  11.121  17.698  0.00  0.00    +0.000 A 
ATOM     16  C   UNL     1       8.958  10.189  18.382  0.00  0.00    +0.000 A 
ATOM     17  C   UNL     1       8.940  10.315  19.770  0.00  0.00    +0.000 A 
ATOM     18  N   UNL     1       9.609  11.272  20.473  0.00  0.00    +0.000 NA
ENDBRANCH   8  16
ENDBRANCH   1   9
BRANCH   5  19
ATOM     19  C   UNL     1       5.243   3.702  18.341  0.00  0.00    +0.000 C 
ATOM     20  O   UNL     1       5.548   3.556  19.523  0.00  0.00    +0.000 OA
ATOM     21  N   UNL     1       4.292   2.912  17.738  0.00  0.00    +0.000 N 
ATOM     22  H   UNL     1       3.970   3.101  16.798  0.00  0.00    +0.000 HD
BRANCH  21  23
ATOM     23  C   UNL     1       3.586   1.926  18.530  0.00  0.00    +0.000 C 
BRANCH  23  24
ATOM     24  C   UNL     1       2.612   2.606  19.440  0.00  0.00    +0.000 A 
ATOM     25  S   UNL     1       2.647   2.254  21.120  0.00  0.00    +0.000 S 
ATOM     26  C   UNL     1       1.339   3.302  21.435  0.00  0.00    +0.000 A 
ATOM     27  C   UNL     1       0.880   3.909  20.289  0.00  0.00    +0.000 A 
ATOM     28  C   UNL     1       1.607   3.509  19.120  0.00  0.00    +0.000 A 
ATOM     29  C   UNL     1       1.303   4.000  17.743  0.00  0.00    +0.000 C 
ENDBRANCH  23  24
ENDBRANCH  21  23
ENDBRANCH   5  19
TORSDOF 5
ENDMDL
MODEL 3
REMARK VINA RESULT:      -7.3      1.989      2.437
REMARK  Name = 
REMARK  7 active torsions:
REMARK  status: ('A' for Active; 'I' for Inactive)
REMARK    1  A    between atoms: C_1  and  C_2
REMARK    2  A    between atoms: C_5  and  N_6
REMARK    3  A    between atoms: C_7  and  C_9
REMARK    4  A    between atoms: C_13  and  C_14
REMARK    5  A    between atoms: N_16  and  C_17
REMARK    6  A    between atoms: C_17  and  C_18
REMARK    7  A    between atoms: C_22  and  C_23
REMARK                            x       y       z     vdW  Elec       q    Type
REMARK                         _______ _______ _______ _____ _____    ______ ____
ROOT
ATOM      1  C   UNL     1       1.038   9.312  21.236  0.00  0.00    +0.000 C 
ATOM      2  C   UNL     1       0.338   8.894  22.525  0.00  0.00    +0.000 C 
ATOM      3  N   UNL     1       0.004  10.069  23.334  0.00  0.00    +0.000 NA
ATOM      4  C   UNL     1      -0.864  10.992  22.589  0.00  0.00    +0.000 C 
ATOM      5  C   UNL     1      -0.243  11.485  21.267  0.00  0.00    +0.000 C 
ATOM      6  C   UNL     1       0.199  10.291  20.408  0.00  0.00    +0.000 C 
ATOM      7  H   UNL     1       0.860  10.555  23.606  0.00  0.00    +0.000 HD
ENDROOT
BRANCH   1   9
ATOM      8  N   UNL     1       1.626   6.909  21.065  0.00  0.00    +0.000 N 
ATOM      9  C   UNL     1       1.520   8.127  20.416  0.00  0.00    +0.000 C 
ATOM     10  O   UNL     1       1.757   8.324  19.221  0.00  0.00    +0.000 OA
ATOM     11  H   UNL     1       1.471   6.880  22.066  0.00  0.00    +0.000 HD
BRANCH   8  16
ATOM     12  C   UNL     1       3.174   2.031  18.543  0.00  0.00    +0.000 C 
ATOM     13  C   UNL     1       2.746   3.304  19.213  0.00  0.00    +0.000 A 
ATOM     14  C   UNL     1       1.494   3.384  19.799  0.00  0.00    +0.000 A 
ATOM     15  C   UNL     1       1.108   4.577  20.414  0.00  0.00    +0.000 A 
ATOM     16  C   UNL     1       1.959   5.673  20.442  0.00  0.00    +0.000 A 
ATOM     17  C   UNL     1       3.200   5.497  19.829  0.00  0.00    +0.000 A 
ATOM     18  N   UNL     1       3.611   4.348  19.220  0.00  0.00    +0.000 NA
ENDBRANCH   8  16
ENDBRANCH   1   9
BRANCH   5  19
ATOM     19  C   UNL     1      -1.251  12.360  20.527  0.00  0.00    +0.000 C 
ATOM     20  O   UNL     1      -1.142  12.625  19.332  0.00  0.00    +0.000 OA
ATOM     21  N   UNL     1      -2.304  12.830  21.277  0.00  0.00    +0.000 N 
ATOM     22  H   UNL     1      -2.447  12.526  22.232  0.00  0.00    +0.000 HD
BRANCH  21  23
ATOM     23  C   UNL     1      -3.344  13.603  20.630  0.00  0.00    +0.000 C 
BRANCH  23  24
ATOM     24  C   UNL     1      -4.546  12.744  20.391  0.00  0.00    +0.000 A 
ATOM     25  S   UNL     1      -4.742  11.983  18.866  0.00  0.00    +0.000 S 
ATOM     26  C   UNL     1      -6.222  11.277  19.333  0.00  0.00    +0.000 A 
ATOM     27  C   UNL     1      -6.566  11.612  20.622  0.00  0.00    +0.000 A 
ATOM     28  C   UNL     1      -5.603  12.470  21.248  0.00  0.00    +0.000 A 
ATOM     29  C   UNL     1      -5.740  12.999  22.638  0.00  0.00    +0.000 C 
ENDBRANCH  23  24
ENDBRANCH  21  23
ENDBRANCH   5  19
TORSDOF 5
ENDMDL
MODEL 4
REMARK VINA RESULT:      -7.3      2.013      2.560
REMARK  Name = 
REMARK  7 active torsions:
REMARK  status: ('A' for Active; 'I' for Inactive)
REMARK    1  A    between atoms: C_1  and  C_2
REMARK    2  A    between atoms: C_5  and  N_6
REMARK    3  A    between atoms: C_7  and  C_9
REMARK    4  A    between atoms: C_13  and  C_14
REMARK    5  A    between atoms: N_16  and  C_17
REMARK    6  A    between atoms: C_17  and  C_18
REMARK    7  A    between atoms: C_22  and  C_23
REMARK                            x       y       z     vdW  Elec       q    Type
REMARK                         _______ _______ _______ _____ _____    ______ ____
ROOT
ATOM      1  C   UNL     1       1.057   9.308  21.280  0.00  0.00    +0.000 C 
ATOM      2  C   UNL     1       0.314   8.874  22.539  0.00  0.00    +0.000 C 
ATOM      3  N   UNL     1       0.002  10.033  23.379  0.00  0.00    +0.000 NA
ATOM      4  C   UNL     1      -0.815  11.010  22.646  0.00  0.00    +0.000 C 
ATOM      5  C   UNL     1      -0.146  11.524  21.356  0.00  0.00    +0.000 C 
ATOM      6  C   UNL     1       0.273  10.343  20.468  0.00  0.00    +0.000 C 
ATOM      7  H   UNL     1       0.868  10.478  23.686  0.00  0.00    +0.000 HD
ENDROOT
BRANCH   1   9
ATOM      8  N   UNL     1       1.661   6.912  21.068  0.00  0.00    +0.000 N 
ATOM      9  C   UNL     1       1.517   8.134  20.433  0.00  0.00    +0.000 C 
ATOM     10  O   UNL     1       1.703   8.341  19.231  0.00  0.00    +0.000 OA
ATOM     11  H   UNL     1       1.548   6.874  22.074  0.00  0.00    +0.000 HD
BRANCH   8  16
ATOM     12  C   UNL     1       3.153   2.065  18.453  0.00  0.00    +0.000 C 
ATOM     13  C   UNL     1       2.740   3.330  19.147  0.00  0.00    +0.000 A 
ATOM     14  C   UNL     1       1.498   3.405  19.756  0.00  0.00    +0.000 A 
ATOM     15  C   UNL     1       1.126   4.590  20.394  0.00  0.00    +0.000 A 
ATOM     16  C   UNL     1       1.980   5.684  20.422  0.00  0.00    +0.000 A 
ATOM     17  C   UNL     1       3.210   5.513  19.785  0.00  0.00    +0.000 A 
ATOM     18  N   UNL     1       3.607   4.371  19.154  0.00  0.00    +0.000 NA
ENDBRANCH   8  16
ENDBRANCH   1   9
BRANCH   5  19
ATOM     19  C   UNL     1      -1.106  12.457  20.623  0.00  0.00    +0.000 C 
ATOM     20  O   UNL     1      -0.964  12.751  19.438  0.00  0.00    +0.000 OA
ATOM     21  N   UNL     1      -2.154  12.947  21.367  0.00  0.00    +0.000 N 
ATOM     22  H   UNL     1      -2.326  12.623  22.310  0.00  0.00    +0.000 HD
BRANCH  21  23
ATOM     23  C   UNL     1      -3.150  13.779  20.724  0.00  0.00    +0.000 C 
BRANCH  23  24
ATOM     24  C   UNL     1      -4.471  13.075  20.711  0.00  0.00    +0.000 A 
ATOM     25  S   UNL     1      -5.549  13.290  22.028  0.00  0.00    +0.000 S 
ATOM     26  C   UNL     1      -6.703  12.239  21.342  0.00  0.00    +0.000 A 
ATOM     27  C   UNL     1      -6.281  11.730  20.136  0.00  0.00    +0.000 A 
ATOM     28  C   UNL     1      -4.981  12.203  19.759  0.00  0.00    +0.000 A 
ATOM     29  C   UNL     1      -4.278  11.792  18.507  0.00  0.00    +0.000 C 
ENDBRANCH  23  24
ENDBRANCH  21  23
ENDBRANCH   5  19
TORSDOF 5
ENDMDL
MODEL 5
REMARK VINA RESULT:      -7.2      2.397      3.093
REMARK  Name = 
REMARK  7 active torsions:
REMARK  status: ('A' for Active; 'I' for Inactive)
REMARK    1  A    between atoms: C_1  and  C_2
REMARK    2  A    between atoms: C_5  and  N_6
REMARK    3  A    between atoms: C_7  and  C_9
REMARK    4  A    between atoms: C_13  and  C_14
REMARK    5  A    between atoms: N_16  and  C_17
REMARK    6  A    between atoms: C_17  and  C_18
REMARK    7  A    between atoms: C_22  and  C_23
REMARK                            x       y       z     vdW  Elec       q    Type
REMARK                         _______ _______ _______ _____ _____    ______ ____
ROOT
ATOM      1  C   UNL     1       1.235   9.238  20.861  0.00  0.00    +0.000 C 
ATOM      2  C   UNL     1       0.752   8.930  22.274  0.00  0.00    +0.000 C 
ATOM      3  N   UNL     1       0.444  10.167  22.995  0.00  0.00    +0.000 NA
ATOM      4  C   UNL     1      -0.585  10.945  22.290  0.00  0.00    +0.000 C 
ATOM      5  C   UNL     1      -0.190  11.320  20.848  0.00  0.00    +0.000 C 
ATOM      6  C   UNL     1       0.220  10.063  20.065  0.00  0.00    +0.000 C 
ATOM      7  H   UNL     1       1.290  10.732  23.088  0.00  0.00    +0.000 HD
ENDROOT
BRANCH   1   9
ATOM      8  N   UNL     1       1.777   6.819  20.829  0.00  0.00    +0.000 N 
ATOM      9  C   UNL     1       1.689   7.998  20.110  0.00  0.00    +0.000 C 
ATOM     10  O   UNL     1       1.921   8.120  18.904  0.00  0.00    +0.000 OA
ATOM     11  H   UNL     1       1.630   6.851  21.831  0.00  0.00    +0.000 HD
BRANCH   8  16
ATOM     12  C   UNL     1       3.220   1.765  18.608  0.00  0.00    +0.000 C 
ATOM     13  C   UNL     1       2.818   3.085  19.197  0.00  0.00    +0.000 A 
ATOM     14  C   UNL     1       1.533   3.259  19.683  0.00  0.00    +0.000 A 
ATOM     15  C   UNL     1       1.173   4.495  20.223  0.00  0.00    +0.000 A 
ATOM     16  C   UNL     1       2.083   5.542  20.277  0.00  0.00    +0.000 A 
ATOM     17  C   UNL     1       3.353   5.272  19.767  0.00  0.00    +0.000 A 
ATOM     18  N   UNL     1       3.740   4.078  19.234  0.00  0.00    +0.000 NA
ENDBRANCH   8  16
ENDBRANCH   1   9
BRANCH   5  19
ATOM     19  C   UNL     1      -1.353  12.041  20.174  0.00  0.00    +0.000 C 
ATOM     20  O   UNL     1      -1.285  12.472  19.024  0.00  0.00    +0.000 OA
ATOM     21  N   UNL     1      -2.496  12.175  20.927  0.00  0.00    +0.000 N 
ATOM     22  H   UNL     1      -2.585  11.730  21.832  0.00  0.00    +0.000 HD
BRANCH  21  23
ATOM     23  C   UNL     1      -3.669  12.780  20.332  0.00  0.00    +0.000 C 
BRANCH  23  24
ATOM     24  C   UNL     1      -4.791  12.803  21.323  0.00  0.00    +0.000 A 
ATOM     25  S   UNL     1      -4.484  13.341  22.923  0.00  0.00    +0.000 S 
ATOM     26  C   UNL     1      -6.099  13.066  23.396  0.00  0.00    +0.000 A 
ATOM     27  C   UNL     1      -6.861  12.573  22.362  0.00  0.00    +0.000 A 
ATOM     28  C   UNL     1      -6.111  12.409  21.151  0.00  0.00    +0.000 A 
ATOM     29  C   UNL     1      -6.687  11.873  19.882  0.00  0.00    +0.000 C 
ENDBRANCH  23  24
ENDBRANCH  21  23
ENDBRANCH   5  19
TORSDOF 5
ENDMDL
MODEL 6
REMARK VINA RESULT:      -7.1      7.132     10.110
REMARK  Name = 
REMARK  7 active torsions:
REMARK  status: ('A' for Active; 'I' for Inactive)
REMARK    1  A    between atoms: C_1  and  C_2
REMARK    2  A    between atoms: C_5  and  N_6
REMARK    3  A    between atoms: C_7  and  C_9
REMARK    4  A    between atoms: C_13  and  C_14
REMARK    5  A    between atoms: N_16  and  C_17
REMARK    6  A    between atoms: C_17  and  C_18
REMARK    7  A    between atoms: C_22  and  C_23
REMARK                            x       y       z     vdW  Elec       q    Type
REMARK                         _______ _______ _______ _____ _____    ______ ____
ROOT
ATOM      1  C   UNL     1       7.803   7.225  17.753  0.00  0.00    +0.000 C 
ATOM      2  C   UNL     1       7.353   6.992  16.315  0.00  0.00    +0.000 C 
ATOM      3  N   UNL     1       7.251   5.558  16.032  0.00  0.00    +0.000 NA
ATOM      4  C   UNL     1       6.305   4.906  16.949  0.00  0.00    +0.000 C 
ATOM      5  C   UNL     1       6.676   5.074  18.435  0.00  0.00    +0.000 C 
ATOM      6  C   UNL     1       6.872   6.560  18.771  0.00  0.00    +0.000 C 
ATOM      7  H   UNL     1       8.169   5.122  16.129  0.00  0.00    +0.000 HD
ENDROOT
BRANCH   1   9
ATOM      8  N   UNL     1       9.029   8.989  18.993  0.00  0.00    +0.000 N 
ATOM      9  C   UNL     1       8.047   8.692  18.064  0.00  0.00    +0.000 C 
ATOM     10  O   UNL     1       7.373   9.522  17.446  0.00  0.00    +0.000 OA
ATOM     11  H   UNL     1       9.471   8.223  19.489  0.00  0.00    +0.000 HD
BRANCH   8  16
ATOM     12  C   UNL     1      10.731  14.200  20.575  0.00  0.00    +0.000 C 
ATOM     13  C   UNL     1      10.294  12.832  20.138  0.00  0.00    +0.000 A 
ATOM     14  C   UNL     1      10.575  12.400  18.852  0.00  0.00    +0.000 A 
ATOM     15  C   UNL     1      10.157  11.127  18.459  0.00  0.00    +0.000 A 
ATOM     16  C   UNL     1       9.468  10.300  19.334  0.00  0.00    +0.000 A 
ATOM     17  C   UNL     1       9.233  10.820  20.607  0.00  0.00    +0.000 A 
ATOM     18  N   UNL     1       9.627  12.056  21.026  0.00  0.00    +0.000 NA
ENDBRANCH   8  16
ENDBRANCH   1   9
BRANCH   5  19
ATOM     19  C   UNL     1       5.590   4.446  19.304  0.00  0.00    +0.000 C 
ATOM     20  O   UNL     1       4.880   5.110  20.056  0.00  0.00    +0.000 OA
ATOM     21  N   UNL     1       5.442   3.083  19.189  0.00  0.00    +0.000 N 
ATOM     22  H   UNL     1       5.955   2.555  18.496  0.00  0.00    +0.000 HD
BRANCH  21  23
ATOM     23  C   UNL     1       4.382   2.422  19.924  0.00  0.00    +0.000 C 
BRANCH  23  24
ATOM     24  C   UNL     1       3.050   2.840  19.384  0.00  0.00    +0.000 A 
ATOM     25  S   UNL     1       2.884   3.145  17.703  0.00  0.00    +0.000 S 
ATOM     26  C   UNL     1       1.239   3.558  17.873  0.00  0.00    +0.000 A 
ATOM     27  C   UNL     1       0.819   3.470  19.180  0.00  0.00    +0.000 A 
ATOM     28  C   UNL     1       1.864   3.058  20.071  0.00  0.00    +0.000 A 
ATOM     29  C   UNL     1       1.685   2.901  21.545  0.00  0.00    +0.000 C 
ENDBRANCH  23  24
ENDBRANCH  21  23
ENDBRANCH   5  19
TORSDOF 5
ENDMDL
MODEL 7
REMARK VINA RESULT:      -7.1      2.183      2.719
REMARK  Name = 
REMARK  7 active torsions:
REMARK  status: ('A' for Active; 'I' for Inactive)
REMARK    1  A    between atoms: C_1  and  C_2
REMARK    2  A    between atoms: C_5  and  N_6
REMARK    3  A    between atoms: C_7  and  C_9
REMARK    4  A    between atoms: C_13  and  C_14
REMARK    5  A    between atoms: N_16  and  C_17
REMARK    6  A    between atoms: C_17  and  C_18
REMARK    7  A    between atoms: C_22  and  C_23
REMARK                            x       y       z     vdW  Elec       q    Type
REMARK                         _______ _______ _______ _____ _____    ______ ____
ROOT
ATOM      1  C   UNL     1       0.702   9.967  21.169  0.00  0.00    +0.000 C 
ATOM      2  C   UNL     1       0.126   9.262  22.393  0.00  0.00    +0.000 C 
ATOM      3  N   UNL     1      -0.252  10.237  23.419  0.00  0.00    +0.000 NA
ATOM      4  C   UNL     1      -1.242  11.192  22.900  0.00  0.00    +0.000 C 
ATOM      5  C   UNL     1      -0.753  11.969  21.662  0.00  0.00    +0.000 C 
ATOM      6  C   UNL     1      -0.269  10.994  20.578  0.00  0.00    +0.000 C 
ATOM      7  H   UNL     1       0.575  10.746  23.733  0.00  0.00    +0.000 HD
ENDROOT
BRANCH   1   9
ATOM      8  N   UNL     1       1.851   7.851  20.581  0.00  0.00    +0.000 N 
ATOM      9  C   UNL     1       1.228   8.999  20.124  0.00  0.00    +0.000 C 
ATOM     10  O   UNL     1       1.037   9.286  18.939  0.00  0.00    +0.000 OA
ATOM     11  H   UNL     1       2.014   7.752  21.577  0.00  0.00    +0.000 HD
BRANCH   8  16
ATOM     12  C   UNL     1       3.588   3.432  17.416  0.00  0.00    +0.000 C 
ATOM     13  C   UNL     1       3.139   4.609  18.232  0.00  0.00    +0.000 A 
ATOM     14  C   UNL     1       3.375   5.894  17.771  0.00  0.00    +0.000 A 
ATOM     15  C   UNL     1       2.956   6.979  18.544  0.00  0.00    +0.000 A 
ATOM     16  C   UNL     1       2.313   6.784  19.758  0.00  0.00    +0.000 A 
ATOM     17  C   UNL     1       2.117   5.456  20.137  0.00  0.00    +0.000 A 
ATOM     18  N   UNL     1       2.511   4.373  19.409  0.00  0.00    +0.000 NA
ENDBRANCH   8  16
ENDBRANCH   1   9
BRANCH   5  19
ATOM     19  C   UNL     1      -1.878  12.861  21.145  0.00  0.00    +0.000 C 
ATOM     20  O   UNL     1      -1.688  13.751  20.318  0.00  0.00    +0.000 OA
ATOM     21  N   UNL     1      -3.130  12.605  21.653  0.00  0.00    +0.000 N 
ATOM     22  H   UNL     1      -3.302  11.809  22.253  0.00  0.00    +0.000 HD
BRANCH  21  23
ATOM     23  C   UNL     1      -4.263  13.359  21.157  0.00  0.00    +0.000 C 
BRANCH  23  24
ATOM     24  C   UNL     1      -5.178  12.457  20.388  0.00  0.00    +0.000 A 
ATOM     25  S   UNL     1      -4.702  11.907  18.834  0.00  0.00    +0.000 S 
ATOM     26  C   UNL     1      -6.154  11.038  18.624  0.00  0.00    +0.000 A 
ATOM     27  C   UNL     1      -6.988  11.161  19.710  0.00  0.00    +0.000 A 
ATOM     28  C   UNL     1      -6.436  11.989  20.742  0.00  0.00    +0.000 A 
ATOM     29  C   UNL     1      -7.141  12.306  22.020  0.00  0.00    +0.000 C 
ENDBRANCH  23  24
ENDBRANCH  21  23
ENDBRANCH   5  19
TORSDOF 5
ENDMDL
MODEL 8
REMARK VINA RESULT:      -7.1      3.039      3.794
REMARK  Name = 
REMARK  7 active torsions:
REMARK  status: ('A' for Active; 'I' for Inactive)
REMARK    1  A    between atoms: C_1  and  C_2
REMARK    2  A    between atoms: C_5  and  N_6
REMARK    3  A    between atoms: C_7  and  C_9
REMARK    4  A    between atoms: C_13  and  C_14
REMARK    5  A    between atoms: N_16  and  C_17
REMARK    6  A    between atoms: C_17  and  C_18
REMARK    7  A    between atoms: C_22  and  C_23
REMARK                            x       y       z     vdW  Elec       q    Type
REMARK                         _______ _______ _______ _____ _____    ______ ____
ROOT
ATOM      1  C   UNL     1       1.231   9.210  21.217  0.00  0.00    +0.000 C 
ATOM      2  C   UNL     1       0.317   8.854  22.384  0.00  0.00    +0.000 C 
ATOM      3  N   UNL     1       0.059  10.033  23.215  0.00  0.00    +0.000 NA
ATOM      4  C   UNL     1      -0.559  11.109  22.426  0.00  0.00    +0.000 C 
ATOM      5  C   UNL     1       0.293  11.552  21.221  0.00  0.00    +0.000 C 
ATOM      6  C   UNL     1       0.660  10.339  20.353  0.00  0.00    +0.000 C 
ATOM      7  H   UNL     1       0.935  10.370  23.617  0.00  0.00    +0.000 HD
ENDROOT
BRANCH   1   9
ATOM      8  N   UNL     1       1.764   6.794  21.061  0.00  0.00    +0.000 N 
ATOM      9  C   UNL     1       1.633   7.999  20.393  0.00  0.00    +0.000 C 
ATOM     10  O   UNL     1       1.788   8.164  19.180  0.00  0.00    +0.000 OA
ATOM     11  H   UNL     1       1.681   6.790  22.071  0.00  0.00    +0.000 HD
BRANCH   8  16
ATOM     12  C   UNL     1       3.052   1.823  18.573  0.00  0.00    +0.000 C 
ATOM     13  C   UNL     1       2.692   3.122  19.234  0.00  0.00    +0.000 A 
ATOM     14  C   UNL     1       1.432   3.286  19.785  0.00  0.00    +0.000 A 
ATOM     15  C   UNL     1       1.110   4.501  20.391  0.00  0.00    +0.000 A 
ATOM     16  C   UNL     1       2.031   5.538  20.445  0.00  0.00    +0.000 A 
ATOM     17  C   UNL     1       3.274   5.279  19.866  0.00  0.00    +0.000 A 
ATOM     18  N   UNL     1       3.624   4.105  19.267  0.00  0.00    +0.000 NA
ENDBRANCH   8  16
ENDBRANCH   1   9
BRANCH   5  19
ATOM     19  C   UNL     1      -0.470  12.601  20.418  0.00  0.00    +0.000 C 
ATOM     20  O   UNL     1      -1.590  12.391  19.954  0.00  0.00    +0.000 OA
ATOM     21  N   UNL     1       0.165  13.810  20.249  0.00  0.00    +0.000 N 
ATOM     22  H   UNL     1       1.038  14.015  20.718  0.00  0.00    +0.000 HD
BRANCH  21  23
ATOM     23  C   UNL     1      -0.526  14.882  19.564  0.00  0.00    +0.000 C 
BRANCH  23  24
ATOM     24  C   UNL     1       0.465  15.779  18.890  0.00  0.00    +0.000 A 
ATOM     25  S   UNL     1       2.118  15.320  18.849  0.00  0.00    +0.000 S 
ATOM     26  C   UNL     1       2.560  16.740  18.014  0.00  0.00    +0.000 A 
ATOM     27  C   UNL     1       1.477  17.552  17.771  0.00  0.00    +0.000 A 
ATOM     28  C   UNL     1       0.252  17.008  18.280  0.00  0.00    +0.000 A 
ATOM     29  C   UNL     1      -1.071  17.692  18.170  0.00  0.00    +0.000 C 
ENDBRANCH  23  24
ENDBRANCH  21  23
ENDBRANCH   5  19
TORSDOF 5
ENDMDL
MODEL 9
REMARK VINA RESULT:      -7.1      2.049      2.620
REMARK  Name = 
REMARK  7 active torsions:
REMARK  status: ('A' for Active; 'I' for Inactive)
REMARK    1  A    between atoms: C_1  and  C_2
REMARK    2  A    between atoms: C_5  and  N_6
REMARK    3  A    between atoms: C_7  and  C_9
REMARK    4  A    between atoms: C_13  and  C_14
REMARK    5  A    between atoms: N_16  and  C_17
REMARK    6  A    between atoms: C_17  and  C_18
REMARK    7  A    between atoms: C_22  and  C_23
REMARK                            x       y       z     vdW  Elec       q    Type
REMARK                         _______ _______ _______ _____ _____    ______ ____
ROOT
ATOM      1  C   UNL     1       0.697   9.951  21.238  0.00  0.00    +0.000 C 
ATOM      2  C   UNL     1       0.098   9.212  22.429  0.00  0.00    +0.000 C 
ATOM      3  N   UNL     1      -0.252  10.152  23.497  0.00  0.00    +0.000 NA
ATOM      4  C   UNL     1      -1.211  11.159  23.019  0.00  0.00    +0.000 C 
ATOM      5  C   UNL     1      -0.696  11.974  21.816  0.00  0.00    +0.000 C 
ATOM      6  C   UNL     1      -0.241  11.032  20.691  0.00  0.00    +0.000 C 
ATOM      7  H   UNL     1       0.590  10.620  23.833  0.00  0.00    +0.000 HD
ENDROOT
BRANCH   1   9
ATOM      8  N   UNL     1       1.878   7.880  20.557  0.00  0.00    +0.000 N 
ATOM      9  C   UNL     1       1.194   9.013  20.151  0.00  0.00    +0.000 C 
ATOM     10  O   UNL     1       0.930   9.309  18.982  0.00  0.00    +0.000 OA
ATOM     11  H   UNL     1       2.097   7.774  21.540  0.00  0.00    +0.000 HD
BRANCH   8  16
ATOM     12  C   UNL     1       3.553   3.563  17.223  0.00  0.00    +0.000 C 
ATOM     13  C   UNL     1       3.121   4.714  18.084  0.00  0.00    +0.000 A 
ATOM     14  C   UNL     1       3.414   6.011  17.694  0.00  0.00    +0.000 A 
ATOM     15  C   UNL     1       3.010   7.070  18.509  0.00  0.00    +0.000 A 
ATOM     16  C   UNL     1       2.326   6.839  19.694  0.00  0.00    +0.000 A 
ATOM     17  C   UNL     1       2.074   5.502  20.001  0.00  0.00    +0.000 A 
ATOM     18  N   UNL     1       2.451   4.443  19.230  0.00  0.00    +0.000 NA
ENDBRANCH   8  16
ENDBRANCH   1   9
BRANCH   5  19
ATOM     19  C   UNL     1      -1.792  12.923  21.339  0.00  0.00    +0.000 C 
ATOM     20  O   UNL     1      -1.695  14.144  21.437  0.00  0.00    +0.000 OA
ATOM     21  N   UNL     1      -2.898  12.330  20.778  0.00  0.00    +0.000 N 
ATOM     22  H   UNL     1      -2.930  11.333  20.605  0.00  0.00    +0.000 HD
BRANCH  21  23
ATOM     23  C   UNL     1      -3.948  13.165  20.232  0.00  0.00    +0.000 C 
BRANCH  23  24
ATOM     24  C   UNL     1      -5.112  12.318  19.822  0.00  0.00    +0.000 A 
ATOM     25  S   UNL     1      -6.444  12.148  20.891  0.00  0.00    +0.000 S 
ATOM     26  C   UNL     1      -7.261  11.109  19.814  0.00  0.00    +0.000 A 
ATOM     27  C   UNL     1      -6.540  10.891  18.663  0.00  0.00    +0.000 A 
ATOM     28  C   UNL     1      -5.285  11.584  18.656  0.00  0.00    +0.000 A 
ATOM     29  C   UNL     1      -4.298  11.506  17.538  0.00  0.00    +0.000 C 
ENDBRANCH  23  24
ENDBRANCH  21  23
ENDBRANCH   5  19
TORSDOF 5
ENDMDL
