MODEL 1
REMARK VINA RESULT:      -7.4      0.000      0.000
REMARK  Name = 
REMARK  10 active torsions:
REMARK  status: ('A' for Active; 'I' for Inactive)
REMARK    1  A    between atoms: C_1  and  C_2
REMARK    2  A    between atoms: C_4  and  C_5
REMARK    3  A    between atoms: N_7  and  C_8
REMARK    4  A    between atoms: C_8  and  C_9
REMARK    5  A    between atoms: C_9  and  O_10
REMARK    6  A    between atoms: N_14  and  S_15
REMARK    7  A    between atoms: S_15  and  N_18
REMARK    8  A    between atoms: N_18  and  C_19
REMARK    9  A    between atoms: N_18  and  C_20
REMARK   10  A    between atoms: C_23  and  C_24
REMARK                            x       y       z     vdW  Elec       q    Type
REMARK                         _______ _______ _______ _____ _____    ______ ____
ROOT
ATOM      1  C   UNL     1       6.773   5.707  16.922  0.00  0.00    +0.000 C 
ATOM      2  C   UNL     1       7.089   5.794  18.420  0.00  0.00    +0.000 C 
ATOM      3  C   UNL     1       6.174   4.982  19.331  0.00  0.00    +0.000 C 
ATOM      4  C   UNL     1       4.745   5.515  19.405  0.00  0.00    +0.000 C 
ATOM      5  N   UNL     1       3.837   5.017  18.351  0.00  0.00    +0.000 NA
ATOM      6  C   UNL     1       4.195   5.254  16.927  0.00  0.00    +0.000 C 
ATOM      7  C   UNL     1       5.339   6.214  16.631  0.00  0.00    +0.000 C 
ENDROOT
BRANCH   5   8
ATOM      8  S   UNL     1       3.135   3.485  18.576  0.00  0.00    +0.000 S 
ATOM      9  O   UNL     1       1.711   3.612  18.359  0.00  0.00    +0.000 OA
ATOM     10  O   UNL     1       3.906   2.534  17.810  0.00  0.00    +0.000 OA
BRANCH   8  11
ATOM     11  N   UNL     1       3.385   3.163  20.221  0.00  0.00    +0.000 NA
ATOM     12  C   UNL     1       2.164   3.080  21.050  0.00  0.00    +0.000 C 
ATOM     13  C   UNL     1       4.296   2.011  20.422  0.00  0.00    +0.000 C 
ENDBRANCH   8  11
ENDBRANCH   5   8
BRANCH   1  14
ATOM     14  O   UNL     1       7.665   6.629  16.248  0.00  0.00    +0.000 OA
ATOM     15  H   UNL     1       7.644   7.476  16.730  0.00  0.00    +0.000 HD
ENDBRANCH   1  14
BRANCH   1  16
ATOM     16  C   UNL     1       7.048   4.300  16.312  0.00  0.00    +0.000 C 
BRANCH  16  19
ATOM     17  C   UNL     1       6.639   4.361  13.843  0.00  0.00    +0.000 C 
ATOM     18  O   UNL     1       7.541   5.167  13.634  0.00  0.00    +0.000 OA
ATOM     19  N   UNL     1       6.277   3.973  15.117  0.00  0.00    +0.000 N 
ATOM     20  H   UNL     1       5.428   3.439  15.252  0.00  0.00    +0.000 HD
BRANCH  17  24
ATOM     21  C   UNL     1       3.044   2.948  10.463  0.00  0.00    +0.000 C 
ATOM     22  C   UNL     1       4.234   3.168  11.307  0.00  0.00    +0.000 A 
ATOM     23  C   UNL     1       4.470   3.875  12.465  0.00  0.00    +0.000 A 
ATOM     24  C   UNL     1       5.869   3.753  12.760  0.00  0.00    +0.000 A 
ATOM     25  C   UNL     1       6.344   2.850  11.814  0.00  0.00    +0.000 A 
ATOM     26  C   UNL     1       7.624   2.142  11.589  0.00  0.00    +0.000 C 
ATOM     27  O   UNL     1       5.369   2.542  10.912  0.00  0.00    +0.000 OA
ENDBRANCH  17  24
ENDBRANCH  16  19
ENDBRANCH   1  16
TORSDOF 6
ENDMDL
MODEL 2
REMARK VINA RESULT:      -7.3      1.002      1.236
REMARK  Name = 
REMARK  10 active torsions:
REMARK  status: ('A' for Active; 'I' for Inactive)
REMARK    1  A    between atoms: C_1  and  C_2
REMARK    2  A    between atoms: C_4  and  C_5
REMARK    3  A    between atoms: N_7  and  C_8
REMARK    4  A    between atoms: C_8  and  C_9
REMARK    5  A    between atoms: C_9  and  O_10
REMARK    6  A    between atoms: N_14  and  S_15
REMARK    7  A    between atoms: S_15  and  N_18
REMARK    8  A    between atoms: N_18  and  C_19
REMARK    9  A    between atoms: N_18  and  C_20
REMARK   10  A    between atoms: C_23  and  C_24
REMARK                            x       y       z     vdW  Elec       q    Type
REMARK                         _______ _______ _______ _____ _____    ______ ____
ROOT
ATOM      1  C   UNL     1       6.584   5.496  16.861  0.00  0.00    +0.000 C 
ATOM      2  C   UNL     1       7.075   5.604  18.311  0.00  0.00    +0.000 C 
ATOM      3  C   UNL     1       6.292   4.783  19.331  0.00  0.00    +0.000 C 
ATOM      4  C   UNL     1       4.871   5.286  19.571  0.00  0.00    +0.000 C 
ATOM      5  N   UNL     1       3.855   4.759  18.636  0.00  0.00    +0.000 NA
ATOM      6  C   UNL     1       4.035   4.989  17.177  0.00  0.00    +0.000 C 
ATOM      7  C   UNL     1       5.115   5.970  16.740  0.00  0.00    +0.000 C 
ENDROOT
BRANCH   5   8
ATOM      8  S   UNL     1       3.218   3.216  18.954  0.00  0.00    +0.000 S 
ATOM      9  O   UNL     1       3.385   2.410  17.765  0.00  0.00    +0.000 OA
ATOM     10  O   UNL     1       3.761   2.770  20.217  0.00  0.00    +0.000 OA
BRANCH   8  11
ATOM     11  N   UNL     1       1.560   3.498  19.165  0.00  0.00    +0.000 NA
ATOM     12  C   UNL     1       0.665   2.398  18.750  0.00  0.00    +0.000 C 
ATOM     13  C   UNL     1       1.258   4.003  20.526  0.00  0.00    +0.000 C 
ENDBRANCH   8  11
ENDBRANCH   5   8
BRANCH   1  14
ATOM     14  O   UNL     1       7.370   6.429  16.079  0.00  0.00    +0.000 OA
ATOM     15  H   UNL     1       8.281   6.419  16.426  0.00  0.00    +0.000 HD
ENDBRANCH   1  14
BRANCH   1  16
ATOM     16  C   UNL     1       6.815   4.088  16.234  0.00  0.00    +0.000 C 
BRANCH  16  19
ATOM     17  C   UNL     1       6.547   4.114  13.745  0.00  0.00    +0.000 C 
ATOM     18  O   UNL     1       7.555   4.792  13.564  0.00  0.00    +0.000 OA
ATOM     19  N   UNL     1       6.072   3.819  15.007  0.00  0.00    +0.000 N 
ATOM     20  H   UNL     1       5.156   3.402  15.109  0.00  0.00    +0.000 HD
BRANCH  17  24
ATOM     21  C   UNL     1       2.936   2.965  10.282  0.00  0.00    +0.000 C 
ATOM     22  C   UNL     1       4.122   3.104  11.148  0.00  0.00    +0.000 A 
ATOM     23  C   UNL     1       4.377   3.774  12.324  0.00  0.00    +0.000 A 
ATOM     24  C   UNL     1       5.763   3.570  12.638  0.00  0.00    +0.000 A 
ATOM     25  C   UNL     1       6.204   2.662  11.681  0.00  0.00    +0.000 A 
ATOM     26  C   UNL     1       7.448   1.889  11.461  0.00  0.00    +0.000 C 
ATOM     27  O   UNL     1       5.229   2.425  10.758  0.00  0.00    +0.000 OA
ENDBRANCH  17  24
ENDBRANCH  16  19
ENDBRANCH   1  16
TORSDOF 6
ENDMDL
MODEL 3
REMARK VINA RESULT:      -7.3      3.851      8.107
REMARK  Name = 
REMARK  10 active torsions:
REMARK  status: ('A' for Active; 'I' for Inactive)
REMARK    1  A    between atoms: C_1  and  C_2
REMARK    2  A    between atoms: C_4  and  C_5
REMARK    3  A    between atoms: N_7  and  C_8
REMARK    4  A    between atoms: C_8  and  C_9
REMARK    5  A    between atoms: C_9  and  O_10
REMARK    6  A    between atoms: N_14  and  S_15
REMARK    7  A    between atoms: S_15  and  N_18
REMARK    8  A    between atoms: N_18  and  C_19
REMARK    9  A    between atoms: N_18  and  C_20
REMARK   10  A    between atoms: C_23  and  C_24
REMARK                            x       y       z     vdW  Elec       q    Type
REMARK                         _______ _______ _______ _____ _____    ______ ____
ROOT
ATOM      1  C   UNL     1       3.659   4.381  18.775  0.00  0.00    +0.000 C 
ATOM      2  C   UNL     1       4.871   4.803  19.616  0.00  0.00    +0.000 C 
ATOM      3  C   UNL     1       6.021   5.435  18.837  0.00  0.00    +0.000 C 
ATOM      4  C   UNL     1       6.754   4.462  17.917  0.00  0.00    +0.000 C 
ATOM      5  N   UNL     1       6.164   4.310  16.571  0.00  0.00    +0.000 NA
ATOM      6  C   UNL     1       4.751   3.860  16.454  0.00  0.00    +0.000 C 
ATOM      7  C   UNL     1       4.066   3.335  17.709  0.00  0.00    +0.000 C 
ENDROOT
BRANCH   5   8
ATOM      8  S   UNL     1       6.547   5.487  15.406  0.00  0.00    +0.000 S 
ATOM      9  O   UNL     1       5.322   6.160  15.033  0.00  0.00    +0.000 OA
ATOM     10  O   UNL     1       7.671   6.246  15.905  0.00  0.00    +0.000 OA
BRANCH   8  11
ATOM     11  N   UNL     1       7.073   4.582  14.074  0.00  0.00    +0.000 NA
ATOM     12  C   UNL     1       6.026   3.808  13.373  0.00  0.00    +0.000 C 
ATOM     13  C   UNL     1       7.902   5.393  13.152  0.00  0.00    +0.000 C 
ENDBRANCH   8  11
ENDBRANCH   5   8
BRANCH   1  14
ATOM     14  O   UNL     1       2.741   3.703  19.669  0.00  0.00    +0.000 OA
ATOM     15  H   UNL     1       2.940   2.749  19.637  0.00  0.00    +0.000 HD
ENDBRANCH   1  14
BRANCH   1  16
ATOM     16  C   UNL     1       2.877   5.586  18.169  0.00  0.00    +0.000 C 
BRANCH  16  19
ATOM     17  C   UNL     1       2.199   7.862  18.962  0.00  0.00    +0.000 C 
ATOM     18  O   UNL     1       2.795   8.440  18.058  0.00  0.00    +0.000 OA
ATOM     19  N   UNL     1       2.276   6.494  19.140  0.00  0.00    +0.000 N 
ATOM     20  H   UNL     1       1.908   6.081  19.987  0.00  0.00    +0.000 HD
BRANCH  17  24
ATOM     21  C   UNL     1      -0.111   9.677  23.171  0.00  0.00    +0.000 C 
ATOM     22  C   UNL     1       0.383   9.322  21.827  0.00  0.00    +0.000 A 
ATOM     23  C   UNL     1       1.234   8.354  21.342  0.00  0.00    +0.000 A 
ATOM     24  C   UNL     1       1.368   8.573  19.930  0.00  0.00    +0.000 A 
ATOM     25  C   UNL     1       0.460   9.590  19.651  0.00  0.00    +0.000 A 
ATOM     26  C   UNL     1      -0.054  10.228  18.418  0.00  0.00    +0.000 C 
ATOM     27  O   UNL     1      -0.091  10.072  20.801  0.00  0.00    +0.000 OA
ENDBRANCH  17  24
ENDBRANCH  16  19
ENDBRANCH   1  16
TORSDOF 6
ENDMDL
MODEL 4
REMARK VINA RESULT:      -7.0      4.220      8.237
REMARK  Name = 
REMARK  10 active torsions:
REMARK  status: ('A' for Active; 'I' for Inactive)
REMARK    1  A    between atoms: C_1  and  C_2
REMARK    2  A    between atoms: C_4  and  C_5
REMARK    3  A    between atoms: N_7  and  C_8
REMARK    4  A    between atoms: C_8  and  C_9
REMARK    5  A    between atoms: C_9  and  O_10
REMARK    6  A    between atoms: N_14  and  S_15
REMARK    7  A    between atoms: S_15  and  N_18
REMARK    8  A    between atoms: N_18  and  C_19
REMARK    9  A    between atoms: N_18  and  C_20
REMARK   10  A    between atoms: C_23  and  C_24
REMARK                            x       y       z     vdW  Elec       q    Type
REMARK                         _______ _______ _______ _____ _____    ______ ____
ROOT
ATOM      1  C   UNL     1       2.198   4.392  19.763  0.00  0.00    +0.000 C 
ATOM      2  C   UNL     1       2.913   3.069  20.065  0.00  0.00    +0.000 C 
ATOM      3  C   UNL     1       4.143   2.780  19.210  0.00  0.00    +0.000 C 
ATOM      4  C   UNL     1       3.826   2.497  17.744  0.00  0.00    +0.000 C 
ATOM      5  N   UNL     1       3.733   3.694  16.883  0.00  0.00    +0.000 NA
ATOM      6  C   UNL     1       2.744   4.751  17.228  0.00  0.00    +0.000 C 
ATOM      7  C   UNL     1       1.706   4.431  18.296  0.00  0.00    +0.000 C 
ENDROOT
BRANCH   5   8
ATOM      8  S   UNL     1       5.185   4.360  16.301  0.00  0.00    +0.000 S 
ATOM      9  O   UNL     1       6.068   3.269  15.952  0.00  0.00    +0.000 OA
ATOM     10  O   UNL     1       4.843   5.362  15.318  0.00  0.00    +0.000 OA
BRANCH   8  11
ATOM     11  N   UNL     1       5.839   5.149  17.651  0.00  0.00    +0.000 NA
ATOM     12  C   UNL     1       7.180   4.691  18.073  0.00  0.00    +0.000 C 
ATOM     13  C   UNL     1       5.748   6.622  17.523  0.00  0.00    +0.000 C 
ENDBRANCH   8  11
ENDBRANCH   5   8
BRANCH   1  14
ATOM     14  O   UNL     1       1.005   4.424  20.585  0.00  0.00    +0.000 OA
ATOM     15  H   UNL     1       1.205   4.939  21.388  0.00  0.00    +0.000 HD
ENDBRANCH   1  14
BRANCH   1  16
ATOM     16  C   UNL     1       3.034   5.649  20.150  0.00  0.00    +0.000 C 
BRANCH  16  19
ATOM     17  C   UNL     1       1.929   7.881  19.897  0.00  0.00    +0.000 C 
ATOM     18  O   UNL     1       2.406   8.079  18.783  0.00  0.00    +0.000 OA
ATOM     19  N   UNL     1       2.266   6.780  20.660  0.00  0.00    +0.000 N 
ATOM     20  H   UNL     1       1.981   6.741  21.630  0.00  0.00    +0.000 HD
BRANCH  17  24
ATOM     21  C   UNL     1      -1.028  10.601  23.092  0.00  0.00    +0.000 C 
ATOM     22  C   UNL     1      -0.309   9.957  21.976  0.00  0.00    +0.000 A 
ATOM     23  C   UNL     1       0.558   8.891  21.882  0.00  0.00    +0.000 A 
ATOM     24  C   UNL     1       0.973   8.799  20.511  0.00  0.00    +0.000 A 
ATOM     25  C   UNL     1       0.198   9.749  19.852  0.00  0.00    +0.000 A 
ATOM     26  C   UNL     1      -0.031  10.117  18.437  0.00  0.00    +0.000 C 
ATOM     27  O   UNL     1      -0.533  10.477  20.744  0.00  0.00    +0.000 OA
ENDBRANCH  17  24
ENDBRANCH  16  19
ENDBRANCH   1  16
TORSDOF 6
ENDMDL
MODEL 5
REMARK VINA RESULT:      -6.9      4.185      7.903
REMARK  Name = 
REMARK  10 active torsions:
REMARK  status: ('A' for Active; 'I' for Inactive)
REMARK    1  A    between atoms: C_1  and  C_2
REMARK    2  A    between atoms: C_4  and  C_5
REMARK    3  A    between atoms: N_7  and  C_8
REMARK    4  A    between atoms: C_8  and  C_9
REMARK    5  A    between atoms: C_9  and  O_10
REMARK    6  A    between atoms: N_14  and  S_15
REMARK    7  A    between atoms: S_15  and  N_18
REMARK    8  A    between atoms: N_18  and  C_19
REMARK    9  A    between atoms: N_18  and  C_20
REMARK   10  A    between atoms: C_23  and  C_24
REMARK                            x       y       z     vdW  Elec       q    Type
REMARK                         _______ _______ _______ _____ _____    ______ ____
ROOT
ATOM      1  C   UNL     1       1.721   4.193  19.957  0.00  0.00    +0.000 C 
ATOM      2  C   UNL     1       2.712   3.059  20.252  0.00  0.00    +0.000 C 
ATOM      3  C   UNL     1       4.111   3.245  19.674  0.00  0.00    +0.000 C 
ATOM      4  C   UNL     1       4.167   3.158  18.151  0.00  0.00    +0.000 C 
ATOM      5  N   UNL     1       3.902   4.427  17.442  0.00  0.00    +0.000 NA
ATOM      6  C   UNL     1       2.608   5.122  17.676  0.00  0.00    +0.000 C 
ATOM      7  C   UNL     1       1.522   4.368  18.432  0.00  0.00    +0.000 C 
ENDROOT
BRANCH   5   8
ATOM      8  S   UNL     1       5.188   5.528  17.292  0.00  0.00    +0.000 S 
ATOM      9  O   UNL     1       4.875   6.434  16.209  0.00  0.00    +0.000 OA
ATOM     10  O   UNL     1       5.480   6.042  18.610  0.00  0.00    +0.000 OA
BRANCH   8  11
ATOM     11  N   UNL     1       6.493   4.562  16.803  0.00  0.00    +0.000 NA
ATOM     12  C   UNL     1       6.893   4.696  15.387  0.00  0.00    +0.000 C 
ATOM     13  C   UNL     1       7.638   4.672  17.738  0.00  0.00    +0.000 C 
ENDBRANCH   8  11
ENDBRANCH   5   8
BRANCH   1  14
ATOM     14  O   UNL     1       0.436   3.777  20.482  0.00  0.00    +0.000 OA
ATOM     15  H   UNL     1       0.409   2.803  20.476  0.00  0.00    +0.000 HD
ENDBRANCH   1  14
BRANCH   1  16
ATOM     16  C   UNL     1       2.080   5.530  20.674  0.00  0.00    +0.000 C 
BRANCH  16  19
ATOM     17  C   UNL     1       1.442   7.948  20.793  0.00  0.00    +0.000 C 
ATOM     18  O   UNL     1       1.938   8.105  21.905  0.00  0.00    +0.000 OA
ATOM     19  N   UNL     1       1.382   6.712  20.179  0.00  0.00    +0.000 N 
ATOM     20  H   UNL     1       0.823   6.598  19.344  0.00  0.00    +0.000 HD
BRANCH  17  24
ATOM     21  C   UNL     1      -1.245  11.994  19.133  0.00  0.00    +0.000 C 
ATOM     22  C   UNL     1      -0.361  10.834  19.360  0.00  0.00    +0.000 A 
ATOM     23  C   UNL     1      -0.247   9.898  20.363  0.00  0.00    +0.000 A 
ATOM     24  C   UNL     1       0.866   9.053  20.032  0.00  0.00    +0.000 A 
ATOM     25  C   UNL     1       1.251   9.472  18.762  0.00  0.00    +0.000 A 
ATOM     26  C   UNL     1       2.205   8.985  17.741  0.00  0.00    +0.000 C 
ATOM     27  O   UNL     1       0.544  10.576  18.384  0.00  0.00    +0.000 OA
ENDBRANCH  17  24
ENDBRANCH  16  19
ENDBRANCH   1  16
TORSDOF 6
ENDMDL
MODEL 6
REMARK VINA RESULT:      -6.8      4.480      8.190
REMARK  Name = 
REMARK  10 active torsions:
REMARK  status: ('A' for Active; 'I' for Inactive)
REMARK    1  A    between atoms: C_1  and  C_2
REMARK    2  A    between atoms: C_4  and  C_5
REMARK    3  A    between atoms: N_7  and  C_8
REMARK    4  A    between atoms: C_8  and  C_9
REMARK    5  A    between atoms: C_9  and  O_10
REMARK    6  A    between atoms: N_14  and  S_15
REMARK    7  A    between atoms: S_15  and  N_18
REMARK    8  A    between atoms: N_18  and  C_19
REMARK    9  A    between atoms: N_18  and  C_20
REMARK   10  A    between atoms: C_23  and  C_24
REMARK                            x       y       z     vdW  Elec       q    Type
REMARK                         _______ _______ _______ _____ _____    ______ ____
ROOT
ATOM      1  C   UNL     1       2.698   5.312  18.473  0.00  0.00    +0.000 C 
ATOM      2  C   UNL     1       3.408   4.829  19.744  0.00  0.00    +0.000 C 
ATOM      3  C   UNL     1       4.932   4.795  19.670  0.00  0.00    +0.000 C 
ATOM      4  C   UNL     1       5.482   3.729  18.726  0.00  0.00    +0.000 C 
ATOM      5  N   UNL     1       5.604   4.148  17.314  0.00  0.00    +0.000 NA
ATOM      6  C   UNL     1       4.387   4.615  16.597  0.00  0.00    +0.000 C 
ATOM      7  C   UNL     1       3.038   4.397  17.270  0.00  0.00    +0.000 C 
ENDROOT
BRANCH   5   8
ATOM      8  S   UNL     1       6.975   5.051  16.877  0.00  0.00    +0.000 S 
ATOM      9  O   UNL     1       8.142   4.223  17.091  0.00  0.00    +0.000 OA
ATOM     10  O   UNL     1       6.722   5.629  15.576  0.00  0.00    +0.000 OA
BRANCH   8  11
ATOM     11  N   UNL     1       7.011   6.308  18.013  0.00  0.00    +0.000 NA
ATOM     12  C   UNL     1       8.066   6.209  19.044  0.00  0.00    +0.000 C 
ATOM     13  C   UNL     1       6.967   7.639  17.362  0.00  0.00    +0.000 C 
ENDBRANCH   8  11
ENDBRANCH   5   8
BRANCH   1  14
ATOM     14  O   UNL     1       1.275   5.159  18.700  0.00  0.00    +0.000 OA
ATOM     15  H   UNL     1       0.862   4.891  17.858  0.00  0.00    +0.000 HD
ENDBRANCH   1  14
BRANCH   1  16
ATOM     16  C   UNL     1       2.937   6.821  18.166  0.00  0.00    +0.000 C 
BRANCH  16  19
ATOM     17  C   UNL     1       1.684   8.959  18.527  0.00  0.00    +0.000 C 
ATOM     18  O   UNL     1       2.004   9.422  17.435  0.00  0.00    +0.000 OA
ATOM     19  N   UNL     1       2.177   7.755  18.991  0.00  0.00    +0.000 N 
ATOM     20  H   UNL     1       2.020   7.493  19.955  0.00  0.00    +0.000 HD
BRANCH  17  24
ATOM     21  C   UNL     1      -0.666  11.178  22.514  0.00  0.00    +0.000 C 
ATOM     22  C   UNL     1      -0.220  10.602  21.231  0.00  0.00    +0.000 A 
ATOM     23  C   UNL     1       0.854   9.829  20.849  0.00  0.00    +0.000 A 
ATOM     24  C   UNL     1       0.764   9.648  19.428  0.00  0.00    +0.000 A 
ATOM     25  C   UNL     1      -0.456  10.222  19.084  0.00  0.00    +0.000 A 
ATOM     26  C   UNL     1      -1.275  10.285  17.853  0.00  0.00    +0.000 C 
ATOM     27  O   UNL     1      -1.018  10.839  20.162  0.00  0.00    +0.000 OA
ENDBRANCH  17  24
ENDBRANCH  16  19
ENDBRANCH   1  16
TORSDOF 6
ENDMDL
MODEL 7
REMARK VINA RESULT:      -6.8      4.197      8.044
REMARK  Name = 
REMARK  10 active torsions:
REMARK  status: ('A' for Active; 'I' for Inactive)
REMARK    1  A    between atoms: C_1  and  C_2
REMARK    2  A    between atoms: C_4  and  C_5
REMARK    3  A    between atoms: N_7  and  C_8
REMARK    4  A    between atoms: C_8  and  C_9
REMARK    5  A    between atoms: C_9  and  O_10
REMARK    6  A    between atoms: N_14  and  S_15
REMARK    7  A    between atoms: S_15  and  N_18
REMARK    8  A    between atoms: N_18  and  C_19
REMARK    9  A    between atoms: N_18  and  C_20
REMARK   10  A    between atoms: C_23  and  C_24
REMARK                            x       y       z     vdW  Elec       q    Type
REMARK                         _______ _______ _______ _____ _____    ______ ____
ROOT
ATOM      1  C   UNL     1       1.998   4.454  19.904  0.00  0.00    +0.000 C 
ATOM      2  C   UNL     1       2.606   3.132  20.392  0.00  0.00    +0.000 C 
ATOM      3  C   UNL     1       3.950   2.762  19.775  0.00  0.00    +0.000 C 
ATOM      4  C   UNL     1       3.874   2.403  18.293  0.00  0.00    +0.000 C 
ATOM      5  N   UNL     1       3.969   3.550  17.367  0.00  0.00    +0.000 NA
ATOM      6  C   UNL     1       2.974   4.650  17.483  0.00  0.00    +0.000 C 
ATOM      7  C   UNL     1       1.761   4.420  18.375  0.00  0.00    +0.000 C 
ENDROOT
BRANCH   5   8
ATOM      8  S   UNL     1       5.520   4.143  17.004  0.00  0.00    +0.000 S 
ATOM      9  O   UNL     1       6.300   4.125  18.222  0.00  0.00    +0.000 OA
ATOM     10  O   UNL     1       5.991   3.446  15.829  0.00  0.00    +0.000 OA
BRANCH   8  11
ATOM     11  N   UNL     1       5.246   5.762  16.583  0.00  0.00    +0.000 NA
ATOM     12  C   UNL     1       5.979   6.764  17.384  0.00  0.00    +0.000 C 
ATOM     13  C   UNL     1       5.384   5.980  15.123  0.00  0.00    +0.000 C 
ENDBRANCH   8  11
ENDBRANCH   5   8
BRANCH   1  14
ATOM     14  O   UNL     1       0.686   4.564  20.509  0.00  0.00    +0.000 OA
ATOM     15  H   UNL     1       0.467   3.703  20.913  0.00  0.00    +0.000 HD
ENDBRANCH   1  14
BRANCH   1  16
ATOM     16  C   UNL     1       2.802   5.709  20.361  0.00  0.00    +0.000 C 
BRANCH  16  19
ATOM     17  C   UNL     1       1.991   7.931  19.541  0.00  0.00    +0.000 C 
ATOM     18  O   UNL     1       2.758   7.945  18.582  0.00  0.00    +0.000 OA
ATOM     19  N   UNL     1       2.023   6.935  20.497  0.00  0.00    +0.000 N 
ATOM     20  H   UNL     1       1.491   7.048  21.350  0.00  0.00    +0.000 HD
BRANCH  17  24
ATOM     21  C   UNL     1      -1.621  11.547  19.066  0.00  0.00    +0.000 C 
ATOM     22  C   UNL     1      -0.598  10.564  19.471  0.00  0.00    +0.000 A 
ATOM     23  C   UNL     1       0.298   9.776  18.784  0.00  0.00    +0.000 A 
ATOM     24  C   UNL     1       0.987   8.970  19.753  0.00  0.00    +0.000 A 
ATOM     25  C   UNL     1       0.538   9.448  20.980  0.00  0.00    +0.000 A 
ATOM     26  C   UNL     1       0.904   9.214  22.395  0.00  0.00    +0.000 C 
ATOM     27  O   UNL     1      -0.452  10.370  20.804  0.00  0.00    +0.000 OA
ENDBRANCH  17  24
ENDBRANCH  16  19
ENDBRANCH   1  16
TORSDOF 6
ENDMDL
MODEL 8
REMARK VINA RESULT:      -6.8      4.113      7.862
REMARK  Name = 
REMARK  10 active torsions:
REMARK  status: ('A' for Active; 'I' for Inactive)
REMARK    1  A    between atoms: C_1  and  C_2
REMARK    2  A    between atoms: C_4  and  C_5
REMARK    3  A    between atoms: N_7  and  C_8
REMARK    4  A    between atoms: C_8  and  C_9
REMARK    5  A    between atoms: C_9  and  O_10
REMARK    6  A    between atoms: N_14  and  S_15
REMARK    7  A    between atoms: S_15  and  N_18
REMARK    8  A    between atoms: N_18  and  C_19
REMARK    9  A    between atoms: N_18  and  C_20
REMARK   10  A    between atoms: C_23  and  C_24
REMARK                            x       y       z     vdW  Elec       q    Type
REMARK                         _______ _______ _______ _____ _____    ______ ____
ROOT
ATOM      1  C   UNL     1       1.670   4.143  20.025  0.00  0.00    +0.000 C 
ATOM      2  C   UNL     1       2.496   2.952  20.528  0.00  0.00    +0.000 C 
ATOM      3  C   UNL     1       3.974   2.974  20.152  0.00  0.00    +0.000 C 
ATOM      4  C   UNL     1       4.237   2.775  18.662  0.00  0.00    +0.000 C 
ATOM      5  N   UNL     1       4.198   4.009  17.851  0.00  0.00    +0.000 NA
ATOM      6  C   UNL     1       2.957   4.829  17.851  0.00  0.00    +0.000 C 
ATOM      7  C   UNL     1       1.707   4.227  18.480  0.00  0.00    +0.000 C 
ENDROOT
BRANCH   5   8
ATOM      8  S   UNL     1       5.593   4.981  17.830  0.00  0.00    +0.000 S 
ATOM      9  O   UNL     1       5.210   6.319  18.220  0.00  0.00    +0.000 OA
ATOM     10  O   UNL     1       6.627   4.278  18.556  0.00  0.00    +0.000 OA
BRANCH   8  11
ATOM     11  N   UNL     1       6.033   5.021  16.193  0.00  0.00    +0.000 NA
ATOM     12  C   UNL     1       5.957   3.729  15.479  0.00  0.00    +0.000 C 
ATOM     13  C   UNL     1       5.353   6.120  15.468  0.00  0.00    +0.000 C 
ENDBRANCH   8  11
ENDBRANCH   5   8
BRANCH   1  14
ATOM     14  O   UNL     1       0.290   3.879  20.377  0.00  0.00    +0.000 OA
ATOM     15  H   UNL     1       0.063   4.432  21.147  0.00  0.00    +0.000 HD
ENDBRANCH   1  14
BRANCH   1  16
ATOM     16  C   UNL     1       2.050   5.491  20.710  0.00  0.00    +0.000 C 
BRANCH  16  19
ATOM     17  C   UNL     1       1.417   7.913  20.773  0.00  0.00    +0.000 C 
ATOM     18  O   UNL     1       1.805   8.065  21.928  0.00  0.00    +0.000 OA
ATOM     19  N   UNL     1       1.411   6.678  20.153  0.00  0.00    +0.000 N 
ATOM     20  H   UNL     1       0.933   6.569  19.268  0.00  0.00    +0.000 HD
BRANCH  17  24
ATOM     21  C   UNL     1      -0.991  12.049  18.918  0.00  0.00    +0.000 C 
ATOM     22  C   UNL     1      -0.182  10.848  19.203  0.00  0.00    +0.000 A 
ATOM     23  C   UNL     1      -0.144   9.942  20.240  0.00  0.00    +0.000 A 
ATOM     24  C   UNL     1       0.924   9.023  19.962  0.00  0.00    +0.000 A 
ATOM     25  C   UNL     1       1.359   9.374  18.688  0.00  0.00    +0.000 A 
ATOM     26  C   UNL     1       2.303   8.797  17.706  0.00  0.00    +0.000 C 
ATOM     27  O   UNL     1       0.726  10.503  18.258  0.00  0.00    +0.000 OA
ENDBRANCH  17  24
ENDBRANCH  16  19
ENDBRANCH   1  16
TORSDOF 6
ENDMDL
MODEL 9
REMARK VINA RESULT:      -6.8      1.171      1.398
REMARK  Name = 
REMARK  10 active torsions:
REMARK  status: ('A' for Active; 'I' for Inactive)
REMARK    1  A    between atoms: C_1  and  C_2
REMARK    2  A    between atoms: C_4  and  C_5
REMARK    3  A    between atoms: N_7  and  C_8
REMARK    4  A    between atoms: C_8  and  C_9
REMARK    5  A    between atoms: C_9  and  O_10
REMARK    6  A    between atoms: N_14  and  S_15
REMARK    7  A    between atoms: S_15  and  N_18
REMARK    8  A    between atoms: N_18  and  C_19
REMARK    9  A    between atoms: N_18  and  C_20
REMARK   10  A    between atoms: C_23  and  C_24
REMARK                            x       y       z     vdW  Elec       q    Type
REMARK                         _______ _______ _______ _____ _____    ______ ____
ROOT
ATOM      1  C   UNL     1       6.523   5.388  16.477  0.00  0.00    +0.000 C 
ATOM      2  C   UNL     1       7.183   5.457  17.860  0.00  0.00    +0.000 C 
ATOM      3  C   UNL     1       6.319   4.984  19.024  0.00  0.00    +0.000 C 
ATOM      4  C   UNL     1       5.137   5.901  19.329  0.00  0.00    +0.000 C 
ATOM      5  N   UNL     1       3.915   5.626  18.546  0.00  0.00    +0.000 NA
ATOM      6  C   UNL     1       3.987   5.680  17.061  0.00  0.00    +0.000 C 
ATOM      7  C   UNL     1       5.246   6.263  16.431  0.00  0.00    +0.000 C 
ENDROOT
BRANCH   5   8
ATOM      8  S   UNL     1       2.903   4.369  19.079  0.00  0.00    +0.000 S 
ATOM      9  O   UNL     1       2.848   4.423  20.523  0.00  0.00    +0.000 OA
ATOM     10  O   UNL     1       1.687   4.426  18.301  0.00  0.00    +0.000 OA
BRANCH   8  11
ATOM     11  N   UNL     1       3.742   2.962  18.642  0.00  0.00    +0.000 NA
ATOM     12  C   UNL     1       4.280   2.163  19.763  0.00  0.00    +0.000 C 
ATOM     13  C   UNL     1       2.976   2.146  17.670  0.00  0.00    +0.000 C 
ENDBRANCH   8  11
ENDBRANCH   5   8
BRANCH   1  14
ATOM     14  O   UNL     1       7.449   5.985  15.536  0.00  0.00    +0.000 OA
ATOM     15  H   UNL     1       8.052   6.566  16.035  0.00  0.00    +0.000 HD
ENDBRANCH   1  14
BRANCH   1  16
ATOM     16  C   UNL     1       6.271   3.930  15.985  0.00  0.00    +0.000 C 
BRANCH  16  19
ATOM     17  C   UNL     1       6.221   3.766  13.487  0.00  0.00    +0.000 C 
ATOM     18  O   UNL     1       7.419   4.005  13.369  0.00  0.00    +0.000 OA
ATOM     19  N   UNL     1       5.576   3.812  14.707  0.00  0.00    +0.000 N 
ATOM     20  H   UNL     1       4.565   3.772  14.737  0.00  0.00    +0.000 HD
BRANCH  17  24
ATOM     21  C   UNL     1       2.701   3.611   9.754  0.00  0.00    +0.000 C 
ATOM     22  C   UNL     1       3.791   3.412  10.728  0.00  0.00    +0.000 A 
ATOM     23  C   UNL     1       4.183   4.067  11.875  0.00  0.00    +0.000 A 
ATOM     24  C   UNL     1       5.377   3.422  12.345  0.00  0.00    +0.000 A 
ATOM     25  C   UNL     1       5.530   2.324  11.505  0.00  0.00    +0.000 A 
ATOM     26  C   UNL     1       6.425   1.145  11.471  0.00  0.00    +0.000 C 
ATOM     27  O   UNL     1       4.605   2.351  10.504  0.00  0.00    +0.000 OA
ENDBRANCH  17  24
ENDBRANCH  16  19
ENDBRANCH   1  16
TORSDOF 6
ENDMDL
