MODEL 1
REMARK VINA RESULT:      -7.2      0.000      0.000
REMARK  Name = 
REMARK  13 active torsions:
REMARK  status: ('A' for Active; 'I' for Inactive)
REMARK    1  A    between atoms: C_1  and  O_2
REMARK    2  A    between atoms: O_2  and  C_3
REMARK    3  A    between atoms: C_3  and  C_5
REMARK    4  A    between atoms: C_5  and  C_6
REMARK    5  A    between atoms: C_9  and  O_10
REMARK    6  A    between atoms: O_10  and  C_11
REMARK    7  A    between atoms: C_11  and  C_13
REMARK    8  A    between atoms: N_16  and  S_17
REMARK    9  A    between atoms: S_17  and  C_20
REMARK   10  A    between atoms: C_23  and  O_24
REMARK   11  A    between atoms: O_24  and  C_25
REMARK   12  A    between atoms: C_26  and  O_27
REMARK   13  A    between atoms: O_27  and  C_28
REMARK                            x       y       z     vdW  Elec       q    Type
REMARK                         _______ _______ _______ _____ _____    ______ ____
ROOT
ATOM      1  C   UNL     1       1.243   5.961  19.552  0.00  0.00    +0.000 C 
ATOM      2  C   UNL     1       1.481   4.899  20.624  0.00  0.00    +0.000 C 
ATOM      3  C   UNL     1       2.802   4.150  20.436  0.00  0.00    +0.000 C 
ATOM      4  N   UNL     1       2.929   3.591  19.054  0.00  0.00    +0.000 NA
ATOM      5  C   UNL     1       2.691   4.608  17.986  0.00  0.00    +0.000 C 
ATOM      6  C   UNL     1       1.342   5.292  18.176  0.00  0.00    +0.000 C 
ENDROOT
BRANCH   4   7
ATOM      7  S   UNL     1       4.435   2.771  18.786  0.00  0.00    +0.000 S 
ATOM      8  O   UNL     1       4.963   2.385  20.081  0.00  0.00    +0.000 OA
ATOM      9  O   UNL     1       4.219   1.784  17.750  0.00  0.00    +0.000 OA
BRANCH   7  10
ATOM     10  C   UNL     1       5.499   4.041  18.159  0.00  0.00    +0.000 A 
ATOM     11  C   UNL     1       6.035   5.004  19.007  0.00  0.00    +0.000 A 
ATOM     12  C   UNL     1       6.796   6.035  18.458  0.00  0.00    +0.000 A 
ATOM     13  C   UNL     1       7.026   6.118  17.072  0.00  0.00    +0.000 A 
ATOM     14  C   UNL     1       6.475   5.144  16.218  0.00  0.00    +0.000 A 
ATOM     15  C   UNL     1       5.705   4.112  16.776  0.00  0.00    +0.000 A 
BRANCH  13  16
ATOM     16  O   UNL     1       7.796   7.206  16.747  0.00  0.00    +0.000 OA
ATOM     17  C   UNL     1       7.850   8.308  17.641  0.00  0.00    +0.000 C 
ENDBRANCH  13  16
BRANCH  14  18
ATOM     18  O   UNL     1       6.703   5.249  14.872  0.00  0.00    +0.000 OA
ATOM     19  C   UNL     1       6.289   4.179  14.032  0.00  0.00    +0.000 C 
ENDBRANCH  14  18
ENDBRANCH   7  10
ENDBRANCH   4   7
BRANCH   1  20
ATOM     20  C   UNL     1       2.219   7.129  19.668  0.00  0.00    +0.000 C 
ATOM     21  O   UNL     1       3.069   7.433  18.846  0.00  0.00    +0.000 OA
BRANCH  20  22
ATOM     22  O   UNL     1       2.005   7.754  20.894  0.00  0.00    +0.000 OA
BRANCH  22  26
ATOM     23  C   UNL     1      -0.684  10.924  21.451  0.00  0.00    +0.000 A 
ATOM     24  C   UNL     1      -0.197  10.167  22.524  0.00  0.00    +0.000 A 
ATOM     25  C   UNL     1       0.713   9.138  22.297  0.00  0.00    +0.000 A 
ATOM     26  C   UNL     1       1.134   8.855  20.995  0.00  0.00    +0.000 A 
ATOM     27  C   UNL     1       0.648   9.587  19.917  0.00  0.00    +0.000 A 
ATOM     28  C   UNL     1      -0.262  10.619  20.147  0.00  0.00    +0.000 A 
BRANCH  23  29
ATOM     29  C   UNL     1      -1.543  12.139  21.700  0.00  0.00    +0.000 C 
BRANCH  29  30
ATOM     30  C   UNL     1      -0.824  13.151  22.570  0.00  0.00    +0.000 C 
ATOM     31  O   UNL     1       0.291  13.606  22.350  0.00  0.00    +0.000 OA
BRANCH  30  33
ATOM     32  C   UNL     1      -1.268  14.751  24.206  0.00  0.00    +0.000 C 
ATOM     33  O   UNL     1      -1.587  13.471  23.654  0.00  0.00    +0.000 OA
ENDBRANCH  30  33
ENDBRANCH  29  30
ENDBRANCH  23  29
ENDBRANCH  22  26
ENDBRANCH  20  22
ENDBRANCH   1  20
TORSDOF 10
ENDMDL
MODEL 2
REMARK VINA RESULT:      -7.1      2.216      2.726
REMARK  Name = 
REMARK  13 active torsions:
REMARK  status: ('A' for Active; 'I' for Inactive)
REMARK    1  A    between atoms: C_1  and  O_2
REMARK    2  A    between atoms: O_2  and  C_3
REMARK    3  A    between atoms: C_3  and  C_5
REMARK    4  A    between atoms: C_5  and  C_6
REMARK    5  A    between atoms: C_9  and  O_10
REMARK    6  A    between atoms: O_10  and  C_11
REMARK    7  A    between atoms: C_11  and  C_13
REMARK    8  A    between atoms: N_16  and  S_17
REMARK    9  A    between atoms: S_17  and  C_20
REMARK   10  A    between atoms: C_23  and  O_24
REMARK   11  A    between atoms: O_24  and  C_25
REMARK   12  A    between atoms: C_26  and  O_27
REMARK   13  A    between atoms: O_27  and  C_28
REMARK                            x       y       z     vdW  Elec       q    Type
REMARK                         _______ _______ _______ _____ _____    ______ ____
ROOT
ATOM      1  C   UNL     1       1.346   5.564  20.407  0.00  0.00    +0.000 C 
ATOM      2  C   UNL     1       1.990   4.630  21.430  0.00  0.00    +0.000 C 
ATOM      3  C   UNL     1       3.208   3.890  20.873  0.00  0.00    +0.000 C 
ATOM      4  N   UNL     1       2.890   3.187  19.592  0.00  0.00    +0.000 NA
ATOM      5  C   UNL     1       2.250   4.077  18.578  0.00  0.00    +0.000 C 
ATOM      6  C   UNL     1       1.009   4.752  19.151  0.00  0.00    +0.000 C 
ENDROOT
BRANCH   4   7
ATOM      7  S   UNL     1       4.260   2.370  18.905  0.00  0.00    +0.000 S 
ATOM      8  O   UNL     1       5.056   1.848  19.999  0.00  0.00    +0.000 OA
ATOM      9  O   UNL     1       3.771   1.496  17.860  0.00  0.00    +0.000 OA
BRANCH   7  10
ATOM     10  C   UNL     1       5.201   3.678  18.167  0.00  0.00    +0.000 A 
ATOM     11  C   UNL     1       5.922   4.568  18.956  0.00  0.00    +0.000 A 
ATOM     12  C   UNL     1       6.576   5.634  18.340  0.00  0.00    +0.000 A 
ATOM     13  C   UNL     1       6.519   5.822  16.946  0.00  0.00    +0.000 A 
ATOM     14  C   UNL     1       5.782   4.921  16.154  0.00  0.00    +0.000 A 
ATOM     15  C   UNL     1       5.120   3.855  16.781  0.00  0.00    +0.000 A 
BRANCH  13  16
ATOM     16  O   UNL     1       7.231   6.926  16.551  0.00  0.00    +0.000 OA
ATOM     17  C   UNL     1       7.741   7.811  17.538  0.00  0.00    +0.000 C 
ENDBRANCH  13  16
BRANCH  14  18
ATOM     18  O   UNL     1       5.732   5.128  14.802  0.00  0.00    +0.000 OA
ATOM     19  C   UNL     1       6.360   4.180  13.950  0.00  0.00    +0.000 C 
ENDBRANCH  14  18
ENDBRANCH   7  10
ENDBRANCH   4   7
BRANCH   1  20
ATOM     20  C   UNL     1       2.238   6.756  20.071  0.00  0.00    +0.000 C 
ATOM     21  O   UNL     1       3.251   6.719  19.389  0.00  0.00    +0.000 OA
BRANCH  20  22
ATOM     22  O   UNL     1       1.726   7.879  20.716  0.00  0.00    +0.000 OA
BRANCH  22  26
ATOM     23  C   UNL     1      -0.602  10.765  18.757  0.00  0.00    +0.000 A 
ATOM     24  C   UNL     1      -0.812  10.431  20.101  0.00  0.00    +0.000 A 
ATOM     25  C   UNL     1      -0.000   9.483  20.719  0.00  0.00    +0.000 A 
ATOM     26  C   UNL     1       1.019   8.860  19.995  0.00  0.00    +0.000 A 
ATOM     27  C   UNL     1       1.230   9.170  18.656  0.00  0.00    +0.000 A 
ATOM     28  C   UNL     1       0.417  10.121  18.038  0.00  0.00    +0.000 A 
BRANCH  23  29
ATOM     29  C   UNL     1      -1.368  11.901  18.124  0.00  0.00    +0.000 C 
BRANCH  29  30
ATOM     30  C   UNL     1      -2.527  11.387  17.293  0.00  0.00    +0.000 C 
ATOM     31  O   UNL     1      -2.464  11.070  16.112  0.00  0.00    +0.000 OA
BRANCH  30  33
ATOM     32  C   UNL     1      -4.834  11.719  17.305  0.00  0.00    +0.000 C 
ATOM     33  O   UNL     1      -3.666  11.348  18.042  0.00  0.00    +0.000 OA
ENDBRANCH  30  33
ENDBRANCH  29  30
ENDBRANCH  23  29
ENDBRANCH  22  26
ENDBRANCH  20  22
ENDBRANCH   1  20
TORSDOF 10
ENDMDL
MODEL 3
REMARK VINA RESULT:      -6.8      1.754      2.866
REMARK  Name = 
REMARK  13 active torsions:
REMARK  status: ('A' for Active; 'I' for Inactive)
REMARK    1  A    between atoms: C_1  and  O_2
REMARK    2  A    between atoms: O_2  and  C_3
REMARK    3  A    between atoms: C_3  and  C_5
REMARK    4  A    between atoms: C_5  and  C_6
REMARK    5  A    between atoms: C_9  and  O_10
REMARK    6  A    between atoms: O_10  and  C_11
REMARK    7  A    between atoms: C_11  and  C_13
REMARK    8  A    between atoms: N_16  and  S_17
REMARK    9  A    between atoms: S_17  and  C_20
REMARK   10  A    between atoms: C_23  and  O_24
REMARK   11  A    between atoms: O_24  and  C_25
REMARK   12  A    between atoms: C_26  and  O_27
REMARK   13  A    between atoms: O_27  and  C_28
REMARK                            x       y       z     vdW  Elec       q    Type
REMARK                         _______ _______ _______ _____ _____    ______ ____
ROOT
ATOM      1  C   UNL     1       1.836   6.989  18.687  0.00  0.00    +0.000 C 
ATOM      2  C   UNL     1       2.501   6.520  19.980  0.00  0.00    +0.000 C 
ATOM      3  C   UNL     1       3.630   5.517  19.737  0.00  0.00    +0.000 C 
ATOM      4  N   UNL     1       3.178   4.370  18.889  0.00  0.00    +0.000 NA
ATOM      5  C   UNL     1       2.516   4.803  17.623  0.00  0.00    +0.000 C 
ATOM      6  C   UNL     1       1.362   5.756  17.909  0.00  0.00    +0.000 C 
ENDROOT
BRANCH   4   7
ATOM      7  S   UNL     1       4.445   3.231  18.554  0.00  0.00    +0.000 S 
ATOM      8  O   UNL     1       5.334   3.210  19.700  0.00  0.00    +0.000 OA
ATOM      9  O   UNL     1       3.825   2.015  18.073  0.00  0.00    +0.000 OA
BRANCH   7  10
ATOM     10  C   UNL     1       5.345   3.983  17.225  0.00  0.00    +0.000 A 
ATOM     11  C   UNL     1       5.249   3.485  15.930  0.00  0.00    +0.000 A 
ATOM     12  C   UNL     1       6.042   4.052  14.932  0.00  0.00    +0.000 A 
ATOM     13  C   UNL     1       6.928   5.109  15.213  0.00  0.00    +0.000 A 
ATOM     14  C   UNL     1       7.024   5.603  16.527  0.00  0.00    +0.000 A 
ATOM     15  C   UNL     1       6.229   5.024  17.528  0.00  0.00    +0.000 A 
BRANCH  13  16
ATOM     16  O   UNL     1       7.607   5.515  14.092  0.00  0.00    +0.000 OA
ATOM     17  C   UNL     1       7.371   4.850  12.860  0.00  0.00    +0.000 C 
ENDBRANCH  13  16
BRANCH  14  18
ATOM     18  O   UNL     1       7.900   6.625  16.780  0.00  0.00    +0.000 OA
ATOM     19  C   UNL     1       7.460   7.706  17.591  0.00  0.00    +0.000 C 
ENDBRANCH  14  18
ENDBRANCH   7  10
ENDBRANCH   4   7
BRANCH   1  20
ATOM     20  C   UNL     1       2.767   7.852  17.839  0.00  0.00    +0.000 C 
ATOM     21  O   UNL     1       3.967   7.677  17.694  0.00  0.00    +0.000 OA
BRANCH  20  22
ATOM     22  O   UNL     1       2.021   8.899  17.303  0.00  0.00    +0.000 OA
BRANCH  22  26
ATOM     23  C   UNL     1       1.298  12.344  19.582  0.00  0.00    +0.000 A 
ATOM     24  C   UNL     1       2.242  12.324  18.547  0.00  0.00    +0.000 A 
ATOM     25  C   UNL     1       2.434  11.165  17.800  0.00  0.00    +0.000 A 
ATOM     26  C   UNL     1       1.689  10.019  18.088  0.00  0.00    +0.000 A 
ATOM     27  C   UNL     1       0.759  10.018  19.122  0.00  0.00    +0.000 A 
ATOM     28  C   UNL     1       0.567  11.182  19.869  0.00  0.00    +0.000 A 
BRANCH  23  29
ATOM     29  C   UNL     1       0.969  13.635  20.290  0.00  0.00    +0.000 C 
BRANCH  29  30
ATOM     30  C   UNL     1       2.001  13.958  21.353  0.00  0.00    +0.000 C 
ATOM     31  O   UNL     1       3.176  13.616  21.323  0.00  0.00    +0.000 OA
BRANCH  30  33
ATOM     32  C   UNL     1       0.022  14.856  22.196  0.00  0.00    +0.000 C 
ATOM     33  O   UNL     1       1.430  14.667  22.367  0.00  0.00    +0.000 OA
ENDBRANCH  30  33
ENDBRANCH  29  30
ENDBRANCH  23  29
ENDBRANCH  22  26
ENDBRANCH  20  22
ENDBRANCH   1  20
TORSDOF 10
ENDMDL
MODEL 4
REMARK VINA RESULT:      -6.8      1.192      1.720
REMARK  Name = 
REMARK  13 active torsions:
REMARK  status: ('A' for Active; 'I' for Inactive)
REMARK    1  A    between atoms: C_1  and  O_2
REMARK    2  A    between atoms: O_2  and  C_3
REMARK    3  A    between atoms: C_3  and  C_5
REMARK    4  A    between atoms: C_5  and  C_6
REMARK    5  A    between atoms: C_9  and  O_10
REMARK    6  A    between atoms: O_10  and  C_11
REMARK    7  A    between atoms: C_11  and  C_13
REMARK    8  A    between atoms: N_16  and  S_17
REMARK    9  A    between atoms: S_17  and  C_20
REMARK   10  A    between atoms: C_23  and  O_24
REMARK   11  A    between atoms: O_24  and  C_25
REMARK   12  A    between atoms: C_26  and  O_27
REMARK   13  A    between atoms: O_27  and  C_28
REMARK                            x       y       z     vdW  Elec       q    Type
REMARK                         _______ _______ _______ _____ _____    ______ ____
ROOT
ATOM      1  C   UNL     1       1.269   6.021  19.622  0.00  0.00    +0.000 C 
ATOM      2  C   UNL     1       1.604   5.004  20.713  0.00  0.00    +0.000 C 
ATOM      3  C   UNL     1       2.909   4.253  20.443  0.00  0.00    +0.000 C 
ATOM      4  N   UNL     1       2.922   3.639  19.079  0.00  0.00    +0.000 NA
ATOM      5  C   UNL     1       2.588   4.610  17.996  0.00  0.00    +0.000 C 
ATOM      6  C   UNL     1       1.255   5.297  18.271  0.00  0.00    +0.000 C 
ENDROOT
BRANCH   4   7
ATOM      7  S   UNL     1       4.406   2.813  18.718  0.00  0.00    +0.000 S 
ATOM      8  O   UNL     1       4.981   2.369  19.974  0.00  0.00    +0.000 OA
ATOM      9  O   UNL     1       4.137   1.872  17.653  0.00  0.00    +0.000 OA
BRANCH   7  10
ATOM     10  C   UNL     1       5.461   4.096  18.100  0.00  0.00    +0.000 A 
ATOM     11  C   UNL     1       6.098   4.974  18.971  0.00  0.00    +0.000 A 
ATOM     12  C   UNL     1       6.848   6.022  18.438  0.00  0.00    +0.000 A 
ATOM     13  C   UNL     1       6.968   6.205  17.047  0.00  0.00    +0.000 A 
ATOM     14  C   UNL     1       6.314   5.317  16.172  0.00  0.00    +0.000 A 
ATOM     15  C   UNL     1       5.555   4.268  16.715  0.00  0.00    +0.000 A 
BRANCH  13  16
ATOM     16  O   UNL     1       7.747   7.291  16.742  0.00  0.00    +0.000 OA
ATOM     17  C   UNL     1       7.961   8.290  17.728  0.00  0.00    +0.000 C 
ENDBRANCH  13  16
BRANCH  14  18
ATOM     18  O   UNL     1       6.435   5.519  14.824  0.00  0.00    +0.000 OA
ATOM     19  C   UNL     1       6.710   4.397  13.995  0.00  0.00    +0.000 C 
ENDBRANCH  14  18
ENDBRANCH   7  10
ENDBRANCH   4   7
BRANCH   1  20
ATOM     20  C   UNL     1       2.243   7.196  19.609  0.00  0.00    +0.000 C 
ATOM     21  O   UNL     1       2.995   7.489  18.693  0.00  0.00    +0.000 OA
BRANCH  20  22
ATOM     22  O   UNL     1       2.161   7.843  20.839  0.00  0.00    +0.000 OA
BRANCH  22  26
ATOM     23  C   UNL     1      -0.601  10.970  21.263  0.00  0.00    +0.000 A 
ATOM     24  C   UNL     1       0.014  10.686  20.038  0.00  0.00    +0.000 A 
ATOM     25  C   UNL     1       0.908   9.623  19.936  0.00  0.00    +0.000 A 
ATOM     26  C   UNL     1       1.196   8.845  21.060  0.00  0.00    +0.000 A 
ATOM     27  C   UNL     1       0.606   9.124  22.287  0.00  0.00    +0.000 A 
ATOM     28  C   UNL     1      -0.292  10.188  22.387  0.00  0.00    +0.000 A 
BRANCH  23  29
ATOM     29  C   UNL     1      -1.688  12.014  21.349  0.00  0.00    +0.000 C 
BRANCH  29  30
ATOM     30  C   UNL     1      -1.895  12.702  20.014  0.00  0.00    +0.000 C 
ATOM     31  O   UNL     1      -1.261  13.669  19.612  0.00  0.00    +0.000 OA
BRANCH  30  33
ATOM     32  C   UNL     1      -4.205  12.473  19.808  0.00  0.00    +0.000 C 
ATOM     33  O   UNL     1      -2.910  12.105  19.326  0.00  0.00    +0.000 OA
ENDBRANCH  30  33
ENDBRANCH  29  30
ENDBRANCH  23  29
ENDBRANCH  22  26
ENDBRANCH  20  22
ENDBRANCH   1  20
TORSDOF 10
ENDMDL
MODEL 5
REMARK VINA RESULT:      -6.8      3.291      7.617
REMARK  Name = 
REMARK  13 active torsions:
REMARK  status: ('A' for Active; 'I' for Inactive)
REMARK    1  A    between atoms: C_1  and  O_2
REMARK    2  A    between atoms: O_2  and  C_3
REMARK    3  A    between atoms: C_3  and  C_5
REMARK    4  A    between atoms: C_5  and  C_6
REMARK    5  A    between atoms: C_9  and  O_10
REMARK    6  A    between atoms: O_10  and  C_11
REMARK    7  A    between atoms: C_11  and  C_13
REMARK    8  A    between atoms: N_16  and  S_17
REMARK    9  A    between atoms: S_17  and  C_20
REMARK   10  A    between atoms: C_23  and  O_24
REMARK   11  A    between atoms: O_24  and  C_25
REMARK   12  A    between atoms: C_26  and  O_27
REMARK   13  A    between atoms: O_27  and  C_28
REMARK                            x       y       z     vdW  Elec       q    Type
REMARK                         _______ _______ _______ _____ _____    ______ ____
ROOT
ATOM      1  C   UNL     1       7.608   5.973  17.941  0.00  0.00    +0.000 C 
ATOM      2  C   UNL     1       7.226   4.866  16.960  0.00  0.00    +0.000 C 
ATOM      3  C   UNL     1       5.735   4.526  17.001  0.00  0.00    +0.000 C 
ATOM      4  N   UNL     1       5.274   4.227  18.393  0.00  0.00    +0.000 NA
ATOM      5  C   UNL     1       5.645   5.289  19.374  0.00  0.00    +0.000 C 
ATOM      6  C   UNL     1       7.144   5.561  19.343  0.00  0.00    +0.000 C 
ENDROOT
BRANCH   4   7
ATOM      7  S   UNL     1       3.576   3.877  18.488  0.00  0.00    +0.000 S 
ATOM      8  O   UNL     1       3.071   3.772  17.133  0.00  0.00    +0.000 OA
ATOM      9  O   UNL     1       3.403   2.793  19.431  0.00  0.00    +0.000 OA
BRANCH   7  10
ATOM     10  C   UNL     1       2.882   5.355  19.178  0.00  0.00    +0.000 A 
ATOM     11  C   UNL     1       2.238   5.331  20.410  0.00  0.00    +0.000 A 
ATOM     12  C   UNL     1       1.630   6.497  20.873  0.00  0.00    +0.000 A 
ATOM     13  C   UNL     1       1.657   7.687  20.121  0.00  0.00    +0.000 A 
ATOM     14  C   UNL     1       2.305   7.702  18.871  0.00  0.00    +0.000 A 
ATOM     15  C   UNL     1       2.909   6.523  18.407  0.00  0.00    +0.000 A 
BRANCH  13  16
ATOM     16  O   UNL     1       1.003   8.709  20.760  0.00  0.00    +0.000 OA
ATOM     17  C   UNL     1       1.267   8.949  22.134  0.00  0.00    +0.000 C 
ENDBRANCH  13  16
BRANCH  14  18
ATOM     18  O   UNL     1       2.311   8.867  18.151  0.00  0.00    +0.000 OA
ATOM     19  C   UNL     1       1.064   9.421  17.753  0.00  0.00    +0.000 C 
ENDBRANCH  14  18
ENDBRANCH   7  10
ENDBRANCH   4   7
BRANCH   1  20
ATOM     20  C   UNL     1       7.025   7.326  17.542  0.00  0.00    +0.000 C 
ATOM     21  O   UNL     1       5.838   7.615  17.529  0.00  0.00    +0.000 OA
BRANCH  20  22
ATOM     22  O   UNL     1       8.074   8.154  17.151  0.00  0.00    +0.000 OA
BRANCH  22  26
ATOM     23  C   UNL     1       9.161  11.637  19.218  0.00  0.00    +0.000 A 
ATOM     24  C   UNL     1       8.535  11.683  17.966  0.00  0.00    +0.000 A 
ATOM     25  C   UNL     1       8.170  10.502  17.325  0.00  0.00    +0.000 A 
ATOM     26  C   UNL     1       8.435   9.270  17.929  0.00  0.00    +0.000 A 
ATOM     27  C   UNL     1       9.070   9.208  19.164  0.00  0.00    +0.000 A 
ATOM     28  C   UNL     1       9.433  10.393  19.806  0.00  0.00    +0.000 A 
BRANCH  23  29
ATOM     29  C   UNL     1       9.416  12.907  19.992  0.00  0.00    +0.000 C 
BRANCH  29  30
ATOM     30  C   UNL     1      10.694  13.582  19.535  0.00  0.00    +0.000 C 
ATOM     31  O   UNL     1      11.789  13.454  20.066  0.00  0.00    +0.000 OA
BRANCH  30  33
ATOM     32  C   UNL     1      10.447  15.772  18.775  0.00  0.00    +0.000 C 
ATOM     33  O   UNL     1      10.450  14.378  18.455  0.00  0.00    +0.000 OA
ENDBRANCH  30  33
ENDBRANCH  29  30
ENDBRANCH  23  29
ENDBRANCH  22  26
ENDBRANCH  20  22
ENDBRANCH   1  20
TORSDOF 10
ENDMDL
MODEL 6
REMARK VINA RESULT:      -6.7      1.145      1.281
REMARK  Name = 
REMARK  13 active torsions:
REMARK  status: ('A' for Active; 'I' for Inactive)
REMARK    1  A    between atoms: C_1  and  O_2
REMARK    2  A    between atoms: O_2  and  C_3
REMARK    3  A    between atoms: C_3  and  C_5
REMARK    4  A    between atoms: C_5  and  C_6
REMARK    5  A    between atoms: C_9  and  O_10
REMARK    6  A    between atoms: O_10  and  C_11
REMARK    7  A    between atoms: C_11  and  C_13
REMARK    8  A    between atoms: N_16  and  S_17
REMARK    9  A    between atoms: S_17  and  C_20
REMARK   10  A    between atoms: C_23  and  O_24
REMARK   11  A    between atoms: O_24  and  C_25
REMARK   12  A    between atoms: C_26  and  O_27
REMARK   13  A    between atoms: O_27  and  C_28
REMARK                            x       y       z     vdW  Elec       q    Type
REMARK                         _______ _______ _______ _____ _____    ______ ____
ROOT
ATOM      1  C   UNL     1       0.998   4.683  20.556  0.00  0.00    +0.000 C 
ATOM      2  C   UNL     1       1.844   3.920  21.575  0.00  0.00    +0.000 C 
ATOM      3  C   UNL     1       3.135   3.361  20.975  0.00  0.00    +0.000 C 
ATOM      4  N   UNL     1       2.869   2.550  19.746  0.00  0.00    +0.000 NA
ATOM      5  C   UNL     1       2.036   3.270  18.738  0.00  0.00    +0.000 C 
ATOM      6  C   UNL     1       0.733   3.763  19.359  0.00  0.00    +0.000 C 
ENDROOT
BRANCH   4   7
ATOM      7  S   UNL     1       4.316   1.934  19.010  0.00  0.00    +0.000 S 
ATOM      8  O   UNL     1       5.208   1.516  20.074  0.00  0.00    +0.000 OA
ATOM      9  O   UNL     1       3.919   1.010  17.970  0.00  0.00    +0.000 OA
BRANCH   7  10
ATOM     10  C   UNL     1       5.047   3.364  18.262  0.00  0.00    +0.000 A 
ATOM     11  C   UNL     1       5.582   4.381  19.045  0.00  0.00    +0.000 A 
ATOM     12  C   UNL     1       6.069   5.527  18.417  0.00  0.00    +0.000 A 
ATOM     13  C   UNL     1       6.026   5.670  17.017  0.00  0.00    +0.000 A 
ATOM     14  C   UNL     1       5.476   4.640  16.231  0.00  0.00    +0.000 A 
ATOM     15  C   UNL     1       4.982   3.492  16.870  0.00  0.00    +0.000 A 
BRANCH  13  16
ATOM     16  O   UNL     1       6.555   6.869  16.611  0.00  0.00    +0.000 OA
ATOM     17  C   UNL     1       7.486   7.535  17.450  0.00  0.00    +0.000 C 
ENDBRANCH  13  16
BRANCH  14  18
ATOM     18  O   UNL     1       5.435   4.803  14.872  0.00  0.00    +0.000 OA
ATOM     19  C   UNL     1       6.552   4.370  14.106  0.00  0.00    +0.000 C 
ENDBRANCH  14  18
ENDBRANCH   7  10
ENDBRANCH   4   7
BRANCH   1  20
ATOM     20  C   UNL     1       1.660   5.985  20.115  0.00  0.00    +0.000 C 
ATOM     21  O   UNL     1       2.317   6.143  19.097  0.00  0.00    +0.000 OA
BRANCH  20  22
ATOM     22  O   UNL     1       1.428   6.945  21.096  0.00  0.00    +0.000 OA
BRANCH  22  26
ATOM     23  C   UNL     1       0.005  10.789  20.204  0.00  0.00    +0.000 A 
ATOM     24  C   UNL     1      -0.417  10.087  21.340  0.00  0.00    +0.000 A 
ATOM     25  C   UNL     1       0.099   8.822  21.611  0.00  0.00    +0.000 A 
ATOM     26  C   UNL     1       1.033   8.250  20.744  0.00  0.00    +0.000 A 
ATOM     27  C   UNL     1       1.451   8.927  19.604  0.00  0.00    +0.000 A 
ATOM     28  C   UNL     1       0.934  10.196  19.335  0.00  0.00    +0.000 A 
BRANCH  23  29
ATOM     29  C   UNL     1      -0.424  12.219  19.986  0.00  0.00    +0.000 C 
BRANCH  29  30
ATOM     30  C   UNL     1      -0.061  13.088  21.174  0.00  0.00    +0.000 C 
ATOM     31  O   UNL     1       1.076  13.298  21.575  0.00  0.00    +0.000 OA
BRANCH  30  33
ATOM     32  C   UNL     1      -1.166  13.511  23.182  0.00  0.00    +0.000 C 
ATOM     33  O   UNL     1      -1.188  13.591  21.754  0.00  0.00    +0.000 OA
ENDBRANCH  30  33
ENDBRANCH  29  30
ENDBRANCH  23  29
ENDBRANCH  22  26
ENDBRANCH  20  22
ENDBRANCH   1  20
TORSDOF 10
ENDMDL
MODEL 7
REMARK VINA RESULT:      -6.7      2.266      3.456
REMARK  Name = 
REMARK  13 active torsions:
REMARK  status: ('A' for Active; 'I' for Inactive)
REMARK    1  A    between atoms: C_1  and  O_2
REMARK    2  A    between atoms: O_2  and  C_3
REMARK    3  A    between atoms: C_3  and  C_5
REMARK    4  A    between atoms: C_5  and  C_6
REMARK    5  A    between atoms: C_9  and  O_10
REMARK    6  A    between atoms: O_10  and  C_11
REMARK    7  A    between atoms: C_11  and  C_13
REMARK    8  A    between atoms: N_16  and  S_17
REMARK    9  A    between atoms: S_17  and  C_20
REMARK   10  A    between atoms: C_23  and  O_24
REMARK   11  A    between atoms: O_24  and  C_25
REMARK   12  A    between atoms: C_26  and  O_27
REMARK   13  A    between atoms: O_27  and  C_28
REMARK                            x       y       z     vdW  Elec       q    Type
REMARK                         _______ _______ _______ _____ _____    ______ ____
ROOT
ATOM      1  C   UNL     1       1.322   5.569  20.459  0.00  0.00    +0.000 C 
ATOM      2  C   UNL     1       1.988   4.692  21.519  0.00  0.00    +0.000 C 
ATOM      3  C   UNL     1       3.160   3.879  20.966  0.00  0.00    +0.000 C 
ATOM      4  N   UNL     1       2.765   3.094  19.754  0.00  0.00    +0.000 NA
ATOM      5  C   UNL     1       2.103   3.927  18.707  0.00  0.00    +0.000 C 
ATOM      6  C   UNL     1       0.908   4.678  19.282  0.00  0.00    +0.000 C 
ENDROOT
BRANCH   4   7
ATOM      7  S   UNL     1       4.080   2.190  19.070  0.00  0.00    +0.000 S 
ATOM      8  O   UNL     1       5.042   1.943  20.128  0.00  0.00    +0.000 OA
ATOM      9  O   UNL     1       3.513   1.095  18.314  0.00  0.00    +0.000 OA
BRANCH   7  10
ATOM     10  C   UNL     1       4.837   3.334  17.949  0.00  0.00    +0.000 A 
ATOM     11  C   UNL     1       4.641   3.220  16.577  0.00  0.00    +0.000 A 
ATOM     12  C   UNL     1       5.325   4.088  15.726  0.00  0.00    +0.000 A 
ATOM     13  C   UNL     1       6.204   5.066  16.229  0.00  0.00    +0.000 A 
ATOM     14  C   UNL     1       6.403   5.171  17.619  0.00  0.00    +0.000 A 
ATOM     15  C   UNL     1       5.716   4.291  18.469  0.00  0.00    +0.000 A 
BRANCH  13  16
ATOM     16  O   UNL     1       6.769   5.809  15.223  0.00  0.00    +0.000 OA
ATOM     17  C   UNL     1       7.227   5.152  14.051  0.00  0.00    +0.000 C 
ENDBRANCH  13  16
BRANCH  14  18
ATOM     18  O   UNL     1       7.269   6.123  18.086  0.00  0.00    +0.000 OA
ATOM     19  C   UNL     1       7.968   5.864  19.296  0.00  0.00    +0.000 C 
ENDBRANCH  14  18
ENDBRANCH   7  10
ENDBRANCH   4   7
BRANCH   1  20
ATOM     20  C   UNL     1       2.229   6.706  19.998  0.00  0.00    +0.000 C 
ATOM     21  O   UNL     1       3.131   6.613  19.178  0.00  0.00    +0.000 OA
BRANCH  20  22
ATOM     22  O   UNL     1       1.884   7.853  20.707  0.00  0.00    +0.000 OA
BRANCH  22  26
ATOM     23  C   UNL     1      -0.429  10.802  18.825  0.00  0.00    +0.000 A 
ATOM     24  C   UNL     1       0.643  10.176  18.177  0.00  0.00    +0.000 A 
ATOM     25  C   UNL     1       1.371   9.184  18.832  0.00  0.00    +0.000 A 
ATOM     26  C   UNL     1       1.034   8.821  20.138  0.00  0.00    +0.000 A 
ATOM     27  C   UNL     1      -0.018   9.444  20.799  0.00  0.00    +0.000 A 
ATOM     28  C   UNL     1      -0.747  10.436  20.141  0.00  0.00    +0.000 A 
BRANCH  23  29
ATOM     29  C   UNL     1      -1.322  11.759  18.073  0.00  0.00    +0.000 C 
BRANCH  29  30
ATOM     30  C   UNL     1      -2.650  11.116  17.727  0.00  0.00    +0.000 C 
ATOM     31  O   UNL     1      -3.718  11.363  18.271  0.00  0.00    +0.000 OA
BRANCH  30  33
ATOM     32  C   UNL     1      -2.836  10.701  15.441  0.00  0.00    +0.000 C 
ATOM     33  O   UNL     1      -2.485  10.197  16.732  0.00  0.00    +0.000 OA
ENDBRANCH  30  33
ENDBRANCH  29  30
ENDBRANCH  23  29
ENDBRANCH  22  26
ENDBRANCH  20  22
ENDBRANCH   1  20
TORSDOF 10
ENDMDL
MODEL 8
REMARK VINA RESULT:      -6.7      4.566      9.989
REMARK  Name = 
REMARK  13 active torsions:
REMARK  status: ('A' for Active; 'I' for Inactive)
REMARK    1  A    between atoms: C_1  and  O_2
REMARK    2  A    between atoms: O_2  and  C_3
REMARK    3  A    between atoms: C_3  and  C_5
REMARK    4  A    between atoms: C_5  and  C_6
REMARK    5  A    between atoms: C_9  and  O_10
REMARK    6  A    between atoms: O_10  and  C_11
REMARK    7  A    between atoms: C_11  and  C_13
REMARK    8  A    between atoms: N_16  and  S_17
REMARK    9  A    between atoms: S_17  and  C_20
REMARK   10  A    between atoms: C_23  and  O_24
REMARK   11  A    between atoms: O_24  and  C_25
REMARK   12  A    between atoms: C_26  and  O_27
REMARK   13  A    between atoms: O_27  and  C_28
REMARK                            x       y       z     vdW  Elec       q    Type
REMARK                         _______ _______ _______ _____ _____    ______ ____
ROOT
ATOM      1  C   UNL     1      -0.123  10.318  18.890  0.00  0.00    +0.000 C 
ATOM      2  C   UNL     1      -0.386  11.715  18.328  0.00  0.00    +0.000 C 
ATOM      3  C   UNL     1       0.454  12.797  19.009  0.00  0.00    +0.000 C 
ATOM      4  N   UNL     1       0.310  12.754  20.498  0.00  0.00    +0.000 NA
ATOM      5  C   UNL     1       0.553  11.397  21.071  0.00  0.00    +0.000 C 
ATOM      6  C   UNL     1      -0.341  10.356  20.407  0.00  0.00    +0.000 C 
ENDROOT
BRANCH   4   7
ATOM      7  S   UNL     1       1.283  13.940  21.311  0.00  0.00    +0.000 S 
ATOM      8  O   UNL     1       0.494  14.486  22.399  0.00  0.00    +0.000 OA
ATOM      9  O   UNL     1       2.579  13.348  21.559  0.00  0.00    +0.000 OA
BRANCH   7  10
ATOM     10  C   UNL     1       1.460  15.231  20.110  0.00  0.00    +0.000 A 
ATOM     11  C   UNL     1       0.404  16.091  19.829  0.00  0.00    +0.000 A 
ATOM     12  C   UNL     1       0.558  17.036  18.815  0.00  0.00    +0.000 A 
ATOM     13  C   UNL     1       1.754  17.132  18.079  0.00  0.00    +0.000 A 
ATOM     14  C   UNL     1       2.817  16.254  18.365  0.00  0.00    +0.000 A 
ATOM     15  C   UNL     1       2.653  15.301  19.381  0.00  0.00    +0.000 A 
BRANCH  13  16
ATOM     16  O   UNL     1       1.693  18.125  17.135  0.00  0.00    +0.000 OA
ATOM     17  C   UNL     1       0.429  18.503  16.608  0.00  0.00    +0.000 C 
ENDBRANCH  13  16
BRANCH  14  18
ATOM     18  O   UNL     1       3.968  16.358  17.630  0.00  0.00    +0.000 OA
ATOM     19  C   UNL     1       4.912  15.298  17.700  0.00  0.00    +0.000 C 
ENDBRANCH  14  18
ENDBRANCH   7  10
ENDBRANCH   4   7
BRANCH   1  20
ATOM     20  C   UNL     1       1.275   9.811  18.547  0.00  0.00    +0.000 C 
ATOM     21  O   UNL     1       1.907  10.088  17.538  0.00  0.00    +0.000 OA
BRANCH  20  22
ATOM     22  O   UNL     1       1.683   8.943  19.555  0.00  0.00    +0.000 OA
BRANCH  22  26
ATOM     23  C   UNL     1       3.166   5.211  18.343  0.00  0.00    +0.000 A 
ATOM     24  C   UNL     1       3.422   6.382  17.618  0.00  0.00    +0.000 A 
ATOM     25  C   UNL     1       2.930   7.604  18.070  0.00  0.00    +0.000 A 
ATOM     26  C   UNL     1       2.173   7.660  19.242  0.00  0.00    +0.000 A 
ATOM     27  C   UNL     1       1.896   6.505  19.964  0.00  0.00    +0.000 A 
ATOM     28  C   UNL     1       2.392   5.281  19.512  0.00  0.00    +0.000 A 
BRANCH  23  29
ATOM     29  C   UNL     1       3.825   3.911  17.953  0.00  0.00    +0.000 C 
BRANCH  29  30
ATOM     30  C   UNL     1       4.761   3.422  19.040  0.00  0.00    +0.000 C 
ATOM     31  O   UNL     1       5.747   4.023  19.447  0.00  0.00    +0.000 OA
BRANCH  30  33
ATOM     32  C   UNL     1       3.456   1.541  18.602  0.00  0.00    +0.000 C 
ATOM     33  O   UNL     1       4.365   2.198  19.490  0.00  0.00    +0.000 OA
ENDBRANCH  30  33
ENDBRANCH  29  30
ENDBRANCH  23  29
ENDBRANCH  22  26
ENDBRANCH  20  22
ENDBRANCH   1  20
TORSDOF 10
ENDMDL
MODEL 9
REMARK VINA RESULT:      -6.6      1.203      1.951
REMARK  Name = 
REMARK  13 active torsions:
REMARK  status: ('A' for Active; 'I' for Inactive)
REMARK    1  A    between atoms: C_1  and  O_2
REMARK    2  A    between atoms: O_2  and  C_3
REMARK    3  A    between atoms: C_3  and  C_5
REMARK    4  A    between atoms: C_5  and  C_6
REMARK    5  A    between atoms: C_9  and  O_10
REMARK    6  A    between atoms: O_10  and  C_11
REMARK    7  A    between atoms: C_11  and  C_13
REMARK    8  A    between atoms: N_16  and  S_17
REMARK    9  A    between atoms: S_17  and  C_20
REMARK   10  A    between atoms: C_23  and  O_24
REMARK   11  A    between atoms: O_24  and  C_25
REMARK   12  A    between atoms: C_26  and  O_27
REMARK   13  A    between atoms: O_27  and  C_28
REMARK                            x       y       z     vdW  Elec       q    Type
REMARK                         _______ _______ _______ _____ _____    ______ ____
ROOT
ATOM      1  C   UNL     1       1.467   5.330  20.947  0.00  0.00    +0.000 C 
ATOM      2  C   UNL     1       2.644   4.428  21.319  0.00  0.00    +0.000 C 
ATOM      3  C   UNL     1       3.434   3.950  20.099  0.00  0.00    +0.000 C 
ATOM      4  N   UNL     1       2.544   3.319  19.076  0.00  0.00    +0.000 NA
ATOM      5  C   UNL     1       1.381   4.177  18.701  0.00  0.00    +0.000 C 
ATOM      6  C   UNL     1       0.586   4.586  19.936  0.00  0.00    +0.000 C 
ENDROOT
BRANCH   4   7
ATOM      7  S   UNL     1       3.400   2.803  17.655  0.00  0.00    +0.000 S 
ATOM      8  O   UNL     1       4.101   1.576  17.985  0.00  0.00    +0.000 OA
ATOM      9  O   UNL     1       2.475   2.853  16.544  0.00  0.00    +0.000 OA
BRANCH   7  10
ATOM     10  C   UNL     1       4.636   4.053  17.432  0.00  0.00    +0.000 A 
ATOM     11  C   UNL     1       4.469   5.057  16.485  0.00  0.00    +0.000 A 
ATOM     12  C   UNL     1       5.505   5.968  16.282  0.00  0.00    +0.000 A 
ATOM     13  C   UNL     1       6.705   5.887  17.013  0.00  0.00    +0.000 A 
ATOM     14  C   UNL     1       6.870   4.864  17.966  0.00  0.00    +0.000 A 
ATOM     15  C   UNL     1       5.826   3.946  18.160  0.00  0.00    +0.000 A 
BRANCH  13  16
ATOM     16  O   UNL     1       7.586   6.878  16.658  0.00  0.00    +0.000 OA
ATOM     17  C   UNL     1       7.639   8.067  17.432  0.00  0.00    +0.000 C 
ENDBRANCH  13  16
BRANCH  14  18
ATOM     18  O   UNL     1       8.049   4.798  18.659  0.00  0.00    +0.000 OA
ATOM     19  C   UNL     1       8.149   5.502  19.890  0.00  0.00    +0.000 C 
ENDBRANCH  14  18
ENDBRANCH   7  10
ENDBRANCH   4   7
BRANCH   1  20
ATOM     20  C   UNL     1       1.925   6.677  20.394  0.00  0.00    +0.000 C 
ATOM     21  O   UNL     1       2.285   6.892  19.247  0.00  0.00    +0.000 OA
BRANCH  20  22
ATOM     22  O   UNL     1       1.907   7.602  21.433  0.00  0.00    +0.000 OA
BRANCH  22  26
ATOM     23  C   UNL     1      -0.709  10.879  21.538  0.00  0.00    +0.000 A 
ATOM     24  C   UNL     1      -0.245  10.263  22.707  0.00  0.00    +0.000 A 
ATOM     25  C   UNL     1       0.642   9.192  22.627  0.00  0.00    +0.000 A 
ATOM     26  C   UNL     1       1.062   8.727  21.378  0.00  0.00    +0.000 A 
ATOM     27  C   UNL     1       0.598   9.317  20.208  0.00  0.00    +0.000 A 
ATOM     28  C   UNL     1      -0.289  10.392  20.290  0.00  0.00    +0.000 A 
BRANCH  23  29
ATOM     29  C   UNL     1      -1.540  12.136  21.614  0.00  0.00    +0.000 C 
BRANCH  29  30
ATOM     30  C   UNL     1      -2.098  12.342  23.009  0.00  0.00    +0.000 C 
ATOM     31  O   UNL     1      -3.127  11.840  23.440  0.00  0.00    +0.000 OA
BRANCH  30  33
ATOM     32  C   UNL     1      -1.800  14.531  23.754  0.00  0.00    +0.000 C 
ATOM     33  O   UNL     1      -1.299  13.191  23.716  0.00  0.00    +0.000 OA
ENDBRANCH  30  33
ENDBRANCH  29  30
ENDBRANCH  23  29
ENDBRANCH  22  26
ENDBRANCH  20  22
ENDBRANCH   1  20
TORSDOF 10
ENDMDL
