MODEL 1
REMARK VINA RESULT:      -7.2      0.000      0.000
REMARK  Name = 
REMARK  8 active torsions:
REMARK  status: ('A' for Active; 'I' for Inactive)
REMARK    1  A    between atoms: C_1  and  C_2
REMARK    2  A    between atoms: C_4  and  C_5
REMARK    3  A    between atoms: C_16  and  N_17
REMARK    4  A    between atoms: C_18  and  C_20
REMARK    5  A    between atoms: C_20  and  C_21
REMARK    6  A    between atoms: C_21  and  C_22
REMARK    7  A    between atoms: C_21  and  C_23
REMARK    8  A    between atoms: C_21  and  C_24
REMARK                            x       y       z     vdW  Elec       q    Type
REMARK                         _______ _______ _______ _____ _____    ______ ____
ROOT
ATOM      1  C   UNL     1       2.646   8.545  17.450  0.00  0.00    +0.000 C 
ATOM      2  C   UNL     1       2.245   7.954  18.775  0.00  0.00    +0.000 A 
ATOM      3  C   UNL     1       1.617   8.838  19.678  0.00  0.00    +0.000 A 
ATOM      4  C   UNL     1       1.128   8.410  20.919  0.00  0.00    +0.000 A 
ATOM      5  C   UNL     1       1.260   7.071  21.266  0.00  0.00    +0.000 A 
ATOM      6  C   UNL     1       1.880   6.175  20.381  0.00  0.00    +0.000 A 
ATOM      7 CL   UNL     1       2.033   4.529  20.901  0.00  0.00    +0.000 Cl
ATOM      8  C   UNL     1       2.406   6.599  19.135  0.00  0.00    +0.000 A 
ENDROOT
BRANCH   4   9
ATOM      9  C   UNL     1       0.454   9.422  21.788  0.00  0.00    +0.000 C 
ATOM     10  O   UNL     1       0.408   9.197  22.989  0.00  0.00    +0.000 OA
ATOM     11  N   UNL     1      -0.121  10.475  21.120  0.00  0.00    +0.000 N 
ATOM     12  C   UNL     1      -0.821  11.448  21.793  0.00  0.00    +0.000 A 
ATOM     13  N   UNL     1      -0.829  11.725  23.074  0.00  0.00    +0.000 NA
ATOM     14  C   UNL     1      -1.734  12.741  23.310  0.00  0.00    +0.000 A 
ATOM     15  C   UNL     1      -2.406  13.207  22.204  0.00  0.00    +0.000 A 
ATOM     16  S   UNL     1      -1.817  12.411  20.799  0.00  0.00    +0.000 S 
ATOM     17  H   UNL     1      -0.203  10.486  20.114  0.00  0.00    +0.000 HD
ENDBRANCH   4   9
BRANCH   8  18
ATOM     18  N   UNL     1       3.010   5.619  18.267  0.00  0.00    +0.000 N 
ATOM     19  C   UNL     1       4.340   5.239  18.439  0.00  0.00    +0.000 C 
ATOM     20  O   UNL     1       5.088   5.767  19.250  0.00  0.00    +0.000 OA
ATOM     21  H   UNL     1       2.402   4.852  17.995  0.00  0.00    +0.000 HD
BRANCH  19  22
ATOM     22  C   UNL     1       4.857   4.086  17.551  0.00  0.00    +0.000 C 
BRANCH  22  23
ATOM     23  C   UNL     1       5.854   4.539  16.455  0.00  0.00    +0.000 C 
ATOM     24  C   UNL     1       7.288   4.588  17.018  0.00  0.00    +0.000 C 
ATOM     25  C   UNL     1       5.839   3.583  15.240  0.00  0.00    +0.000 C 
ATOM     26  C   UNL     1       5.467   5.932  15.946  0.00  0.00    +0.000 C 
ENDBRANCH  22  23
ENDBRANCH  19  22
ENDBRANCH   8  18
TORSDOF 4
ENDMDL
MODEL 2
REMARK VINA RESULT:      -7.1      1.155      2.031
REMARK  Name = 
REMARK  8 active torsions:
REMARK  status: ('A' for Active; 'I' for Inactive)
REMARK    1  A    between atoms: C_1  and  C_2
REMARK    2  A    between atoms: C_4  and  C_5
REMARK    3  A    between atoms: C_16  and  N_17
REMARK    4  A    between atoms: C_18  and  C_20
REMARK    5  A    between atoms: C_20  and  C_21
REMARK    6  A    between atoms: C_21  and  C_22
REMARK    7  A    between atoms: C_21  and  C_23
REMARK    8  A    between atoms: C_21  and  C_24
REMARK                            x       y       z     vdW  Elec       q    Type
REMARK                         _______ _______ _______ _____ _____    ______ ____
ROOT
ATOM      1  C   UNL     1       1.927   4.724  20.994  0.00  0.00    +0.000 C 
ATOM      2  C   UNL     1       1.848   6.093  20.372  0.00  0.00    +0.000 A 
ATOM      3  C   UNL     1       1.230   7.091  21.154  0.00  0.00    +0.000 A 
ATOM      4  C   UNL     1       1.148   8.424  20.732  0.00  0.00    +0.000 A 
ATOM      5  C   UNL     1       1.702   8.774  19.506  0.00  0.00    +0.000 A 
ATOM      6  C   UNL     1       2.324   7.796  18.713  0.00  0.00    +0.000 A 
ATOM      7 CL   UNL     1       2.962   8.307  17.185  0.00  0.00    +0.000 Cl
ATOM      8  C   UNL     1       2.388   6.438  19.114  0.00  0.00    +0.000 A 
ENDROOT
BRANCH   4   9
ATOM      9  C   UNL     1       0.498   9.407  21.650  0.00  0.00    +0.000 C 
ATOM     10  O   UNL     1       0.418   9.111  22.833  0.00  0.00    +0.000 OA
ATOM     11  N   UNL     1      -0.021  10.522  21.039  0.00  0.00    +0.000 N 
ATOM     12  C   UNL     1      -0.694  11.480  21.758  0.00  0.00    +0.000 A 
ATOM     13  N   UNL     1      -0.718  11.678  23.053  0.00  0.00    +0.000 NA
ATOM     14  C   UNL     1      -1.586  12.714  23.335  0.00  0.00    +0.000 A 
ATOM     15  C   UNL     1      -2.216  13.274  22.248  0.00  0.00    +0.000 A 
ATOM     16  S   UNL     1      -1.631  12.543  20.808  0.00  0.00    +0.000 S 
ATOM     17  H   UNL     1      -0.081  10.598  20.034  0.00  0.00    +0.000 HD
ENDBRANCH   4   9
BRANCH   8  18
ATOM     18  N   UNL     1       3.060   5.493  18.258  0.00  0.00    +0.000 N 
ATOM     19  C   UNL     1       4.393   5.151  18.482  0.00  0.00    +0.000 C 
ATOM     20  O   UNL     1       5.088   5.688  19.333  0.00  0.00    +0.000 OA
ATOM     21  H   UNL     1       2.489   4.712  17.947  0.00  0.00    +0.000 HD
BRANCH  19  22
ATOM     22  C   UNL     1       4.984   4.031  17.600  0.00  0.00    +0.000 C 
BRANCH  22  23
ATOM     23  C   UNL     1       5.984   4.538  16.530  0.00  0.00    +0.000 C 
ATOM     24  C   UNL     1       5.601   5.957  16.065  0.00  0.00    +0.000 C 
ATOM     25  C   UNL     1       7.430   4.577  17.075  0.00  0.00    +0.000 C 
ATOM     26  C   UNL     1       5.975   3.595  15.323  0.00  0.00    +0.000 C 
ENDBRANCH  22  23
ENDBRANCH  19  22
ENDBRANCH   8  18
TORSDOF 4
ENDMDL
MODEL 3
REMARK VINA RESULT:      -6.9      1.239      1.504
REMARK  Name = 
REMARK  8 active torsions:
REMARK  status: ('A' for Active; 'I' for Inactive)
REMARK    1  A    between atoms: C_1  and  C_2
REMARK    2  A    between atoms: C_4  and  C_5
REMARK    3  A    between atoms: C_16  and  N_17
REMARK    4  A    between atoms: C_18  and  C_20
REMARK    5  A    between atoms: C_20  and  C_21
REMARK    6  A    between atoms: C_21  and  C_22
REMARK    7  A    between atoms: C_21  and  C_23
REMARK    8  A    between atoms: C_21  and  C_24
REMARK                            x       y       z     vdW  Elec       q    Type
REMARK                         _______ _______ _______ _____ _____    ______ ____
ROOT
ATOM      1  C   UNL     1       3.313   8.034  17.625  0.00  0.00    +0.000 C 
ATOM      2  C   UNL     1       2.748   7.406  18.871  0.00  0.00    +0.000 A 
ATOM      3  C   UNL     1       1.847   8.203  19.609  0.00  0.00    +0.000 A 
ATOM      4  C   UNL     1       1.192   7.724  20.750  0.00  0.00    +0.000 A 
ATOM      5  C   UNL     1       1.433   6.419  21.163  0.00  0.00    +0.000 A 
ATOM      6  C   UNL     1       2.325   5.609  20.443  0.00  0.00    +0.000 A 
ATOM      7 CL   UNL     1       2.595   4.005  21.041  0.00  0.00    +0.000 Cl
ATOM      8  C   UNL     1       3.018   6.089  19.303  0.00  0.00    +0.000 A 
ENDROOT
BRANCH   4   9
ATOM      9  C   UNL     1       0.234   8.641  21.440  0.00  0.00    +0.000 C 
ATOM     10  O   UNL     1      -0.780   8.150  21.913  0.00  0.00    +0.000 OA
ATOM     11  N   UNL     1       0.567   9.973  21.396  0.00  0.00    +0.000 N 
ATOM     12  C   UNL     1      -0.253  10.930  21.943  0.00  0.00    +0.000 A 
ATOM     13  N   UNL     1      -1.243  10.785  22.789  0.00  0.00    +0.000 NA
ATOM     14  C   UNL     1      -1.830  12.016  23.011  0.00  0.00    +0.000 A 
ATOM     15  C   UNL     1      -1.283  13.069  22.316  0.00  0.00    +0.000 A 
ATOM     16  S   UNL     1       0.079  12.520  21.424  0.00  0.00    +0.000 S 
ATOM     17  H   UNL     1       1.323  10.313  20.820  0.00  0.00    +0.000 HD
ENDBRANCH   4   9
BRANCH   8  18
ATOM     18  N   UNL     1       3.903   5.195  18.601  0.00  0.00    +0.000 N 
ATOM     19  C   UNL     1       3.438   4.421  17.539  0.00  0.00    +0.000 C 
ATOM     20  O   UNL     1       2.262   4.377  17.206  0.00  0.00    +0.000 OA
ATOM     21  H   UNL     1       4.847   5.543  18.465  0.00  0.00    +0.000 HD
BRANCH  19  22
ATOM     22  C   UNL     1       4.489   3.598  16.762  0.00  0.00    +0.000 C 
BRANCH  22  23
ATOM     23  C   UNL     1       5.597   4.460  16.106  0.00  0.00    +0.000 C 
ATOM     24  C   UNL     1       6.055   3.829  14.777  0.00  0.00    +0.000 C 
ATOM     25  C   UNL     1       5.106   5.898  15.819  0.00  0.00    +0.000 C 
ATOM     26  C   UNL     1       6.798   4.568  17.051  0.00  0.00    +0.000 C 
ENDBRANCH  22  23
ENDBRANCH  19  22
ENDBRANCH   8  18
TORSDOF 4
ENDMDL
MODEL 4
REMARK VINA RESULT:      -6.9      1.629      2.372
REMARK  Name = 
REMARK  8 active torsions:
REMARK  status: ('A' for Active; 'I' for Inactive)
REMARK    1  A    between atoms: C_1  and  C_2
REMARK    2  A    between atoms: C_4  and  C_5
REMARK    3  A    between atoms: C_16  and  N_17
REMARK    4  A    between atoms: C_18  and  C_20
REMARK    5  A    between atoms: C_20  and  C_21
REMARK    6  A    between atoms: C_21  and  C_22
REMARK    7  A    between atoms: C_21  and  C_23
REMARK    8  A    between atoms: C_21  and  C_24
REMARK                            x       y       z     vdW  Elec       q    Type
REMARK                         _______ _______ _______ _____ _____    ______ ____
ROOT
ATOM      1  C   UNL     1       2.243   4.192  21.193  0.00  0.00    +0.000 C 
ATOM      2  C   UNL     1       2.141   5.543  20.536  0.00  0.00    +0.000 A 
ATOM      3  C   UNL     1       1.273   6.466  21.157  0.00  0.00    +0.000 A 
ATOM      4  C   UNL     1       1.133   7.781  20.696  0.00  0.00    +0.000 A 
ATOM      5  C   UNL     1       1.878   8.190  19.597  0.00  0.00    +0.000 A 
ATOM      6  C   UNL     1       2.748   7.288  18.966  0.00  0.00    +0.000 A 
ATOM      7 CL   UNL     1       3.619   7.866  17.583  0.00  0.00    +0.000 Cl
ATOM      8  C   UNL     1       2.880   5.945  19.402  0.00  0.00    +0.000 A 
ENDROOT
BRANCH   4   9
ATOM      9  C   UNL     1       0.208   8.686  21.445  0.00  0.00    +0.000 C 
ATOM     10  O   UNL     1      -0.765   8.181  21.984  0.00  0.00    +0.000 OA
ATOM     11  N   UNL     1       0.516  10.023  21.374  0.00  0.00    +0.000 N 
ATOM     12  C   UNL     1      -0.282  10.970  21.970  0.00  0.00    +0.000 A 
ATOM     13  N   UNL     1      -1.212  10.813  22.880  0.00  0.00    +0.000 NA
ATOM     14  C   UNL     1      -1.803  12.036  23.135  0.00  0.00    +0.000 A 
ATOM     15  C   UNL     1      -1.319  13.094  22.403  0.00  0.00    +0.000 A 
ATOM     16  S   UNL     1      -0.009  12.562  21.426  0.00  0.00    +0.000 S 
ATOM     17  H   UNL     1       1.227  10.373  20.749  0.00  0.00    +0.000 HD
ENDBRANCH   4   9
BRANCH   8  18
ATOM     18  N   UNL     1       3.809   5.081  18.719  0.00  0.00    +0.000 N 
ATOM     19  C   UNL     1       3.405   4.329  17.617  0.00  0.00    +0.000 C 
ATOM     20  O   UNL     1       2.246   4.279  17.229  0.00  0.00    +0.000 OA
ATOM     21  H   UNL     1       4.754   5.445  18.636  0.00  0.00    +0.000 HD
BRANCH  19  22
ATOM     22  C   UNL     1       4.502   3.541  16.870  0.00  0.00    +0.000 C 
BRANCH  22  23
ATOM     23  C   UNL     1       5.599   4.438  16.242  0.00  0.00    +0.000 C 
ATOM     24  C   UNL     1       5.017   5.813  15.860  0.00  0.00    +0.000 C 
ATOM     25  C   UNL     1       6.778   4.661  17.216  0.00  0.00    +0.000 C 
ATOM     26  C   UNL     1       6.163   3.766  14.986  0.00  0.00    +0.000 C 
ENDBRANCH  22  23
ENDBRANCH  19  22
ENDBRANCH   8  18
TORSDOF 4
ENDMDL
MODEL 5
REMARK VINA RESULT:      -6.7      3.486      9.236
REMARK  Name = 
REMARK  8 active torsions:
REMARK  status: ('A' for Active; 'I' for Inactive)
REMARK    1  A    between atoms: C_1  and  C_2
REMARK    2  A    between atoms: C_4  and  C_5
REMARK    3  A    between atoms: C_16  and  N_17
REMARK    4  A    between atoms: C_18  and  C_20
REMARK    5  A    between atoms: C_20  and  C_21
REMARK    6  A    between atoms: C_21  and  C_22
REMARK    7  A    between atoms: C_21  and  C_23
REMARK    8  A    between atoms: C_21  and  C_24
REMARK                            x       y       z     vdW  Elec       q    Type
REMARK                         _______ _______ _______ _____ _____    ______ ____
ROOT
ATOM      1  C   UNL     1      -0.399   9.605  23.199  0.00  0.00    +0.000 C 
ATOM      2  C   UNL     1       0.067   9.642  21.768  0.00  0.00    +0.000 A 
ATOM      3  C   UNL     1       0.900   8.578  21.363  0.00  0.00    +0.000 A 
ATOM      4  C   UNL     1       1.352   8.445  20.045  0.00  0.00    +0.000 A 
ATOM      5  C   UNL     1       0.959   9.390  19.104  0.00  0.00    +0.000 A 
ATOM      6  C   UNL     1       0.128  10.455  19.484  0.00  0.00    +0.000 A 
ATOM      7 CL   UNL     1      -0.292  11.607  18.259  0.00  0.00    +0.000 Cl
ATOM      8  C   UNL     1      -0.313  10.619  20.822  0.00  0.00    +0.000 A 
ENDROOT
BRANCH   4   9
ATOM      9  C   UNL     1       2.207   7.265  19.716  0.00  0.00    +0.000 C 
ATOM     10  O   UNL     1       2.891   7.324  18.705  0.00  0.00    +0.000 OA
ATOM     11  N   UNL     1       2.068   6.190  20.559  0.00  0.00    +0.000 N 
ATOM     12  C   UNL     1       2.753   5.019  20.341  0.00  0.00    +0.000 A 
ATOM     13  N   UNL     1       3.790   4.800  19.570  0.00  0.00    +0.000 NA
ATOM     14  C   UNL     1       4.104   3.455  19.608  0.00  0.00    +0.000 A 
ATOM     15  C   UNL     1       3.289   2.677  20.397  0.00  0.00    +0.000 A 
ATOM     16  S   UNL     1       2.145   3.677  21.198  0.00  0.00    +0.000 S 
ATOM     17  H   UNL     1       1.340   6.153  21.258  0.00  0.00    +0.000 HD
ENDBRANCH   4   9
BRANCH   8  18
ATOM     18  N   UNL     1      -1.181  11.725  21.136  0.00  0.00    +0.000 N 
ATOM     19  C   UNL     1      -0.661  12.926  21.616  0.00  0.00    +0.000 C 
ATOM     20  O   UNL     1       0.521  13.082  21.888  0.00  0.00    +0.000 OA
ATOM     21  H   UNL     1      -1.966  11.849  20.503  0.00  0.00    +0.000 HD
BRANCH  19  22
ATOM     22  C   UNL     1      -1.653  14.095  21.793  0.00  0.00    +0.000 C 
BRANCH  22  23
ATOM     23  C   UNL     1      -2.332  14.135  23.186  0.00  0.00    +0.000 C 
ATOM     24  C   UNL     1      -2.796  12.725  23.599  0.00  0.00    +0.000 C 
ATOM     25  C   UNL     1      -1.371  14.669  24.273  0.00  0.00    +0.000 C 
ATOM     26  C   UNL     1      -3.544  15.071  23.146  0.00  0.00    +0.000 C 
ENDBRANCH  22  23
ENDBRANCH  19  22
ENDBRANCH   8  18
TORSDOF 4
ENDMDL
MODEL 6
REMARK VINA RESULT:      -6.6      3.552      9.222
REMARK  Name = 
REMARK  8 active torsions:
REMARK  status: ('A' for Active; 'I' for Inactive)
REMARK    1  A    between atoms: C_1  and  C_2
REMARK    2  A    between atoms: C_4  and  C_5
REMARK    3  A    between atoms: C_16  and  N_17
REMARK    4  A    between atoms: C_18  and  C_20
REMARK    5  A    between atoms: C_20  and  C_21
REMARK    6  A    between atoms: C_21  and  C_22
REMARK    7  A    between atoms: C_21  and  C_23
REMARK    8  A    between atoms: C_21  and  C_24
REMARK                            x       y       z     vdW  Elec       q    Type
REMARK                         _______ _______ _______ _____ _____    ______ ____
ROOT
ATOM      1  C   UNL     1      -0.359   9.603  23.125  0.00  0.00    +0.000 C 
ATOM      2  C   UNL     1       0.308   9.731  21.783  0.00  0.00    +0.000 A 
ATOM      3  C   UNL     1       0.965   8.575  21.308  0.00  0.00    +0.000 A 
ATOM      4  C   UNL     1       1.568   8.527  20.045  0.00  0.00    +0.000 A 
ATOM      5  C   UNL     1       1.512   9.654  19.233  0.00  0.00    +0.000 A 
ATOM      6  C   UNL     1       0.863  10.813  19.685  0.00  0.00    +0.000 A 
ATOM      7 CL   UNL     1       0.864  12.184  18.624  0.00  0.00    +0.000 Cl
ATOM      8  C   UNL     1       0.273  10.886  20.972  0.00  0.00    +0.000 A 
ENDROOT
BRANCH   4   9
ATOM      9  C   UNL     1       2.211   7.244  19.628  0.00  0.00    +0.000 C 
ATOM     10  O   UNL     1       2.666   7.180  18.495  0.00  0.00    +0.000 OA
ATOM     11  N   UNL     1       2.148   6.232  20.554  0.00  0.00    +0.000 N 
ATOM     12  C   UNL     1       2.651   4.983  20.279  0.00  0.00    +0.000 A 
ATOM     13  N   UNL     1       3.471   4.613  19.326  0.00  0.00    +0.000 NA
ATOM     14  C   UNL     1       3.649   3.245  19.390  0.00  0.00    +0.000 A 
ATOM     15  C   UNL     1       2.949   2.600  20.383  0.00  0.00    +0.000 A 
ATOM     16  S   UNL     1       2.108   3.758  21.334  0.00  0.00    +0.000 S 
ATOM     17  H   UNL     1       1.587   6.309  21.389  0.00  0.00    +0.000 HD
ENDBRANCH   4   9
BRANCH   8  18
ATOM     18  N   UNL     1      -0.395  12.102  21.361  0.00  0.00    +0.000 N 
ATOM     19  C   UNL     1      -1.678  12.391  20.899  0.00  0.00    +0.000 C 
ATOM     20  O   UNL     1      -2.265  11.699  20.078  0.00  0.00    +0.000 OA
ATOM     21  H   UNL     1      -0.238  12.390  22.323  0.00  0.00    +0.000 HD
BRANCH  19  22
ATOM     22  C   UNL     1      -2.363  13.646  21.479  0.00  0.00    +0.000 C 
BRANCH  22  23
ATOM     23  C   UNL     1      -3.458  13.332  22.529  0.00  0.00    +0.000 C 
ATOM     24  C   UNL     1      -3.007  12.182  23.450  0.00  0.00    +0.000 C 
ATOM     25  C   UNL     1      -3.776  14.564  23.408  0.00  0.00    +0.000 C 
ATOM     26  C   UNL     1      -4.756  12.928  21.822  0.00  0.00    +0.000 C 
ENDBRANCH  22  23
ENDBRANCH  19  22
ENDBRANCH   8  18
TORSDOF 4
ENDMDL
MODEL 7
REMARK VINA RESULT:      -6.6      3.422      9.105
REMARK  Name = 
REMARK  8 active torsions:
REMARK  status: ('A' for Active; 'I' for Inactive)
REMARK    1  A    between atoms: C_1  and  C_2
REMARK    2  A    between atoms: C_4  and  C_5
REMARK    3  A    between atoms: C_16  and  N_17
REMARK    4  A    between atoms: C_18  and  C_20
REMARK    5  A    between atoms: C_20  and  C_21
REMARK    6  A    between atoms: C_21  and  C_22
REMARK    7  A    between atoms: C_21  and  C_23
REMARK    8  A    between atoms: C_21  and  C_24
REMARK                            x       y       z     vdW  Elec       q    Type
REMARK                         _______ _______ _______ _____ _____    ______ ____
ROOT
ATOM      1  C   UNL     1       0.872  11.913  18.649  0.00  0.00    +0.000 C 
ATOM      2  C   UNL     1       0.755  10.812  19.669  0.00  0.00    +0.000 A 
ATOM      3  C   UNL     1       1.395   9.597  19.340  0.00  0.00    +0.000 A 
ATOM      4  C   UNL     1       1.428   8.511  20.224  0.00  0.00    +0.000 A 
ATOM      5  C   UNL     1       0.818   8.639  21.466  0.00  0.00    +0.000 A 
ATOM      6  C   UNL     1       0.178   9.838  21.813  0.00  0.00    +0.000 A 
ATOM      7 CL   UNL     1      -0.585   9.906  23.368  0.00  0.00    +0.000 Cl
ATOM      8  C   UNL     1       0.111  10.936  20.918  0.00  0.00    +0.000 A 
ENDROOT
BRANCH   4   9
ATOM      9  C   UNL     1       2.157   7.281  19.788  0.00  0.00    +0.000 C 
ATOM     10  O   UNL     1       2.700   7.302  18.693  0.00  0.00    +0.000 OA
ATOM     11  N   UNL     1       2.068   6.215  20.649  0.00  0.00    +0.000 N 
ATOM     12  C   UNL     1       2.645   5.005  20.346  0.00  0.00    +0.000 A 
ATOM     13  N   UNL     1       3.552   4.724  19.442  0.00  0.00    +0.000 NA
ATOM     14  C   UNL     1       3.784   3.363  19.444  0.00  0.00    +0.000 A 
ATOM     15  C   UNL     1       3.038   2.634  20.341  0.00  0.00    +0.000 A 
ATOM     16  S   UNL     1       2.077   3.700  21.285  0.00  0.00    +0.000 S 
ATOM     17  H   UNL     1       1.441   6.220  21.440  0.00  0.00    +0.000 HD
ENDBRANCH   4   9
BRANCH   8  18
ATOM     18  N   UNL     1      -0.545  12.145  21.350  0.00  0.00    +0.000 N 
ATOM     19  C   UNL     1      -1.805  12.485  20.864  0.00  0.00    +0.000 C 
ATOM     20  O   UNL     1      -2.380  11.851  19.990  0.00  0.00    +0.000 OA
ATOM     21  H   UNL     1      -0.412  12.379  22.330  0.00  0.00    +0.000 HD
BRANCH  19  22
ATOM     22  C   UNL     1      -2.484  13.724  21.488  0.00  0.00    +0.000 C 
BRANCH  22  23
ATOM     23  C   UNL     1      -3.613  13.379  22.491  0.00  0.00    +0.000 C 
ATOM     24  C   UNL     1      -3.983  14.617  23.332  0.00  0.00    +0.000 C 
ATOM     25  C   UNL     1      -4.885  12.882  21.769  0.00  0.00    +0.000 C 
ATOM     26  C   UNL     1      -3.150  12.258  23.427  0.00  0.00    +0.000 C 
ENDBRANCH  22  23
ENDBRANCH  19  22
ENDBRANCH   8  18
TORSDOF 4
ENDMDL
MODEL 8
REMARK VINA RESULT:      -6.5      3.336      9.184
REMARK  Name = 
REMARK  8 active torsions:
REMARK  status: ('A' for Active; 'I' for Inactive)
REMARK    1  A    between atoms: C_1  and  C_2
REMARK    2  A    between atoms: C_4  and  C_5
REMARK    3  A    between atoms: C_16  and  N_17
REMARK    4  A    between atoms: C_18  and  C_20
REMARK    5  A    between atoms: C_20  and  C_21
REMARK    6  A    between atoms: C_21  and  C_22
REMARK    7  A    between atoms: C_21  and  C_23
REMARK    8  A    between atoms: C_21  and  C_24
REMARK                            x       y       z     vdW  Elec       q    Type
REMARK                         _______ _______ _______ _____ _____    ______ ____
ROOT
ATOM      1  C   UNL     1      -0.472   9.263  22.917  0.00  0.00    +0.000 C 
ATOM      2  C   UNL     1       0.052   9.429  21.515  0.00  0.00    +0.000 A 
ATOM      3  C   UNL     1       0.954   8.438  21.072  0.00  0.00    +0.000 A 
ATOM      4  C   UNL     1       1.466   8.427  19.769  0.00  0.00    +0.000 A 
ATOM      5  C   UNL     1       1.067   9.421  18.884  0.00  0.00    +0.000 A 
ATOM      6  C   UNL     1       0.170  10.415  19.303  0.00  0.00    +0.000 A 
ATOM      7 CL   UNL     1      -0.255  11.636  18.148  0.00  0.00    +0.000 Cl
ATOM      8  C   UNL     1      -0.335  10.457  20.628  0.00  0.00    +0.000 A 
ENDROOT
BRANCH   4   9
ATOM      9  C   UNL     1       2.392   7.316  19.394  0.00  0.00    +0.000 C 
ATOM     10  O   UNL     1       3.048   7.446  18.371  0.00  0.00    +0.000 OA
ATOM     11  N   UNL     1       2.344   6.214  20.213  0.00  0.00    +0.000 N 
ATOM     12  C   UNL     1       3.102   5.099  19.951  0.00  0.00    +0.000 A 
ATOM     13  N   UNL     1       4.134   4.968  19.154  0.00  0.00    +0.000 NA
ATOM     14  C   UNL     1       4.538   3.648  19.152  0.00  0.00    +0.000 A 
ATOM     15  C   UNL     1       3.795   2.797  19.937  0.00  0.00    +0.000 A 
ATOM     16  S   UNL     1       2.604   3.698  20.786  0.00  0.00    +0.000 S 
ATOM     17  H   UNL     1       1.635   6.111  20.925  0.00  0.00    +0.000 HD
ENDBRANCH   4   9
BRANCH   8  18
ATOM     18  N   UNL     1      -1.270  11.495  20.982  0.00  0.00    +0.000 N 
ATOM     19  C   UNL     1      -0.845  12.634  21.663  0.00  0.00    +0.000 C 
ATOM     20  O   UNL     1       0.297  12.780  22.079  0.00  0.00    +0.000 OA
ATOM     21  H   UNL     1      -1.988  11.682  20.288  0.00  0.00    +0.000 HD
BRANCH  19  22
ATOM     22  C   UNL     1      -1.890  13.750  21.877  0.00  0.00    +0.000 C 
BRANCH  22  23
ATOM     23  C   UNL     1      -3.105  13.313  22.734  0.00  0.00    +0.000 C 
ATOM     24  C   UNL     1      -3.518  14.441  23.699  0.00  0.00    +0.000 C 
ATOM     25  C   UNL     1      -4.324  12.954  21.853  0.00  0.00    +0.000 C 
ATOM     26  C   UNL     1      -2.745  12.065  23.546  0.00  0.00    +0.000 C 
ENDBRANCH  22  23
ENDBRANCH  19  22
ENDBRANCH   8  18
TORSDOF 4
ENDMDL
MODEL 9
REMARK VINA RESULT:      -6.4      3.411      8.967
REMARK  Name = 
REMARK  8 active torsions:
REMARK  status: ('A' for Active; 'I' for Inactive)
REMARK    1  A    between atoms: C_1  and  C_2
REMARK    2  A    between atoms: C_4  and  C_5
REMARK    3  A    between atoms: C_16  and  N_17
REMARK    4  A    between atoms: C_18  and  C_20
REMARK    5  A    between atoms: C_20  and  C_21
REMARK    6  A    between atoms: C_21  and  C_22
REMARK    7  A    between atoms: C_21  and  C_23
REMARK    8  A    between atoms: C_21  and  C_24
REMARK                            x       y       z     vdW  Elec       q    Type
REMARK                         _______ _______ _______ _____ _____    ______ ____
ROOT
ATOM      1  C   UNL     1       1.276  11.474  18.557  0.00  0.00    +0.000 C 
ATOM      2  C   UNL     1       1.123  10.386  19.585  0.00  0.00    +0.000 A 
ATOM      3  C   UNL     1       1.663   9.129  19.238  0.00  0.00    +0.000 A 
ATOM      4  C   UNL     1       1.655   8.045  20.124  0.00  0.00    +0.000 A 
ATOM      5  C   UNL     1       1.103   8.216  21.388  0.00  0.00    +0.000 A 
ATOM      6  C   UNL     1       0.562   9.458  21.754  0.00  0.00    +0.000 A 
ATOM      7 CL   UNL     1      -0.134   9.581  23.337  0.00  0.00    +0.000 Cl
ATOM      8  C   UNL     1       0.537  10.557  20.858  0.00  0.00    +0.000 A 
ENDROOT
BRANCH   4   9
ATOM      9  C   UNL     1       2.279   6.766  19.666  0.00  0.00    +0.000 C 
ATOM     10  O   UNL     1       3.119   6.831  18.780  0.00  0.00    +0.000 OA
ATOM     11  N   UNL     1       1.773   5.629  20.246  0.00  0.00    +0.000 N 
ATOM     12  C   UNL     1       2.217   4.383  19.876  0.00  0.00    +0.000 A 
ATOM     13  N   UNL     1       3.296   4.054  19.209  0.00  0.00    +0.000 NA
ATOM     14  C   UNL     1       3.302   2.687  19.007  0.00  0.00    +0.000 A 
ATOM     15  C   UNL     1       2.220   2.007  19.513  0.00  0.00    +0.000 A 
ATOM     16  S   UNL     1       1.200   3.102  20.357  0.00  0.00    +0.000 S 
ATOM     17  H   UNL     1       0.948   5.651  20.827  0.00  0.00    +0.000 HD
ENDBRANCH   4   9
BRANCH   8  18
ATOM     18  N   UNL     1      -0.015  11.809  21.310  0.00  0.00    +0.000 N 
ATOM     19  C   UNL     1      -1.284  12.217  20.903  0.00  0.00    +0.000 C 
ATOM     20  O   UNL     1      -1.953  11.605  20.081  0.00  0.00    +0.000 OA
ATOM     21  H   UNL     1       0.197  12.049  22.275  0.00  0.00    +0.000 HD
BRANCH  19  22
ATOM     22  C   UNL     1      -1.844  13.503  21.547  0.00  0.00    +0.000 C 
BRANCH  22  23
ATOM     23  C   UNL     1      -3.016  13.251  22.529  0.00  0.00    +0.000 C 
ATOM     24  C   UNL     1      -2.747  11.994  23.378  0.00  0.00    +0.000 C 
ATOM     25  C   UNL     1      -3.227  14.448  23.484  0.00  0.00    +0.000 C 
ATOM     26  C   UNL     1      -4.318  13.057  21.744  0.00  0.00    +0.000 C 
ENDBRANCH  22  23
ENDBRANCH  19  22
ENDBRANCH   8  18
TORSDOF 4
ENDMDL
