MODEL 1
REMARK VINA RESULT:      -6.8      0.000      0.000
REMARK  Name = 
REMARK  7 active torsions:
REMARK  status: ('A' for Active; 'I' for Inactive)
REMARK    1  A    between atoms: C_1  and  O_2
REMARK    2  A    between atoms: O_2  and  C_3
REMARK    3  A    between atoms: C_7  and  O_8
REMARK    4  A    between atoms: O_8  and  C_9
REMARK    5  A    between atoms: C_9  and  C_10
REMARK    6  A    between atoms: C_10  and  N_11
REMARK    7  A    between atoms: C_13  and  C_14
REMARK                            x       y       z     vdW  Elec       q    Type
REMARK                         _______ _______ _______ _____ _____    ______ ____
ROOT
ATOM      1  C   UNL     1       3.911   2.795  17.411  0.00  0.00    +0.000 C 
ENDROOT
BRANCH   1   2
ATOM      2  N   UNL     1       4.810   3.910  17.072  0.00  0.00    +0.000 N 
ATOM      3  C   UNL     1       4.692   4.512  15.827  0.00  0.00    +0.000 A 
ATOM      4  C   UNL     1       5.996   4.864  15.561  0.00  0.00    +0.000 A 
ATOM      5  C   UNL     1       6.439   5.414  16.781  0.00  0.00    +0.000 A 
ATOM      6  C   UNL     1       7.458   6.332  17.117  0.00  0.00    +0.000 A 
ATOM      7  C   UNL     1       7.780   6.539  18.449  0.00  0.00    +0.000 A 
ATOM      8  C   UNL     1       7.152   5.777  19.430  0.00  0.00    +0.000 A 
ATOM      9  C   UNL     1       6.139   4.832  19.126  0.00  0.00    +0.000 A 
ATOM     10  C   UNL     1       5.748   4.682  17.775  0.00  0.00    +0.000 A 
BRANCH   4  11
ATOM     11  C   UNL     1       6.779   4.549  14.396  0.00  0.00    +0.000 C 
ATOM     12  O   UNL     1       6.394   3.796  13.505  0.00  0.00    +0.000 OA
ENDBRANCH   4  11
ENDBRANCH   1   2
BRANCH   1  13
ATOM     13  C   UNL     1       2.439   3.243  17.830  0.00  0.00    +0.000 C 
BRANCH  13  14
ATOM     14  O   UNL     1       2.398   3.861  19.139  0.00  0.00    +0.000 OA
BRANCH  14  19
ATOM     15  C   UNL     1       2.310   7.603  18.585  0.00  0.00    +0.000 A 
ATOM     16  C   UNL     1       1.875   7.970  19.877  0.00  0.00    +0.000 A 
ATOM     17  C   UNL     1       1.649   7.012  20.855  0.00  0.00    +0.000 A 
ATOM     18  C   UNL     1       1.843   5.655  20.548  0.00  0.00    +0.000 A 
ATOM     19  C   UNL     1       2.279   5.243  19.274  0.00  0.00    +0.000 A 
ATOM     20  C   UNL     1       2.514   6.226  18.301  0.00  0.00    +0.000 A 
BRANCH  15  22
ATOM     21  C   UNL     1       1.634   9.784  17.916  0.00  0.00    +0.000 C 
ATOM     22  O   UNL     1       2.503   8.675  17.762  0.00  0.00    +0.000 OA
ENDBRANCH  15  22
ENDBRANCH  14  19
ENDBRANCH  13  14
ENDBRANCH   1  13
TORSDOF 6
ENDMDL
MODEL 2
REMARK VINA RESULT:      -6.8      1.885      5.542
REMARK  Name = 
REMARK  7 active torsions:
REMARK  status: ('A' for Active; 'I' for Inactive)
REMARK    1  A    between atoms: C_1  and  O_2
REMARK    2  A    between atoms: O_2  and  C_3
REMARK    3  A    between atoms: C_7  and  O_8
REMARK    4  A    between atoms: O_8  and  C_9
REMARK    5  A    between atoms: C_9  and  C_10
REMARK    6  A    between atoms: C_10  and  N_11
REMARK    7  A    between atoms: C_13  and  C_14
REMARK                            x       y       z     vdW  Elec       q    Type
REMARK                         _______ _______ _______ _____ _____    ______ ____
ROOT
ATOM      1  C   UNL     1       3.291   3.685  16.932  0.00  0.00    +0.000 C 
ENDROOT
BRANCH   1   2
ATOM      2  N   UNL     1       3.015   4.384  18.198  0.00  0.00    +0.000 N 
ATOM      3  C   UNL     1       3.265   3.728  19.395  0.00  0.00    +0.000 A 
ATOM      4  C   UNL     1       2.276   4.238  20.206  0.00  0.00    +0.000 A 
ATOM      5  C   UNL     1       2.302   5.618  19.922  0.00  0.00    +0.000 A 
ATOM      6  C   UNL     1       1.906   6.764  20.644  0.00  0.00    +0.000 A 
ATOM      7  C   UNL     1       1.882   7.997  20.013  0.00  0.00    +0.000 A 
ATOM      8  C   UNL     1       2.170   8.073  18.653  0.00  0.00    +0.000 A 
ATOM      9  C   UNL     1       2.551   6.939  17.892  0.00  0.00    +0.000 A 
ATOM     10  C   UNL     1       2.660   5.694  18.555  0.00  0.00    +0.000 A 
BRANCH   4  11
ATOM     11  C   UNL     1       1.309   3.512  20.987  0.00  0.00    +0.000 C 
ATOM     12  O   UNL     1       1.437   2.330  21.294  0.00  0.00    +0.000 OA
ENDBRANCH   4  11
ENDBRANCH   1   2
BRANCH   1  13
ATOM     13  C   UNL     1       4.549   4.248  16.132  0.00  0.00    +0.000 C 
BRANCH  13  14
ATOM     14  O   UNL     1       5.799   4.006  16.822  0.00  0.00    +0.000 OA
BRANCH  14  19
ATOM     15  C   UNL     1       7.383   7.361  17.567  0.00  0.00    +0.000 A 
ATOM     16  C   UNL     1       8.108   6.971  18.713  0.00  0.00    +0.000 A 
ATOM     17  C   UNL     1       8.067   5.663  19.177  0.00  0.00    +0.000 A 
ATOM     18  C   UNL     1       7.279   4.718  18.500  0.00  0.00    +0.000 A 
ATOM     19  C   UNL     1       6.540   5.061  17.350  0.00  0.00    +0.000 A 
ATOM     20  C   UNL     1       6.603   6.384  16.890  0.00  0.00    +0.000 A 
BRANCH  15  22
ATOM     21  C   UNL     1       8.386   9.452  18.093  0.00  0.00    +0.000 C 
ATOM     22  O   UNL     1       7.558   8.676  17.245  0.00  0.00    +0.000 OA
ENDBRANCH  15  22
ENDBRANCH  14  19
ENDBRANCH  13  14
ENDBRANCH   1  13
TORSDOF 6
ENDMDL
MODEL 3
REMARK VINA RESULT:      -6.8      1.884      6.931
REMARK  Name = 
REMARK  7 active torsions:
REMARK  status: ('A' for Active; 'I' for Inactive)
REMARK    1  A    between atoms: C_1  and  O_2
REMARK    2  A    between atoms: O_2  and  C_3
REMARK    3  A    between atoms: C_7  and  O_8
REMARK    4  A    between atoms: O_8  and  C_9
REMARK    5  A    between atoms: C_9  and  C_10
REMARK    6  A    between atoms: C_10  and  N_11
REMARK    7  A    between atoms: C_13  and  C_14
REMARK                            x       y       z     vdW  Elec       q    Type
REMARK                         _______ _______ _______ _____ _____    ______ ____
ROOT
ATOM      1  C   UNL     1       6.236   5.134  18.268  0.00  0.00    +0.000 C 
ENDROOT
BRANCH   1   2
ATOM      2  N   UNL     1       4.766   5.063  18.254  0.00  0.00    +0.000 N 
ATOM      3  C   UNL     1       4.040   6.219  18.006  0.00  0.00    +0.000 A 
ATOM      4  C   UNL     1       2.916   6.016  18.775  0.00  0.00    +0.000 A 
ATOM      5  C   UNL     1       2.578   4.675  18.506  0.00  0.00    +0.000 A 
ATOM      6  C   UNL     1       1.371   3.946  18.581  0.00  0.00    +0.000 A 
ATOM      7  C   UNL     1       1.392   2.569  18.430  0.00  0.00    +0.000 A 
ATOM      8  C   UNL     1       2.613   1.917  18.288  0.00  0.00    +0.000 A 
ATOM      9  C   UNL     1       3.846   2.615  18.229  0.00  0.00    +0.000 A 
ATOM     10  C   UNL     1       3.819   4.028  18.297  0.00  0.00    +0.000 A 
BRANCH   4  11
ATOM     11  C   UNL     1       2.356   6.889  19.772  0.00  0.00    +0.000 C 
ATOM     12  O   UNL     1       1.983   8.035  19.536  0.00  0.00    +0.000 OA
ENDBRANCH   4  11
ENDBRANCH   1   2
BRANCH   1  13
ATOM     13  C   UNL     1       6.922   4.836  16.860  0.00  0.00    +0.000 C 
BRANCH  13  14
ATOM     14  O   UNL     1       6.077   5.203  15.743  0.00  0.00    +0.000 OA
BRANCH  14  19
ATOM     15  C   UNL     1       5.966   3.349  12.446  0.00  0.00    +0.000 A 
ATOM     16  C   UNL     1       7.076   3.980  11.844  0.00  0.00    +0.000 A 
ATOM     17  C   UNL     1       7.806   4.947  12.521  0.00  0.00    +0.000 A 
ATOM     18  C   UNL     1       7.424   5.310  13.823  0.00  0.00    +0.000 A 
ATOM     19  C   UNL     1       6.325   4.706  14.465  0.00  0.00    +0.000 A 
ATOM     20  C   UNL     1       5.606   3.723  13.769  0.00  0.00    +0.000 A 
BRANCH  15  22
ATOM     21  C   UNL     1       6.187   1.325  11.216  0.00  0.00    +0.000 C 
ATOM     22  O   UNL     1       5.383   2.411  11.644  0.00  0.00    +0.000 OA
ENDBRANCH  15  22
ENDBRANCH  14  19
ENDBRANCH  13  14
ENDBRANCH   1  13
TORSDOF 6
ENDMDL
MODEL 4
REMARK VINA RESULT:      -6.6      1.206      1.658
REMARK  Name = 
REMARK  7 active torsions:
REMARK  status: ('A' for Active; 'I' for Inactive)
REMARK    1  A    between atoms: C_1  and  O_2
REMARK    2  A    between atoms: O_2  and  C_3
REMARK    3  A    between atoms: C_7  and  O_8
REMARK    4  A    between atoms: O_8  and  C_9
REMARK    5  A    between atoms: C_9  and  C_10
REMARK    6  A    between atoms: C_10  and  N_11
REMARK    7  A    between atoms: C_13  and  C_14
REMARK                            x       y       z     vdW  Elec       q    Type
REMARK                         _______ _______ _______ _____ _____    ______ ____
ROOT
ATOM      1  C   UNL     1       4.008   3.104  17.477  0.00  0.00    +0.000 C 
ENDROOT
BRANCH   1   2
ATOM      2  N   UNL     1       4.922   4.215  17.166  0.00  0.00    +0.000 N 
ATOM      3  C   UNL     1       4.765   4.897  15.968  0.00  0.00    +0.000 A 
ATOM      4  C   UNL     1       6.066   5.233  15.664  0.00  0.00    +0.000 A 
ATOM      5  C   UNL     1       6.577   5.694  16.894  0.00  0.00    +0.000 A 
ATOM      6  C   UNL     1       7.635   6.562  17.239  0.00  0.00    +0.000 A 
ATOM      7  C   UNL     1       8.022   6.677  18.564  0.00  0.00    +0.000 A 
ATOM      8  C   UNL     1       7.417   5.871  19.524  0.00  0.00    +0.000 A 
ATOM      9  C   UNL     1       6.366   4.972  19.210  0.00  0.00    +0.000 A 
ATOM     10  C   UNL     1       5.911   4.918  17.871  0.00  0.00    +0.000 A 
BRANCH   4  11
ATOM     11  C   UNL     1       6.786   4.972  14.446  0.00  0.00    +0.000 C 
ATOM     12  O   UNL     1       7.947   5.327  14.257  0.00  0.00    +0.000 OA
ENDBRANCH   4  11
ENDBRANCH   1   2
BRANCH   1  13
ATOM     13  C   UNL     1       2.632   3.553  18.145  0.00  0.00    +0.000 C 
BRANCH  13  14
ATOM     14  O   UNL     1       2.827   4.303  19.368  0.00  0.00    +0.000 OA
BRANCH  14  19
ATOM     15  C   UNL     1       1.547   7.663  20.546  0.00  0.00    +0.000 A 
ATOM     16  C   UNL     1       1.721   8.361  19.331  0.00  0.00    +0.000 A 
ATOM     17  C   UNL     1       2.220   7.725  18.204  0.00  0.00    +0.000 A 
ATOM     18  C   UNL     1       2.569   6.367  18.279  0.00  0.00    +0.000 A 
ATOM     19  C   UNL     1       2.410   5.628  19.468  0.00  0.00    +0.000 A 
ATOM     20  C   UNL     1       1.894   6.286  20.594  0.00  0.00    +0.000 A 
BRANCH  15  22
ATOM     21  C   UNL     1       0.871   9.824  21.276  0.00  0.00    +0.000 C 
ATOM     22  O   UNL     1       1.026   8.440  21.540  0.00  0.00    +0.000 OA
ENDBRANCH  15  22
ENDBRANCH  14  19
ENDBRANCH  13  14
ENDBRANCH   1  13
TORSDOF 6
ENDMDL
MODEL 5
REMARK VINA RESULT:      -6.5      0.936      1.060
REMARK  Name = 
REMARK  7 active torsions:
REMARK  status: ('A' for Active; 'I' for Inactive)
REMARK    1  A    between atoms: C_1  and  O_2
REMARK    2  A    between atoms: O_2  and  C_3
REMARK    3  A    between atoms: C_7  and  O_8
REMARK    4  A    between atoms: O_8  and  C_9
REMARK    5  A    between atoms: C_9  and  C_10
REMARK    6  A    between atoms: C_10  and  N_11
REMARK    7  A    between atoms: C_13  and  C_14
REMARK                            x       y       z     vdW  Elec       q    Type
REMARK                         _______ _______ _______ _____ _____    ______ ____
ROOT
ATOM      1  C   UNL     1       4.167   2.817  17.243  0.00  0.00    +0.000 C 
ENDROOT
BRANCH   1   2
ATOM      2  N   UNL     1       5.004   3.995  16.963  0.00  0.00    +0.000 N 
ATOM      3  C   UNL     1       4.857   4.649  15.748  0.00  0.00    +0.000 A 
ATOM      4  C   UNL     1       6.140   5.085  15.506  0.00  0.00    +0.000 A 
ATOM      5  C   UNL     1       6.547   5.599  16.753  0.00  0.00    +0.000 A 
ATOM      6  C   UNL     1       7.513   6.554  17.139  0.00  0.00    +0.000 A 
ATOM      7  C   UNL     1       7.819   6.715  18.480  0.00  0.00    +0.000 A 
ATOM      8  C   UNL     1       7.231   5.873  19.420  0.00  0.00    +0.000 A 
ATOM      9  C   UNL     1       6.273   4.889  19.066  0.00  0.00    +0.000 A 
ATOM     10  C   UNL     1       5.895   4.783  17.707  0.00  0.00    +0.000 A 
BRANCH   4  11
ATOM     11  C   UNL     1       6.942   4.870  14.331  0.00  0.00    +0.000 C 
ATOM     12  O   UNL     1       7.926   5.549  14.050  0.00  0.00    +0.000 OA
ENDBRANCH   4  11
ENDBRANCH   1   2
BRANCH   1  13
ATOM     13  C   UNL     1       2.643   2.974  16.803  0.00  0.00    +0.000 C 
BRANCH  13  14
ATOM     14  O   UNL     1       1.762   3.211  17.927  0.00  0.00    +0.000 OA
BRANCH  14  19
ATOM     15  C   UNL     1       2.216   6.747  19.194  0.00  0.00    +0.000 A 
ATOM     16  C   UNL     1       2.011   6.478  20.565  0.00  0.00    +0.000 A 
ATOM     17  C   UNL     1       1.754   5.190  21.012  0.00  0.00    +0.000 A 
ATOM     18  C   UNL     1       1.686   4.140  20.082  0.00  0.00    +0.000 A 
ATOM     19  C   UNL     1       1.887   4.360  18.705  0.00  0.00    +0.000 A 
ATOM     20  C   UNL     1       2.156   5.666  18.273  0.00  0.00    +0.000 A 
BRANCH  15  22
ATOM     21  C   UNL     1       2.091   8.573  17.675  0.00  0.00    +0.000 C 
ATOM     22  O   UNL     1       2.477   8.062  18.940  0.00  0.00    +0.000 OA
ENDBRANCH  15  22
ENDBRANCH  14  19
ENDBRANCH  13  14
ENDBRANCH   1  13
TORSDOF 6
ENDMDL
MODEL 6
REMARK VINA RESULT:      -6.5      4.383      6.699
REMARK  Name = 
REMARK  7 active torsions:
REMARK  status: ('A' for Active; 'I' for Inactive)
REMARK    1  A    between atoms: C_1  and  O_2
REMARK    2  A    between atoms: O_2  and  C_3
REMARK    3  A    between atoms: C_7  and  O_8
REMARK    4  A    between atoms: O_8  and  C_9
REMARK    5  A    between atoms: C_9  and  C_10
REMARK    6  A    between atoms: C_10  and  N_11
REMARK    7  A    between atoms: C_13  and  C_14
REMARK                            x       y       z     vdW  Elec       q    Type
REMARK                         _______ _______ _______ _____ _____    ______ ____
ROOT
ATOM      1  C   UNL     1       6.670   8.307  17.652  0.00  0.00    +0.000 C 
ENDROOT
BRANCH   1   2
ATOM      2  N   UNL     1       6.281   6.907  17.419  0.00  0.00    +0.000 N 
ATOM      3  C   UNL     1       7.273   5.967  17.175  0.00  0.00    +0.000 A 
ATOM      4  C   UNL     1       6.636   5.106  16.310  0.00  0.00    +0.000 A 
ATOM      5  C   UNL     1       5.368   4.932  16.900  0.00  0.00    +0.000 A 
ATOM      6  C   UNL     1       4.396   3.911  16.827  0.00  0.00    +0.000 A 
ATOM      7  C   UNL     1       3.144   4.116  17.383  0.00  0.00    +0.000 A 
ATOM      8  C   UNL     1       2.837   5.358  17.932  0.00  0.00    +0.000 A 
ATOM      9  C   UNL     1       3.781   6.413  18.004  0.00  0.00    +0.000 A 
ATOM     10  C   UNL     1       5.088   6.175  17.514  0.00  0.00    +0.000 A 
BRANCH   4  11
ATOM     11  C   UNL     1       7.078   4.665  15.013  0.00  0.00    +0.000 C 
ATOM     12  O   UNL     1       7.629   5.401  14.200  0.00  0.00    +0.000 OA
ENDBRANCH   4  11
ENDBRANCH   1   2
BRANCH   1  13
ATOM     13  C   UNL     1       8.244   8.557  17.675  0.00  0.00    +0.000 C 
BRANCH  13  14
ATOM     14  O   UNL     1       8.707   9.065  18.949  0.00  0.00    +0.000 OA
BRANCH  14  19
ATOM     15  C   UNL     1      10.091  12.524  18.287  0.00  0.00    +0.000 A 
ATOM     16  C   UNL     1      10.408  12.853  19.623  0.00  0.00    +0.000 A 
ATOM     17  C   UNL     1      10.178  11.955  20.656  0.00  0.00    +0.000 A 
ATOM     18  C   UNL     1       9.610  10.704  20.367  0.00  0.00    +0.000 A 
ATOM     19  C   UNL     1       9.281  10.331  19.049  0.00  0.00    +0.000 A 
ATOM     20  C   UNL     1       9.530  11.247  18.016  0.00  0.00    +0.000 A 
BRANCH  15  22
ATOM     21  C   UNL     1      11.610  13.383  16.671  0.00  0.00    +0.000 C 
ATOM     22  O   UNL     1      10.404  13.516  17.403  0.00  0.00    +0.000 OA
ENDBRANCH  15  22
ENDBRANCH  14  19
ENDBRANCH  13  14
ENDBRANCH   1  13
TORSDOF 6
ENDMDL
MODEL 7
REMARK VINA RESULT:      -6.5      1.987      3.407
REMARK  Name = 
REMARK  7 active torsions:
REMARK  status: ('A' for Active; 'I' for Inactive)
REMARK    1  A    between atoms: C_1  and  O_2
REMARK    2  A    between atoms: O_2  and  C_3
REMARK    3  A    between atoms: C_7  and  O_8
REMARK    4  A    between atoms: O_8  and  C_9
REMARK    5  A    between atoms: C_9  and  C_10
REMARK    6  A    between atoms: C_10  and  N_11
REMARK    7  A    between atoms: C_13  and  C_14
REMARK                            x       y       z     vdW  Elec       q    Type
REMARK                         _______ _______ _______ _____ _____    ______ ____
ROOT
ATOM      1  C   UNL     1       4.970   4.707  19.447  0.00  0.00    +0.000 C 
ENDROOT
BRANCH   1   2
ATOM      2  N   UNL     1       5.917   5.025  18.366  0.00  0.00    +0.000 N 
ATOM      3  C   UNL     1       7.115   5.647  18.684  0.00  0.00    +0.000 A 
ATOM      4  C   UNL     1       7.331   6.428  17.571  0.00  0.00    +0.000 A 
ATOM      5  C   UNL     1       7.032   5.559  16.503  0.00  0.00    +0.000 A 
ATOM      6  C   UNL     1       7.425   5.519  15.147  0.00  0.00    +0.000 A 
ATOM      7  C   UNL     1       6.805   4.634  14.281  0.00  0.00    +0.000 A 
ATOM      8  C   UNL     1       5.747   3.856  14.742  0.00  0.00    +0.000 A 
ATOM      9  C   UNL     1       5.312   3.885  16.092  0.00  0.00    +0.000 A 
ATOM     10  C   UNL     1       6.002   4.726  16.998  0.00  0.00    +0.000 A 
BRANCH   4  11
ATOM     11  C   UNL     1       7.585   7.843  17.518  0.00  0.00    +0.000 C 
ATOM     12  O   UNL     1       8.328   8.428  18.302  0.00  0.00    +0.000 OA
ENDBRANCH   4  11
ENDBRANCH   1   2
BRANCH   1  13
ATOM     13  C   UNL     1       3.457   4.549  18.970  0.00  0.00    +0.000 C 
BRANCH  13  14
ATOM     14  O   UNL     1       3.015   5.656  18.148  0.00  0.00    +0.000 OA
BRANCH  14  19
ATOM     15  C   UNL     1       1.573   8.237  20.510  0.00  0.00    +0.000 A 
ATOM     16  C   UNL     1       1.321   9.242  19.552  0.00  0.00    +0.000 A 
ATOM     17  C   UNL     1       1.610   9.041  18.209  0.00  0.00    +0.000 A 
ATOM     18  C   UNL     1       2.172   7.820  17.802  0.00  0.00    +0.000 A 
ATOM     19  C   UNL     1       2.438   6.787  18.722  0.00  0.00    +0.000 A 
ATOM     20  C   UNL     1       2.130   7.004  20.073  0.00  0.00    +0.000 A 
BRANCH  15  22
ATOM     21  C   UNL     1      -0.119   9.059  21.966  0.00  0.00    +0.000 C 
ATOM     22  O   UNL     1       1.208   8.599  21.775  0.00  0.00    +0.000 OA
ENDBRANCH  15  22
ENDBRANCH  14  19
ENDBRANCH  13  14
ENDBRANCH   1  13
TORSDOF 6
ENDMDL
MODEL 8
REMARK VINA RESULT:      -6.4      2.569      4.538
REMARK  Name = 
REMARK  7 active torsions:
REMARK  status: ('A' for Active; 'I' for Inactive)
REMARK    1  A    between atoms: C_1  and  O_2
REMARK    2  A    between atoms: O_2  and  C_3
REMARK    3  A    between atoms: C_7  and  O_8
REMARK    4  A    between atoms: O_8  and  C_9
REMARK    5  A    between atoms: C_9  and  C_10
REMARK    6  A    between atoms: C_10  and  N_11
REMARK    7  A    between atoms: C_13  and  C_14
REMARK                            x       y       z     vdW  Elec       q    Type
REMARK                         _______ _______ _______ _____ _____    ______ ____
ROOT
ATOM      1  C   UNL     1       3.546   7.582  17.474  0.00  0.00    +0.000 C 
ENDROOT
BRANCH   1   2
ATOM      2  N   UNL     1       3.913   6.170  17.669  0.00  0.00    +0.000 N 
ATOM      3  C   UNL     1       5.232   5.853  17.958  0.00  0.00    +0.000 A 
ATOM      4  C   UNL     1       5.369   4.630  17.339  0.00  0.00    +0.000 A 
ATOM      5  C   UNL     1       4.189   3.950  17.699  0.00  0.00    +0.000 A 
ATOM      6  C   UNL     1       3.849   2.584  17.799  0.00  0.00    +0.000 A 
ATOM      7  C   UNL     1       2.528   2.220  18.001  0.00  0.00    +0.000 A 
ATOM      8  C   UNL     1       1.543   3.204  18.019  0.00  0.00    +0.000 A 
ATOM      9  C   UNL     1       1.846   4.584  17.900  0.00  0.00    +0.000 A 
ATOM     10  C   UNL     1       3.204   4.963  17.781  0.00  0.00    +0.000 A 
BRANCH   4  11
ATOM     11  C   UNL     1       6.367   4.228  16.384  0.00  0.00    +0.000 C 
ATOM     12  O   UNL     1       7.545   4.571  16.450  0.00  0.00    +0.000 OA
ENDBRANCH   4  11
ENDBRANCH   1   2
BRANCH   1  13
ATOM     13  C   UNL     1       2.370   8.092  18.422  0.00  0.00    +0.000 C 
BRANCH  13  14
ATOM     14  O   UNL     1       1.392   8.889  17.712  0.00  0.00    +0.000 OA
BRANCH  14  19
ATOM     15  C   UNL     1      -1.567  10.984  18.795  0.00  0.00    +0.000 A 
ATOM     16  C   UNL     1      -1.124  11.264  20.106  0.00  0.00    +0.000 A 
ATOM     17  C   UNL     1       0.094  10.785  20.568  0.00  0.00    +0.000 A 
ATOM     18  C   UNL     1       0.891   9.999  19.719  0.00  0.00    +0.000 A 
ATOM     19  C   UNL     1       0.491   9.697  18.403  0.00  0.00    +0.000 A 
ATOM     20  C   UNL     1      -0.738  10.198  17.950  0.00  0.00    +0.000 A 
BRANCH  15  22
ATOM     21  C   UNL     1      -3.302  11.343  17.207  0.00  0.00    +0.000 C 
ATOM     22  O   UNL     1      -2.775  11.552  18.506  0.00  0.00    +0.000 OA
ENDBRANCH  15  22
ENDBRANCH  14  19
ENDBRANCH  13  14
ENDBRANCH   1  13
TORSDOF 6
ENDMDL
MODEL 9
REMARK VINA RESULT:      -6.4      2.509      4.218
REMARK  Name = 
REMARK  7 active torsions:
REMARK  status: ('A' for Active; 'I' for Inactive)
REMARK    1  A    between atoms: C_1  and  O_2
REMARK    2  A    between atoms: O_2  and  C_3
REMARK    3  A    between atoms: C_7  and  O_8
REMARK    4  A    between atoms: O_8  and  C_9
REMARK    5  A    between atoms: C_9  and  C_10
REMARK    6  A    between atoms: C_10  and  N_11
REMARK    7  A    between atoms: C_13  and  C_14
REMARK                            x       y       z     vdW  Elec       q    Type
REMARK                         _______ _______ _______ _____ _____    ______ ____
ROOT
ATOM      1  C   UNL     1       3.398   7.782  17.598  0.00  0.00    +0.000 C 
ENDROOT
BRANCH   1   2
ATOM      2  N   UNL     1       3.814   6.374  17.710  0.00  0.00    +0.000 N 
ATOM      3  C   UNL     1       5.151   6.086  17.943  0.00  0.00    +0.000 A 
ATOM      4  C   UNL     1       5.307   4.901  17.259  0.00  0.00    +0.000 A 
ATOM      5  C   UNL     1       4.160   4.166  17.620  0.00  0.00    +0.000 A 
ATOM      6  C   UNL     1       3.866   2.786  17.660  0.00  0.00    +0.000 A 
ATOM      7  C   UNL     1       2.563   2.370  17.883  0.00  0.00    +0.000 A 
ATOM      8  C   UNL     1       1.550   3.319  17.980  0.00  0.00    +0.000 A 
ATOM      9  C   UNL     1       1.806   4.713  17.923  0.00  0.00    +0.000 A 
ATOM     10  C   UNL     1       3.147   5.141  17.782  0.00  0.00    +0.000 A 
BRANCH   4  11
ATOM     11  C   UNL     1       6.286   4.579  16.255  0.00  0.00    +0.000 C 
ATOM     12  O   UNL     1       7.496   4.577  16.466  0.00  0.00    +0.000 OA
ENDBRANCH   4  11
ENDBRANCH   1   2
BRANCH   1  13
ATOM     13  C   UNL     1       1.961   8.092  18.214  0.00  0.00    +0.000 C 
BRANCH  13  14
ATOM     14  O   UNL     1       1.953   8.032  19.661  0.00  0.00    +0.000 OA
BRANCH  14  19
ATOM     15  C   UNL     1      -0.450  10.710  20.833  0.00  0.00    +0.000 A 
ATOM     16  C   UNL     1      -0.416  10.397  22.209  0.00  0.00    +0.000 A 
ATOM     17  C   UNL     1       0.378   9.365  22.690  0.00  0.00    +0.000 A 
ATOM     18  C   UNL     1       1.149   8.613  21.789  0.00  0.00    +0.000 A 
ATOM     19  C   UNL     1       1.149   8.891  20.408  0.00  0.00    +0.000 A 
ATOM     20  C   UNL     1       0.349   9.944  19.942  0.00  0.00    +0.000 A 
BRANCH  15  22
ATOM     21  C   UNL     1      -1.957  11.739  19.307  0.00  0.00    +0.000 C 
ATOM     22  O   UNL     1      -1.266  11.765  20.544  0.00  0.00    +0.000 OA
ENDBRANCH  15  22
ENDBRANCH  14  19
ENDBRANCH  13  14
ENDBRANCH   1  13
TORSDOF 6
ENDMDL
