MODEL 1
REMARK VINA RESULT:      -6.6      0.000      0.000
REMARK  Name = 
REMARK  2 active torsions:
REMARK  status: ('A' for Active; 'I' for Inactive)
REMARK    1  A    between atoms: C_1  and  C_2
REMARK    2  A    between atoms: C_13  and  C_15
REMARK                            x       y       z     vdW  Elec       q    Type
REMARK                         _______ _______ _______ _____ _____    ______ ____
ROOT
ATOM      1  C   UNL     1      -1.296  15.907  25.338  0.00  0.00    +0.000 C 
ATOM      2  C   UNL     1      -1.175  14.995  24.163  0.00  0.00    +0.000 A 
ATOM      3  C   UNL     1      -2.191  14.149  23.754  0.00  0.00    +0.000 A 
ATOM      4  C   UNL     1      -2.016  13.372  22.606  0.00  0.00    +0.000 A 
ATOM      5  C   UNL     1      -0.812  13.414  21.925  0.00  0.00    +0.000 A 
ATOM      6  N   UNL     1      -0.504  12.589  20.866  0.00  0.00    +0.000 N 
ATOM      7  C   UNL     1       0.907  12.249  20.729  0.00  0.00    +0.000 C 
ATOM      8  C   UNL     1       1.067  10.766  21.047  0.00  0.00    +0.000 C 
ATOM      9  C   UNL     1       0.225   9.879  20.097  0.00  0.00    +0.000 C 
ATOM     10  C   UNL     1       0.706   9.985  18.624  0.00  0.00    +0.000 C 
ATOM     11  C   UNL     1       2.115   9.427  18.426  0.00  0.00    +0.000 C 
ATOM     12  N   UNL     1       2.206   8.056  18.920  0.00  0.00    +0.000 N 
ATOM     13  C   UNL     1       3.047   7.177  18.219  0.00  0.00    +0.000 C 
ATOM     14  O   UNL     1       3.714   7.544  17.254  0.00  0.00    +0.000 OA
ATOM     15  C   UNL     1       1.791   7.881  20.315  0.00  0.00    +0.000 C 
ATOM     16  C   UNL     1       0.365   8.395  20.520  0.00  0.00    +0.000 C 
ATOM     17  C   UNL     1      -1.257  10.331  20.222  0.00  0.00    +0.000 C 
ATOM     18  C   UNL     1      -1.449  11.845  20.042  0.00  0.00    +0.000 C 
ATOM     19  N   UNL     1       0.135  14.278  22.362  0.00  0.00    +0.000 NA
ATOM     20  N   UNL     1      -0.037  15.076  23.463  0.00  0.00    +0.000 NA
ENDROOT
BRANCH  13  21
ATOM     21  C   UNL     1       3.100   5.782  18.643  0.00  0.00    +0.000 A 
ATOM     22  C   UNL     1       2.225   4.678  18.422  0.00  0.00    +0.000 A 
ATOM     23  C   UNL     1       2.757   3.609  19.104  0.00  0.00    +0.000 A 
ATOM     24  O   UNL     1       3.948   3.949  19.655  0.00  0.00    +0.000 OA
ATOM     25  C   UNL     1       4.166   5.251  19.343  0.00  0.00    +0.000 A 
ENDBRANCH  13  21
TORSDOF 1
ENDMDL
MODEL 2
REMARK VINA RESULT:      -6.4      2.021      2.175
REMARK  Name = 
REMARK  2 active torsions:
REMARK  status: ('A' for Active; 'I' for Inactive)
REMARK    1  A    between atoms: C_1  and  C_2
REMARK    2  A    between atoms: C_13  and  C_15
REMARK                            x       y       z     vdW  Elec       q    Type
REMARK                         _______ _______ _______ _____ _____    ______ ____
ROOT
ATOM      1  C   UNL     1       0.188  18.012  21.735  0.00  0.00    +0.000 C 
ATOM      2  C   UNL     1       0.099  16.707  21.018  0.00  0.00    +0.000 A 
ATOM      3  C   UNL     1      -1.059  15.952  20.961  0.00  0.00    +0.000 A 
ATOM      4  C   UNL     1      -1.072  14.770  20.216  0.00  0.00    +0.000 A 
ATOM      5  C   UNL     1       0.085  14.339  19.592  0.00  0.00    +0.000 A 
ATOM      6  N   UNL     1       0.202  13.126  18.949  0.00  0.00    +0.000 N 
ATOM      7  C   UNL     1       1.531  12.528  18.978  0.00  0.00    +0.000 C 
ATOM      8  C   UNL     1       1.468  11.284  19.858  0.00  0.00    +0.000 C 
ATOM      9  C   UNL     1       0.446  10.251  19.323  0.00  0.00    +0.000 C 
ATOM     10  C   UNL     1       0.858   9.689  17.935  0.00  0.00    +0.000 C 
ATOM     11  C   UNL     1       2.148   8.871  17.994  0.00  0.00    +0.000 C 
ATOM     12  N   UNL     1       2.045   7.808  18.991  0.00  0.00    +0.000 N 
ATOM     13  C   UNL     1       2.696   6.598  18.707  0.00  0.00    +0.000 C 
ATOM     14  O   UNL     1       3.361   6.440  17.685  0.00  0.00    +0.000 OA
ATOM     15  C   UNL     1       1.682   8.266  20.335  0.00  0.00    +0.000 C 
ATOM     16  C   UNL     1       0.368   9.051  20.299  0.00  0.00    +0.000 C 
ATOM     17  C   UNL     1      -0.936  10.958  19.238  0.00  0.00    +0.000 C 
ATOM     18  C   UNL     1      -0.893  12.289  18.472  0.00  0.00    +0.000 C 
ATOM     19  N   UNL     1       1.180  15.133  19.666  0.00  0.00    +0.000 NA
ATOM     20  N   UNL     1       1.196  16.314  20.360  0.00  0.00    +0.000 NA
ENDROOT
BRANCH  13  21
ATOM     21  C   UNL     1       2.547   5.492  19.648  0.00  0.00    +0.000 A 
ATOM     22  C   UNL     1       1.518   5.153  20.575  0.00  0.00    +0.000 A 
ATOM     23  C   UNL     1       1.939   4.023  21.235  0.00  0.00    +0.000 A 
ATOM     24  O   UNL     1       3.112   3.585  20.716  0.00  0.00    +0.000 OA
ATOM     25  C   UNL     1       3.456   4.456  19.735  0.00  0.00    +0.000 A 
ENDBRANCH  13  21
TORSDOF 1
ENDMDL
MODEL 3
REMARK VINA RESULT:      -6.0      3.814      9.630
REMARK  Name = 
REMARK  2 active torsions:
REMARK  status: ('A' for Active; 'I' for Inactive)
REMARK    1  A    between atoms: C_1  and  C_2
REMARK    2  A    between atoms: C_13  and  C_15
REMARK                            x       y       z     vdW  Elec       q    Type
REMARK                         _______ _______ _______ _____ _____    ______ ____
ROOT
ATOM      1  C   UNL     1       8.053   4.782  13.192  0.00  0.00    +0.000 C 
ATOM      2  C   UNL     1       7.048   4.961  14.280  0.00  0.00    +0.000 A 
ATOM      3  C   UNL     1       5.822   4.318  14.291  0.00  0.00    +0.000 A 
ATOM      4  C   UNL     1       4.964   4.495  15.380  0.00  0.00    +0.000 A 
ATOM      5  C   UNL     1       5.325   5.352  16.404  0.00  0.00    +0.000 A 
ATOM      6  N   UNL     1       4.490   5.689  17.448  0.00  0.00    +0.000 N 
ATOM      7  C   UNL     1       4.684   7.026  17.997  0.00  0.00    +0.000 C 
ATOM      8  C   UNL     1       3.458   7.862  17.644  0.00  0.00    +0.000 C 
ATOM      9  C   UNL     1       2.158   7.248  18.219  0.00  0.00    +0.000 C 
ATOM     10  C   UNL     1       2.154   7.242  19.772  0.00  0.00    +0.000 C 
ATOM     11  C   UNL     1       2.138   8.652  20.363  0.00  0.00    +0.000 C 
ATOM     12  N   UNL     1       1.021   9.427  19.830  0.00  0.00    +0.000 N 
ATOM     13  C   UNL     1       0.406  10.343  20.697  0.00  0.00    +0.000 C 
ATOM     14  O   UNL     1       0.806  10.524  21.845  0.00  0.00    +0.000 OA
ATOM     15  C   UNL     1       0.972   9.499  18.366  0.00  0.00    +0.000 C 
ATOM     16  C   UNL     1       0.943   8.094  17.761  0.00  0.00    +0.000 C 
ATOM     17  C   UNL     1       2.037   5.800  17.667  0.00  0.00    +0.000 C 
ATOM     18  C   UNL     1       3.305   4.959  17.881  0.00  0.00    +0.000 C 
ATOM     19  N   UNL     1       6.546   5.934  16.347  0.00  0.00    +0.000 NA
ATOM     20  N   UNL     1       7.414   5.739  15.305  0.00  0.00    +0.000 NA
ENDROOT
BRANCH  13  21
ATOM     21  C   UNL     1      -0.761  11.077  20.216  0.00  0.00    +0.000 A 
ATOM     22  C   UNL     1      -1.625  10.880  19.100  0.00  0.00    +0.000 A 
ATOM     23  C   UNL     1      -2.532  11.914  19.115  0.00  0.00    +0.000 A 
ATOM     24  O   UNL     1      -2.347  12.685  20.215  0.00  0.00    +0.000 OA
ATOM     25  C   UNL     1      -1.300  12.153  20.893  0.00  0.00    +0.000 A 
ENDBRANCH  13  21
TORSDOF 1
ENDMDL
MODEL 4
REMARK VINA RESULT:      -5.8      0.994      1.036
REMARK  Name = 
REMARK  2 active torsions:
REMARK  status: ('A' for Active; 'I' for Inactive)
REMARK    1  A    between atoms: C_1  and  C_2
REMARK    2  A    between atoms: C_13  and  C_15
REMARK                            x       y       z     vdW  Elec       q    Type
REMARK                         _______ _______ _______ _____ _____    ______ ____
ROOT
ATOM      1  C   UNL     1      -1.017  16.753  25.721  0.00  0.00    +0.000 C 
ATOM      2  C   UNL     1      -1.020  15.859  24.527  0.00  0.00    +0.000 A 
ATOM      3  C   UNL     1      -2.104  15.075  24.171  0.00  0.00    +0.000 A 
ATOM      4  C   UNL     1      -2.045  14.311  23.002  0.00  0.00    +0.000 A 
ATOM      5  C   UNL     1      -0.886  14.304  22.246  0.00  0.00    +0.000 A 
ATOM      6  N   UNL     1      -0.690  13.484  21.156  0.00  0.00    +0.000 N 
ATOM      7  C   UNL     1       0.690  13.074  20.922  0.00  0.00    +0.000 C 
ATOM      8  C   UNL     1       0.790  11.578  21.206  0.00  0.00    +0.000 C 
ATOM      9  C   UNL     1      -0.157  10.755  20.299  0.00  0.00    +0.000 C 
ATOM     10  C   UNL     1       0.234  10.863  18.800  0.00  0.00    +0.000 C 
ATOM     11  C   UNL     1       1.596  10.237  18.502  0.00  0.00    +0.000 C 
ATOM     12  N   UNL     1       1.646   8.853  18.968  0.00  0.00    +0.000 N 
ATOM     13  C   UNL     1       2.392   7.946  18.201  0.00  0.00    +0.000 C 
ATOM     14  O   UNL     1       3.015   8.296  17.200  0.00  0.00    +0.000 OA
ATOM     15  C   UNL     1       1.312   8.674  20.384  0.00  0.00    +0.000 C 
ATOM     16  C   UNL     1      -0.069   9.258  20.689  0.00  0.00    +0.000 C 
ATOM     17  C   UNL     1      -1.601  11.281  20.527  0.00  0.00    +0.000 C 
ATOM     18  C   UNL     1      -1.724  12.806  20.383  0.00  0.00    +0.000 C 
ATOM     19  N   UNL     1       0.132  15.108  22.633  0.00  0.00    +0.000 NA
ATOM     20  N   UNL     1       0.073  15.893  23.756  0.00  0.00    +0.000 NA
ENDROOT
BRANCH  13  21
ATOM     21  C   UNL     1       2.397   6.542  18.598  0.00  0.00    +0.000 A 
ATOM     22  C   UNL     1       2.115   5.341  17.883  0.00  0.00    +0.000 A 
ATOM     23  C   UNL     1       2.233   4.308  18.783  0.00  0.00    +0.000 A 
ATOM     24  O   UNL     1       2.660   4.776  19.982  0.00  0.00    +0.000 OA
ATOM     25  C   UNL     1       2.791   6.120  19.853  0.00  0.00    +0.000 A 
ENDBRANCH  13  21
TORSDOF 1
ENDMDL
MODEL 5
REMARK VINA RESULT:      -5.6      2.713      3.022
REMARK  Name = 
REMARK  2 active torsions:
REMARK  status: ('A' for Active; 'I' for Inactive)
REMARK    1  A    between atoms: C_1  and  C_2
REMARK    2  A    between atoms: C_13  and  C_15
REMARK                            x       y       z     vdW  Elec       q    Type
REMARK                         _______ _______ _______ _____ _____    ______ ____
ROOT
ATOM      1  C   UNL     1       2.421  17.943  20.610  0.00  0.00    +0.000 C 
ATOM      2  C   UNL     1       1.980  16.620  20.080  0.00  0.00    +0.000 A 
ATOM      3  C   UNL     1       0.722  16.091  20.316  0.00  0.00    +0.000 A 
ATOM      4  C   UNL     1       0.370  14.872  19.732  0.00  0.00    +0.000 A 
ATOM      5  C   UNL     1       1.297  14.182  18.972  0.00  0.00    +0.000 A 
ATOM      6  N   UNL     1       1.084  12.917  18.469  0.00  0.00    +0.000 N 
ATOM      7  C   UNL     1       2.276  12.087  18.338  0.00  0.00    +0.000 C 
ATOM      8  C   UNL     1       2.177  10.957  19.359  0.00  0.00    +0.000 C 
ATOM      9  C   UNL     1       0.914  10.090  19.137  0.00  0.00    +0.000 C 
ATOM     10  C   UNL     1       0.952   9.342  17.777  0.00  0.00    +0.000 C 
ATOM     11  C   UNL     1       2.074   8.307  17.708  0.00  0.00    +0.000 C 
ATOM     12  N   UNL     1       1.989   7.373  18.828  0.00  0.00    +0.000 N 
ATOM     13  C   UNL     1       2.362   6.043  18.582  0.00  0.00    +0.000 C 
ATOM     14  O   UNL     1       2.783   5.676  17.487  0.00  0.00    +0.000 OA
ATOM     15  C   UNL     1       1.973   8.005  20.150  0.00  0.00    +0.000 C 
ATOM     16  C   UNL     1       0.826   9.014  20.249  0.00  0.00    +0.000 C 
ATOM     17  C   UNL     1      -0.321  11.031  19.209  0.00  0.00    +0.000 C 
ATOM     18  C   UNL     1      -0.206  12.259  18.294  0.00  0.00    +0.000 C 
ATOM     19  N   UNL     1       2.503  14.761  18.760  0.00  0.00    +0.000 NA
ATOM     20  N   UNL     1       2.849  15.975  19.294  0.00  0.00    +0.000 NA
ENDROOT
BRANCH  13  21
ATOM     21  C   UNL     1       2.215   5.070  19.660  0.00  0.00    +0.000 A 
ATOM     22  C   UNL     1       1.094   4.668  20.443  0.00  0.00    +0.000 A 
ATOM     23  C   UNL     1       1.556   3.743  21.350  0.00  0.00    +0.000 A 
ATOM     24  O   UNL     1       2.866   3.476  21.122  0.00  0.00    +0.000 OA
ATOM     25  C   UNL     1       3.248   4.254  20.078  0.00  0.00    +0.000 A 
ENDBRANCH  13  21
TORSDOF 1
ENDMDL
MODEL 6
REMARK VINA RESULT:      -5.6      7.444      9.513
REMARK  Name = 
REMARK  2 active torsions:
REMARK  status: ('A' for Active; 'I' for Inactive)
REMARK    1  A    between atoms: C_1  and  C_2
REMARK    2  A    between atoms: C_13  and  C_15
REMARK                            x       y       z     vdW  Elec       q    Type
REMARK                         _______ _______ _______ _____ _____    ______ ____
ROOT
ATOM      1  C   UNL     1      -0.090   9.750  20.692  0.00  0.00    +0.000 C 
ATOM      2  C   UNL     1       0.638  10.986  20.284  0.00  0.00    +0.000 A 
ATOM      3  C   UNL     1       0.751  11.398  18.967  0.00  0.00    +0.000 A 
ATOM      4  C   UNL     1       1.399  12.602  18.677  0.00  0.00    +0.000 A 
ATOM      5  C   UNL     1       1.967  13.339  19.701  0.00  0.00    +0.000 A 
ATOM      6  N   UNL     1       2.736  14.464  19.497  0.00  0.00    +0.000 N 
ATOM      7  C   UNL     1       3.780  14.695  20.488  0.00  0.00    +0.000 C 
ATOM      8  C   UNL     1       5.129  14.483  19.807  0.00  0.00    +0.000 C 
ATOM      9  C   UNL     1       5.327  15.445  18.609  0.00  0.00    +0.000 C 
ATOM     10  C   UNL     1       5.381  16.930  19.058  0.00  0.00    +0.000 C 
ATOM     11  C   UNL     1       6.601  17.237  19.927  0.00  0.00    +0.000 C 
ATOM     12  N   UNL     1       7.833  16.838  19.251  0.00  0.00    +0.000 N 
ATOM     13  C   UNL     1       8.967  17.637  19.465  0.00  0.00    +0.000 C 
ATOM     14  O   UNL     1       8.947  18.609  20.217  0.00  0.00    +0.000 OA
ATOM     15  C   UNL     1       7.866  15.438  18.818  0.00  0.00    +0.000 C 
ATOM     16  C   UNL     1       6.674  15.128  17.912  0.00  0.00    +0.000 C 
ATOM     17  C   UNL     1       4.149  15.215  17.622  0.00  0.00    +0.000 C 
ATOM     18  C   UNL     1       2.769  15.285  18.293  0.00  0.00    +0.000 C 
ATOM     19  N   UNL     1       1.804  12.895  20.970  0.00  0.00    +0.000 NA
ATOM     20  N   UNL     1       1.137  11.737  21.273  0.00  0.00    +0.000 NA
ENDROOT
BRANCH  13  21
ATOM     21  C   UNL     1      10.193  17.309  18.744  0.00  0.00    +0.000 A 
ATOM     22  C   UNL     1      10.590  17.503  17.388  0.00  0.00    +0.000 A 
ATOM     23  C   UNL     1      11.842  16.949  17.260  0.00  0.00    +0.000 A 
ATOM     24  O   UNL     1      12.286  16.509  18.463  0.00  0.00    +0.000 OA
ATOM     25  C   UNL     1      11.301  16.762  19.360  0.00  0.00    +0.000 A 
ENDBRANCH  13  21
TORSDOF 1
ENDMDL
MODEL 7
REMARK VINA RESULT:      -5.5      7.959      9.169
REMARK  Name = 
REMARK  2 active torsions:
REMARK  status: ('A' for Active; 'I' for Inactive)
REMARK    1  A    between atoms: C_1  and  C_2
REMARK    2  A    between atoms: C_13  and  C_15
REMARK                            x       y       z     vdW  Elec       q    Type
REMARK                         _______ _______ _______ _____ _____    ______ ____
ROOT
ATOM      1  C   UNL     1       2.850  18.093  27.920  0.00  0.00    +0.000 C 
ATOM      2  C   UNL     1       3.911  17.166  27.430  0.00  0.00    +0.000 A 
ATOM      3  C   UNL     1       5.262  17.379  27.645  0.00  0.00    +0.000 A 
ATOM      4  C   UNL     1       6.186  16.429  27.203  0.00  0.00    +0.000 A 
ATOM      5  C   UNL     1       5.746  15.315  26.509  0.00  0.00    +0.000 A 
ATOM      6  N   UNL     1       6.590  14.397  25.924  0.00  0.00    +0.000 N 
ATOM      7  C   UNL     1       6.076  13.753  24.722  0.00  0.00    +0.000 C 
ATOM      8  C   UNL     1       6.899  14.245  23.535  0.00  0.00    +0.000 C 
ATOM      9  C   UNL     1       8.402  13.912  23.700  0.00  0.00    +0.000 C 
ATOM     10  C   UNL     1       8.662  12.382  23.707  0.00  0.00    +0.000 C 
ATOM     11  C   UNL     1       8.328  11.724  22.368  0.00  0.00    +0.000 C 
ATOM     12  N   UNL     1       9.038  12.381  21.274  0.00  0.00    +0.000 N 
ATOM     13  C   UNL     1       9.466  11.572  20.211  0.00  0.00    +0.000 C 
ATOM     14  O   UNL     1       9.223  10.367  20.170  0.00  0.00    +0.000 OA
ATOM     15  C   UNL     1       8.822  13.829  21.188  0.00  0.00    +0.000 C 
ATOM     16  C   UNL     1       9.194  14.507  22.508  0.00  0.00    +0.000 C 
ATOM     17  C   UNL     1       8.883  14.555  25.031  0.00  0.00    +0.000 C 
ATOM     18  C   UNL     1       8.000  14.193  26.236  0.00  0.00    +0.000 C 
ATOM     19  N   UNL     1       4.411  15.152  26.350  0.00  0.00    +0.000 NA
ATOM     20  N   UNL     1       3.491  16.056  26.812  0.00  0.00    +0.000 NA
ENDROOT
BRANCH  13  21
ATOM     21  C   UNL     1      10.244  12.186  19.140  0.00  0.00    +0.000 A 
ATOM     22  C   UNL     1       9.867  12.802  17.911  0.00  0.00    +0.000 A 
ATOM     23  C   UNL     1      11.032  13.161  17.275  0.00  0.00    +0.000 A 
ATOM     24  O   UNL     1      12.100  12.895  18.066  0.00  0.00    +0.000 OA
ATOM     25  C   UNL     1      11.615  12.340  19.204  0.00  0.00    +0.000 A 
ENDBRANCH  13  21
TORSDOF 1
ENDMDL
MODEL 8
REMARK VINA RESULT:      -5.5      4.002      9.299
REMARK  Name = 
REMARK  2 active torsions:
REMARK  status: ('A' for Active; 'I' for Inactive)
REMARK    1  A    between atoms: C_1  and  C_2
REMARK    2  A    between atoms: C_13  and  C_15
REMARK                            x       y       z     vdW  Elec       q    Type
REMARK                         _______ _______ _______ _____ _____    ______ ____
ROOT
ATOM      1  C   UNL     1       4.271   6.706  17.937  0.00  0.00    +0.000 C 
ATOM      2  C   UNL     1       3.114   7.572  18.306  0.00  0.00    +0.000 A 
ATOM      3  C   UNL     1       2.619   8.567  17.481  0.00  0.00    +0.000 A 
ATOM      4  C   UNL     1       1.493   9.292  17.879  0.00  0.00    +0.000 A 
ATOM      5  C   UNL     1       0.921   9.047  19.114  0.00  0.00    +0.000 A 
ATOM      6  N   UNL     1      -0.105   9.799  19.644  0.00  0.00    +0.000 N 
ATOM      7  C   UNL     1      -0.117   9.903  21.098  0.00  0.00    +0.000 C 
ATOM      8  C   UNL     1       0.218  11.345  21.469  0.00  0.00    +0.000 C 
ATOM      9  C   UNL     1      -0.801  12.345  20.868  0.00  0.00    +0.000 C 
ATOM     10  C   UNL     1      -2.226  12.146  21.451  0.00  0.00    +0.000 C 
ATOM     11  C   UNL     1      -2.298  12.465  22.945  0.00  0.00    +0.000 C 
ATOM     12  N   UNL     1      -1.794  13.809  23.214  0.00  0.00    +0.000 N 
ATOM     13  C   UNL     1      -2.416  14.531  24.244  0.00  0.00    +0.000 C 
ATOM     14  O   UNL     1      -3.320  14.050  24.924  0.00  0.00    +0.000 OA
ATOM     15  C   UNL     1      -0.440  14.065  22.713  0.00  0.00    +0.000 C 
ATOM     16  C   UNL     1      -0.363  13.792  21.210  0.00  0.00    +0.000 C 
ATOM     17  C   UNL     1      -0.807  12.141  19.327  0.00  0.00    +0.000 C 
ATOM     18  C   UNL     1      -1.007  10.676  18.908  0.00  0.00    +0.000 C 
ATOM     19  N   UNL     1       1.437   8.046  19.867  0.00  0.00    +0.000 NA
ATOM     20  N   UNL     1       2.516   7.300  19.472  0.00  0.00    +0.000 NA
ENDROOT
BRANCH  13  21
ATOM     21  C   UNL     1      -1.986  15.905  24.486  0.00  0.00    +0.000 A 
ATOM     22  C   UNL     1      -2.166  17.111  23.747  0.00  0.00    +0.000 A 
ATOM     23  C   UNL     1      -1.498  18.098  24.434  0.00  0.00    +0.000 A 
ATOM     24  O   UNL     1      -0.997  17.607  25.594  0.00  0.00    +0.000 OA
ATOM     25  C   UNL     1      -1.325  16.291  25.636  0.00  0.00    +0.000 A 
ENDBRANCH  13  21
TORSDOF 1
ENDMDL
MODEL 9
REMARK VINA RESULT:      -5.5      3.332      8.962
REMARK  Name = 
REMARK  2 active torsions:
REMARK  status: ('A' for Active; 'I' for Inactive)
REMARK    1  A    between atoms: C_1  and  C_2
REMARK    2  A    between atoms: C_13  and  C_15
REMARK                            x       y       z     vdW  Elec       q    Type
REMARK                         _______ _______ _______ _____ _____    ______ ____
ROOT
ATOM      1  C   UNL     1       6.879   4.775  18.277  0.00  0.00    +0.000 C 
ATOM      2  C   UNL     1       5.622   5.578  18.297  0.00  0.00    +0.000 A 
ATOM      3  C   UNL     1       5.293   6.493  17.311  0.00  0.00    +0.000 A 
ATOM      4  C   UNL     1       4.066   7.159  17.375  0.00  0.00    +0.000 A 
ATOM      5  C   UNL     1       3.222   6.940  18.449  0.00  0.00    +0.000 A 
ATOM      6  N   UNL     1       2.059   7.647  18.663  0.00  0.00    +0.000 N 
ATOM      7  C   UNL     1       1.684   7.826  20.060  0.00  0.00    +0.000 C 
ATOM      8  C   UNL     1       1.840   9.304  20.404  0.00  0.00    +0.000 C 
ATOM      9  C   UNL     1       0.949  10.200  19.509  0.00  0.00    +0.000 C 
ATOM     10  C   UNL     1      -0.563   9.935  19.742  0.00  0.00    +0.000 C 
ATOM     11  C   UNL     1      -1.017  10.325  21.148  0.00  0.00    +0.000 C 
ATOM     12  N   UNL     1      -0.668  11.713  21.441  0.00  0.00    +0.000 N 
ATOM     13  C   UNL     1      -1.561  12.443  22.240  0.00  0.00    +0.000 C 
ATOM     14  O   UNL     1      -2.577  11.937  22.711  0.00  0.00    +0.000 OA
ATOM     15  C   UNL     1       0.752  12.034  21.268  0.00  0.00    +0.000 C 
ATOM     16  C   UNL     1       1.211  11.689  19.849  0.00  0.00    +0.000 C 
ATOM     17  C   UNL     1       1.333   9.917  18.030  0.00  0.00    +0.000 C 
ATOM     18  C   UNL     1       1.320   8.422  17.673  0.00  0.00    +0.000 C 
ATOM     19  N   UNL     1       3.589   6.017  19.369  0.00  0.00    +0.000 NA
ATOM     20  N   UNL     1       4.771   5.327  19.298  0.00  0.00    +0.000 NA
ENDROOT
BRANCH  13  21
ATOM     21  C   UNL     1      -1.277  13.853  22.487  0.00  0.00    +0.000 A 
ATOM     22  C   UNL     1      -1.224  14.987  21.623  0.00  0.00    +0.000 A 
ATOM     23  C   UNL     1      -0.860  16.060  22.402  0.00  0.00    +0.000 A 
ATOM     24  O   UNL     1      -0.776  15.689  23.703  0.00  0.00    +0.000 OA
ATOM     25  C   UNL     1      -1.063  14.364  23.752  0.00  0.00    +0.000 A 
ENDBRANCH  13  21
TORSDOF 1
ENDMDL
