MODEL 1
REMARK VINA RESULT:      -9.2      0.000      0.000
REMARK  Name = 
REMARK  9 active torsions:
REMARK  status: ('A' for Active; 'I' for Inactive)
REMARK    1  A    between atoms: C_1  and  N_2
REMARK    2  A    between atoms: N_2  and  C_3
REMARK    3  A    between atoms: N_2  and  C_4
REMARK    4  A    between atoms: C_4  and  C_5
REMARK    5  A    between atoms: C_5  and  O_6
REMARK    6  A    between atoms: O_6  and  C_7
REMARK    7  A    between atoms: C_11  and  C_12
REMARK    8  A    between atoms: C_18  and  C_19
REMARK    9  A    between atoms: C_22  and  C_23
REMARK                            x       y       z     vdW  Elec       q    Type
REMARK                         _______ _______ _______ _____ _____    ______ ____
ROOT
ATOM      1  C   UNL     1      -1.310  10.655  19.071  0.00  0.00    +0.000 A 
ATOM      2  C   UNL     1      -1.197  11.725  19.974  0.00  0.00    +0.000 A 
ATOM      3  N   UNL     1      -0.400  11.788  21.079  0.00  0.00    +0.000 NA
ATOM      4  C   UNL     1       0.316  10.665  21.262  0.00  0.00    +0.000 A 
ATOM      5  N   UNL     1       1.179  10.398  22.285  0.00  0.00    +0.000 N 
ATOM      6  N   UNL     1       1.669   9.132  22.281  0.00  0.00    +0.000 NA
ATOM      7  C   UNL     1       1.205   8.642  21.119  0.00  0.00    +0.000 A 
ATOM      8  C   UNL     1       0.326   9.538  20.463  0.00  0.00    +0.000 A 
ATOM      9  C   UNL     1      -0.505   9.532  19.334  0.00  0.00    +0.000 A 
ATOM     10  H   UNL     1       1.445  11.032  23.029  0.00  0.00    +0.000 HD
ENDROOT
BRANCH   7  11
ATOM     11  C   UNL     1       1.576   7.303  20.593  0.00  0.00    +0.000 A 
ATOM     12  N   UNL     1       2.465   7.136  19.640  0.00  0.00    +0.000 NA
ATOM     13  C   UNL     1       2.644   5.777  19.533  0.00  0.00    +0.000 A 
ATOM     14  C   UNL     1       3.643   5.040  18.868  0.00  0.00    +0.000 A 
ATOM     15  N   UNL     1       3.532   3.681  18.798  0.00  0.00    +0.000 NA
ATOM     16  C   UNL     1       2.515   3.072  19.458  0.00  0.00    +0.000 A 
ATOM     17  C   UNL     1       1.587   3.712  20.275  0.00  0.00    +0.000 A 
ATOM     18  C   UNL     1       1.704   5.099  20.305  0.00  0.00    +0.000 A 
ATOM     19  N   UNL     1       1.116   6.093  21.050  0.00  0.00    +0.000 N 
ATOM     20  H   UNL     1       0.460   5.982  21.813  0.00  0.00    +0.000 HD
BRANCH  14  21
ATOM     21  C   UNL     1       4.922   5.666  18.524  0.00  0.00    +0.000 A 
ATOM     22  C   UNL     1       5.065   6.507  17.411  0.00  0.00    +0.000 A 
ATOM     23  C   UNL     1       6.325   6.988  17.031  0.00  0.00    +0.000 A 
ATOM     24  C   UNL     1       7.461   6.640  17.759  0.00  0.00    +0.000 A 
ATOM     25  C   UNL     1       7.333   5.821  18.871  0.00  0.00    +0.000 A 
ATOM     26  F   UNL     1       8.417   5.468  19.570  0.00  0.00    +0.000 F 
ATOM     27  C   UNL     1       6.086   5.340  19.251  0.00  0.00    +0.000 A 
ENDBRANCH  14  21
ENDBRANCH   7  11
BRANCH   1  32
ATOM     28  C   UNL     1      -4.273  11.440  16.843  0.00  0.00    +0.000 A 
ATOM     29  C   UNL     1      -3.893  10.733  15.715  0.00  0.00    +0.000 A 
ATOM     30  N   UNL     1      -2.737  10.038  15.611  0.00  0.00    +0.000 NA
ATOM     31  C   UNL     1      -1.928  10.047  16.700  0.00  0.00    +0.000 A 
ATOM     32  C   UNL     1      -2.219  10.683  17.909  0.00  0.00    +0.000 A 
ATOM     33  C   UNL     1      -3.438  11.381  17.956  0.00  0.00    +0.000 A 
BRANCH  28  34
ATOM     34  O   UNL     1      -5.447  12.132  16.775  0.00  0.00    +0.000 OA
BRANCH  34  35
ATOM     35  C   UNL     1      -5.916  12.661  18.024  0.00  0.00    +0.000 C 
BRANCH  35  36
ATOM     36  C   UNL     1      -7.101  11.805  18.493  0.00  0.00    +0.000 C 
BRANCH  36  38
ATOM     37  C   UNL     1      -7.028  11.647  20.892  0.00  0.00    +0.000 C 
ATOM     38  N   UNL     1      -7.720  12.255  19.753  0.00  0.00    +0.000 NA
ATOM     39  C   UNL     1      -7.704  13.713  19.886  0.00  0.00    +0.000 C 
ENDBRANCH  36  38
ENDBRANCH  35  36
ENDBRANCH  34  35
ENDBRANCH  28  34
ENDBRANCH   1  32
TORSDOF 7
ENDMDL
MODEL 2
REMARK VINA RESULT:      -8.7      1.175      1.463
REMARK  Name = 
REMARK  9 active torsions:
REMARK  status: ('A' for Active; 'I' for Inactive)
REMARK    1  A    between atoms: C_1  and  N_2
REMARK    2  A    between atoms: N_2  and  C_3
REMARK    3  A    between atoms: N_2  and  C_4
REMARK    4  A    between atoms: C_4  and  C_5
REMARK    5  A    between atoms: C_5  and  O_6
REMARK    6  A    between atoms: O_6  and  C_7
REMARK    7  A    between atoms: C_11  and  C_12
REMARK    8  A    between atoms: C_18  and  C_19
REMARK    9  A    between atoms: C_22  and  C_23
REMARK                            x       y       z     vdW  Elec       q    Type
REMARK                         _______ _______ _______ _____ _____    ______ ____
ROOT
ATOM      1  C   UNL     1      -1.383  10.799  19.159  0.00  0.00    +0.000 A 
ATOM      2  C   UNL     1      -1.243  11.851  20.078  0.00  0.00    +0.000 A 
ATOM      3  N   UNL     1      -0.421  11.888  21.167  0.00  0.00    +0.000 NA
ATOM      4  C   UNL     1       0.291  10.757  21.313  0.00  0.00    +0.000 A 
ATOM      5  N   UNL     1       1.175  10.466  22.312  0.00  0.00    +0.000 N 
ATOM      6  N   UNL     1       1.656   9.197  22.273  0.00  0.00    +0.000 NA
ATOM      7  C   UNL     1       1.163   8.733  21.113  0.00  0.00    +0.000 A 
ATOM      8  C   UNL     1       0.276   9.646  20.494  0.00  0.00    +0.000 A 
ATOM      9  C   UNL     1      -0.580   9.666  19.383  0.00  0.00    +0.000 A 
ATOM     10  H   UNL     1       1.461  11.084  23.062  0.00  0.00    +0.000 HD
ENDROOT
BRANCH   7  11
ATOM     11  C   UNL     1       1.514   7.401  20.554  0.00  0.00    +0.000 A 
ATOM     12  N   UNL     1       2.412   7.242  19.608  0.00  0.00    +0.000 NA
ATOM     13  C   UNL     1       2.564   5.884  19.465  0.00  0.00    +0.000 A 
ATOM     14  C   UNL     1       3.556   5.145  18.792  0.00  0.00    +0.000 A 
ATOM     15  N   UNL     1       3.419   3.791  18.682  0.00  0.00    +0.000 NA
ATOM     16  C   UNL     1       2.381   3.185  19.312  0.00  0.00    +0.000 A 
ATOM     17  C   UNL     1       1.456   3.821  20.135  0.00  0.00    +0.000 A 
ATOM     18  C   UNL     1       1.601   5.204  20.205  0.00  0.00    +0.000 A 
ATOM     19  N   UNL     1       1.023   6.189  20.971  0.00  0.00    +0.000 N 
ATOM     20  H   UNL     1       0.355   6.070  21.722  0.00  0.00    +0.000 HD
BRANCH  14  21
ATOM     21  C   UNL     1       4.853   5.754  18.482  0.00  0.00    +0.000 A 
ATOM     22  C   UNL     1       5.028   6.619  17.392  0.00  0.00    +0.000 A 
ATOM     23  C   UNL     1       6.303   7.084  17.042  0.00  0.00    +0.000 A 
ATOM     24  C   UNL     1       7.421   6.695  17.778  0.00  0.00    +0.000 A 
ATOM     25  C   UNL     1       7.260   5.852  18.866  0.00  0.00    +0.000 A 
ATOM     26  F   UNL     1       8.328   5.459  19.571  0.00  0.00    +0.000 F 
ATOM     27  C   UNL     1       6.000   5.386  19.216  0.00  0.00    +0.000 A 
ENDBRANCH  14  21
ENDBRANCH   7  11
BRANCH   1  32
ATOM     28  C   UNL     1      -4.539  11.277  17.117  0.00  0.00    +0.000 A 
ATOM     29  C   UNL     1      -4.039  10.966  15.863  0.00  0.00    +0.000 A 
ATOM     30  N   UNL     1      -2.749  10.635  15.624  0.00  0.00    +0.000 NA
ATOM     31  C   UNL     1      -1.925  10.606  16.700  0.00  0.00    +0.000 A 
ATOM     32  C   UNL     1      -2.317  10.854  18.018  0.00  0.00    +0.000 A 
ATOM     33  C   UNL     1      -3.670  11.185  18.202  0.00  0.00    +0.000 A 
BRANCH  28  34
ATOM     34  O   UNL     1      -5.853  11.640  17.189  0.00  0.00    +0.000 OA
BRANCH  34  35
ATOM     35  C   UNL     1      -6.093  12.965  17.681  0.00  0.00    +0.000 C 
BRANCH  35  36
ATOM     36  C   UNL     1      -6.914  13.727  16.629  0.00  0.00    +0.000 C 
BRANCH  36  38
ATOM     37  C   UNL     1      -7.829  15.818  15.871  0.00  0.00    +0.000 C 
ATOM     38  N   UNL     1      -6.810  15.194  16.718  0.00  0.00    +0.000 NA
ATOM     39  C   UNL     1      -6.948  15.676  18.093  0.00  0.00    +0.000 C 
ENDBRANCH  36  38
ENDBRANCH  35  36
ENDBRANCH  34  35
ENDBRANCH  28  34
ENDBRANCH   1  32
TORSDOF 7
ENDMDL
MODEL 3
REMARK VINA RESULT:      -8.6      1.070      1.366
REMARK  Name = 
REMARK  9 active torsions:
REMARK  status: ('A' for Active; 'I' for Inactive)
REMARK    1  A    between atoms: C_1  and  N_2
REMARK    2  A    between atoms: N_2  and  C_3
REMARK    3  A    between atoms: N_2  and  C_4
REMARK    4  A    between atoms: C_4  and  C_5
REMARK    5  A    between atoms: C_5  and  O_6
REMARK    6  A    between atoms: O_6  and  C_7
REMARK    7  A    between atoms: C_11  and  C_12
REMARK    8  A    between atoms: C_18  and  C_19
REMARK    9  A    between atoms: C_22  and  C_23
REMARK                            x       y       z     vdW  Elec       q    Type
REMARK                         _______ _______ _______ _____ _____    ______ ____
ROOT
ATOM      1  C   UNL     1      -1.292  10.647  19.027  0.00  0.00    +0.000 A 
ATOM      2  C   UNL     1      -1.070  11.762  19.853  0.00  0.00    +0.000 A 
ATOM      3  N   UNL     1      -0.214  11.842  20.913  0.00  0.00    +0.000 NA
ATOM      4  C   UNL     1       0.443  10.690  21.132  0.00  0.00    +0.000 A 
ATOM      5  N   UNL     1       1.341  10.434  22.128  0.00  0.00    +0.000 N 
ATOM      6  N   UNL     1       1.755   9.142  22.181  0.00  0.00    +0.000 NA
ATOM      7  C   UNL     1       1.204   8.613  21.076  0.00  0.00    +0.000 A 
ATOM      8  C   UNL     1       0.347   9.519  20.408  0.00  0.00    +0.000 A 
ATOM      9  C   UNL     1      -0.541   9.495  19.322  0.00  0.00    +0.000 A 
ATOM     10  H   UNL     1       1.681  11.094  22.817  0.00  0.00    +0.000 HD
ENDROOT
BRANCH   7  11
ATOM     11  C   UNL     1       1.469   7.223  20.619  0.00  0.00    +0.000 A 
ATOM     12  N   UNL     1       2.196   6.951  19.559  0.00  0.00    +0.000 NA
ATOM     13  C   UNL     1       2.337   5.584  19.546  0.00  0.00    +0.000 A 
ATOM     14  C   UNL     1       3.208   4.765  18.803  0.00  0.00    +0.000 A 
ATOM     15  N   UNL     1       3.068   3.408  18.870  0.00  0.00    +0.000 NA
ATOM     16  C   UNL     1       2.158   2.887  19.730  0.00  0.00    +0.000 A 
ATOM     17  C   UNL     1       1.378   3.619  20.622  0.00  0.00    +0.000 A 
ATOM     18  C   UNL     1       1.519   5.000  20.510  0.00  0.00    +0.000 A 
ATOM     19  N   UNL     1       1.068   6.070  21.247  0.00  0.00    +0.000 N 
ATOM     20  H   UNL     1       0.538   6.043  22.108  0.00  0.00    +0.000 HD
BRANCH  14  21
ATOM     21  C   UNL     1       4.427   5.323  18.212  0.00  0.00    +0.000 A 
ATOM     22  C   UNL     1       5.626   5.426  18.933  0.00  0.00    +0.000 A 
ATOM     23  C   UNL     1       6.739   6.081  18.388  0.00  0.00    +0.000 A 
ATOM     24  C   UNL     1       6.672   6.639  17.112  0.00  0.00    +0.000 A 
ATOM     25  C   UNL     1       5.498   6.532  16.383  0.00  0.00    +0.000 A 
ATOM     26  F   UNL     1       5.417   7.077  15.163  0.00  0.00    +0.000 F 
ATOM     27  C   UNL     1       4.392   5.886  16.919  0.00  0.00    +0.000 A 
ENDBRANCH  14  21
ENDBRANCH   7  11
BRANCH   1  32
ATOM     28  C   UNL     1      -4.423  11.280  16.988  0.00  0.00    +0.000 A 
ATOM     29  C   UNL     1      -4.035  10.686  15.800  0.00  0.00    +0.000 A 
ATOM     30  N   UNL     1      -2.825  10.114  15.599  0.00  0.00    +0.000 NA
ATOM     31  C   UNL     1      -1.968  10.133  16.649  0.00  0.00    +0.000 A 
ATOM     32  C   UNL     1      -2.256  10.660  17.910  0.00  0.00    +0.000 A 
ATOM     33  C   UNL     1      -3.531  11.233  18.057  0.00  0.00    +0.000 A 
BRANCH  28  34
ATOM     34  O   UNL     1      -5.659  11.859  17.019  0.00  0.00    +0.000 OA
BRANCH  34  35
ATOM     35  C   UNL     1      -5.911  12.696  18.156  0.00  0.00    +0.000 C 
BRANCH  35  36
ATOM     36  C   UNL     1      -7.287  12.323  18.730  0.00  0.00    +0.000 C 
BRANCH  36  38
ATOM     37  C   UNL     1      -7.164  10.279  19.993  0.00  0.00    +0.000 C 
ATOM     38  N   UNL     1      -7.247  11.740  20.083  0.00  0.00    +0.000 NA
ATOM     39  C   UNL     1      -6.126  12.251  20.873  0.00  0.00    +0.000 C 
ENDBRANCH  36  38
ENDBRANCH  35  36
ENDBRANCH  34  35
ENDBRANCH  28  34
ENDBRANCH   1  32
TORSDOF 7
ENDMDL
MODEL 4
REMARK VINA RESULT:      -8.4      1.765      3.226
REMARK  Name = 
REMARK  9 active torsions:
REMARK  status: ('A' for Active; 'I' for Inactive)
REMARK    1  A    between atoms: C_1  and  N_2
REMARK    2  A    between atoms: N_2  and  C_3
REMARK    3  A    between atoms: N_2  and  C_4
REMARK    4  A    between atoms: C_4  and  C_5
REMARK    5  A    between atoms: C_5  and  O_6
REMARK    6  A    between atoms: O_6  and  C_7
REMARK    7  A    between atoms: C_11  and  C_12
REMARK    8  A    between atoms: C_18  and  C_19
REMARK    9  A    between atoms: C_22  and  C_23
REMARK                            x       y       z     vdW  Elec       q    Type
REMARK                         _______ _______ _______ _____ _____    ______ ____
ROOT
ATOM      1  C   UNL     1      -1.291  10.636  19.426  0.00  0.00    +0.000 A 
ATOM      2  C   UNL     1      -1.163  11.606  20.433  0.00  0.00    +0.000 A 
ATOM      3  N   UNL     1      -0.342  11.557  21.523  0.00  0.00    +0.000 NA
ATOM      4  C   UNL     1       0.381  10.425  21.572  0.00  0.00    +0.000 A 
ATOM      5  N   UNL     1       1.267  10.058  22.543  0.00  0.00    +0.000 N 
ATOM      6  N   UNL     1       1.761   8.802  22.396  0.00  0.00    +0.000 NA
ATOM      7  C   UNL     1       1.274   8.434  21.199  0.00  0.00    +0.000 A 
ATOM      8  C   UNL     1       0.379   9.389  20.659  0.00  0.00    +0.000 A 
ATOM      9  C   UNL     1      -0.477   9.496  19.553  0.00  0.00    +0.000 A 
ATOM     10  H   UNL     1       1.546  10.612  23.344  0.00  0.00    +0.000 HD
ENDROOT
BRANCH   7  11
ATOM     11  C   UNL     1       1.639   7.159  20.528  0.00  0.00    +0.000 A 
ATOM     12  N   UNL     1       2.562   7.087  19.595  0.00  0.00    +0.000 NA
ATOM     13  C   UNL     1       2.718   5.748  19.330  0.00  0.00    +0.000 A 
ATOM     14  C   UNL     1       3.727   5.071  18.618  0.00  0.00    +0.000 A 
ATOM     15  N   UNL     1       3.591   3.734  18.378  0.00  0.00    +0.000 NA
ATOM     16  C   UNL     1       2.537   3.075  18.921  0.00  0.00    +0.000 A 
ATOM     17  C   UNL     1       1.591   3.634  19.776  0.00  0.00    +0.000 A 
ATOM     18  C   UNL     1       1.734   5.004  19.978  0.00  0.00    +0.000 A 
ATOM     19  N   UNL     1       1.137   5.915  20.817  0.00  0.00    +0.000 N 
ATOM     20  H   UNL     1       0.449   5.729  21.535  0.00  0.00    +0.000 HD
BRANCH  14  21
ATOM     21  C   UNL     1       5.031   5.703  18.400  0.00  0.00    +0.000 A 
ATOM     22  C   UNL     1       5.257   6.605  17.350  0.00  0.00    +0.000 A 
ATOM     23  C   UNL     1       6.544   7.093  17.087  0.00  0.00    +0.000 A 
ATOM     24  C   UNL     1       7.624   6.692  17.871  0.00  0.00    +0.000 A 
ATOM     25  C   UNL     1       7.413   5.812  18.921  0.00  0.00    +0.000 A 
ATOM     26  F   UNL     1       8.444   5.407  19.672  0.00  0.00    +0.000 F 
ATOM     27  C   UNL     1       6.140   5.323  19.185  0.00  0.00    +0.000 A 
ENDBRANCH  14  21
ENDBRANCH   7  11
BRANCH   1  32
ATOM     28  C   UNL     1      -2.922  10.193  16.035  0.00  0.00    +0.000 A 
ATOM     29  C   UNL     1      -3.993  11.056  16.192  0.00  0.00    +0.000 A 
ATOM     30  N   UNL     1      -4.243  11.755  17.323  0.00  0.00    +0.000 NA
ATOM     31  C   UNL     1      -3.365  11.585  18.342  0.00  0.00    +0.000 A 
ATOM     32  C   UNL     1      -2.224  10.780  18.292  0.00  0.00    +0.000 A 
ATOM     33  C   UNL     1      -2.017  10.086  17.088  0.00  0.00    +0.000 A 
BRANCH  28  34
ATOM     34  O   UNL     1      -2.834   9.521  14.850  0.00  0.00    +0.000 OA
BRANCH  34  35
ATOM     35  C   UNL     1      -3.421  10.190  13.725  0.00  0.00    +0.000 C 
BRANCH  35  36
ATOM     36  C   UNL     1      -4.643   9.380  13.268  0.00  0.00    +0.000 C 
BRANCH  36  38
ATOM     37  C   UNL     1      -4.355   9.514  10.884  0.00  0.00    +0.000 C 
ATOM     38  N   UNL     1      -5.243   9.839  12.003  0.00  0.00    +0.000 NA
ATOM     39  C   UNL     1      -6.564   9.252  11.772  0.00  0.00    +0.000 C 
ENDBRANCH  36  38
ENDBRANCH  35  36
ENDBRANCH  34  35
ENDBRANCH  28  34
ENDBRANCH   1  32
TORSDOF 7
ENDMDL
MODEL 5
REMARK VINA RESULT:      -8.4      2.419      3.462
REMARK  Name = 
REMARK  9 active torsions:
REMARK  status: ('A' for Active; 'I' for Inactive)
REMARK    1  A    between atoms: C_1  and  N_2
REMARK    2  A    between atoms: N_2  and  C_3
REMARK    3  A    between atoms: N_2  and  C_4
REMARK    4  A    between atoms: C_4  and  C_5
REMARK    5  A    between atoms: C_5  and  O_6
REMARK    6  A    between atoms: O_6  and  C_7
REMARK    7  A    between atoms: C_11  and  C_12
REMARK    8  A    between atoms: C_18  and  C_19
REMARK    9  A    between atoms: C_22  and  C_23
REMARK                            x       y       z     vdW  Elec       q    Type
REMARK                         _______ _______ _______ _____ _____    ______ ____
ROOT
ATOM      1  C   UNL     1      -0.566  12.212  20.241  0.00  0.00    +0.000 A 
ATOM      2  C   UNL     1      -0.196  13.348  19.503  0.00  0.00    +0.000 A 
ATOM      3  N   UNL     1       0.759  13.422  18.532  0.00  0.00    +0.000 NA
ATOM      4  C   UNL     1       1.374  12.245  18.323  0.00  0.00    +0.000 A 
ATOM      5  N   UNL     1       2.390  11.992  17.447  0.00  0.00    +0.000 N 
ATOM      6  N   UNL     1       2.901  10.738  17.539  0.00  0.00    +0.000 NA
ATOM      7  C   UNL     1       2.063  10.143  18.404  0.00  0.00    +0.000 A 
ATOM      8  C   UNL     1       1.118  11.043  18.953  0.00  0.00    +0.000 A 
ATOM      9  C   UNL     1       0.118  11.022  19.936  0.00  0.00    +0.000 A 
ATOM     10  H   UNL     1       2.794  12.648  16.789  0.00  0.00    +0.000 HD
ENDROOT
BRANCH   7  11
ATOM     11  C   UNL     1       2.133   8.697  18.743  0.00  0.00    +0.000 A 
ATOM     12  N   UNL     1       2.642   7.801  17.928  0.00  0.00    +0.000 NA
ATOM     13  C   UNL     1       2.668   6.625  18.640  0.00  0.00    +0.000 A 
ATOM     14  C   UNL     1       3.330   5.412  18.370  0.00  0.00    +0.000 A 
ATOM     15  N   UNL     1       3.096   4.332  19.171  0.00  0.00    +0.000 NA
ATOM     16  C   UNL     1       2.309   4.488  20.265  0.00  0.00    +0.000 A 
ATOM     17  C   UNL     1       1.757   5.691  20.696  0.00  0.00    +0.000 A 
ATOM     18  C   UNL     1       1.985   6.768  19.845  0.00  0.00    +0.000 A 
ATOM     19  N   UNL     1       1.756   8.121  19.931  0.00  0.00    +0.000 N 
ATOM     20  H   UNL     1       1.381   8.632  20.720  0.00  0.00    +0.000 HD
BRANCH  14  21
ATOM     21  C   UNL     1       4.470   5.378  17.449  0.00  0.00    +0.000 A 
ATOM     22  C   UNL     1       4.593   4.399  16.451  0.00  0.00    +0.000 A 
ATOM     23  C   UNL     1       5.753   4.312  15.670  0.00  0.00    +0.000 A 
ATOM     24  C   UNL     1       6.806   5.203  15.870  0.00  0.00    +0.000 A 
ATOM     25  C   UNL     1       6.692   6.185  16.843  0.00  0.00    +0.000 A 
ATOM     26  F   UNL     1       7.701   7.036  17.054  0.00  0.00    +0.000 F 
ATOM     27  C   UNL     1       5.545   6.274  17.621  0.00  0.00    +0.000 A 
ENDBRANCH  14  21
ENDBRANCH   7  11
BRANCH   1  32
ATOM     28  C   UNL     1      -3.862  12.807  22.015  0.00  0.00    +0.000 A 
ATOM     29  C   UNL     1      -3.545  12.272  23.252  0.00  0.00    +0.000 A 
ATOM     30  N   UNL     1      -2.351  11.710  23.551  0.00  0.00    +0.000 NA
ATOM     31  C   UNL     1      -1.427  11.695  22.558  0.00  0.00    +0.000 A 
ATOM     32  C   UNL     1      -1.608  12.242  21.286  0.00  0.00    +0.000 A 
ATOM     33  C   UNL     1      -2.867  12.817  21.040  0.00  0.00    +0.000 A 
BRANCH  28  34
ATOM     34  O   UNL     1      -5.127  13.293  21.854  0.00  0.00    +0.000 OA
BRANCH  34  35
ATOM     35  C   UNL     1      -5.655  13.190  20.524  0.00  0.00    +0.000 C 
BRANCH  35  36
ATOM     36  C   UNL     1      -6.427  11.867  20.416  0.00  0.00    +0.000 C 
BRANCH  36  38
ATOM     37  C   UNL     1      -6.826   9.826  19.205  0.00  0.00    +0.000 C 
ATOM     38  N   UNL     1      -6.307  11.193  19.110  0.00  0.00    +0.000 NA
ATOM     39  C   UNL     1      -7.009  11.916  18.049  0.00  0.00    +0.000 C 
ENDBRANCH  36  38
ENDBRANCH  35  36
ENDBRANCH  34  35
ENDBRANCH  28  34
ENDBRANCH   1  32
TORSDOF 7
ENDMDL
MODEL 6
REMARK VINA RESULT:      -8.4      4.985      9.344
REMARK  Name = 
REMARK  9 active torsions:
REMARK  status: ('A' for Active; 'I' for Inactive)
REMARK    1  A    between atoms: C_1  and  N_2
REMARK    2  A    between atoms: N_2  and  C_3
REMARK    3  A    between atoms: N_2  and  C_4
REMARK    4  A    between atoms: C_4  and  C_5
REMARK    5  A    between atoms: C_5  and  O_6
REMARK    6  A    between atoms: O_6  and  C_7
REMARK    7  A    between atoms: C_11  and  C_12
REMARK    8  A    between atoms: C_18  and  C_19
REMARK    9  A    between atoms: C_22  and  C_23
REMARK                            x       y       z     vdW  Elec       q    Type
REMARK                         _______ _______ _______ _____ _____    ______ ____
ROOT
ATOM      1  C   UNL     1       0.468  10.510  20.744  0.00  0.00    +0.000 A 
ATOM      2  C   UNL     1      -0.109  10.087  21.952  0.00  0.00    +0.000 A 
ATOM      3  N   UNL     1      -0.733  10.866  22.883  0.00  0.00    +0.000 NA
ATOM      4  C   UNL     1      -0.749  12.165  22.539  0.00  0.00    +0.000 A 
ATOM      5  N   UNL     1      -1.266  13.201  23.263  0.00  0.00    +0.000 N 
ATOM      6  N   UNL     1      -1.031  14.425  22.725  0.00  0.00    +0.000 NA
ATOM      7  C   UNL     1      -0.475  14.122  21.540  0.00  0.00    +0.000 A 
ATOM      8  C   UNL     1      -0.241  12.734  21.388  0.00  0.00    +0.000 A 
ATOM      9  C   UNL     1       0.381  11.885  20.461  0.00  0.00    +0.000 A 
ATOM     10  H   UNL     1      -1.760  13.131  24.145  0.00  0.00    +0.000 HD
ENDROOT
BRANCH   7  11
ATOM     11  C   UNL     1      -0.143  15.142  20.511  0.00  0.00    +0.000 A 
ATOM     12  N   UNL     1       1.071  15.617  20.349  0.00  0.00    +0.000 NA
ATOM     13  C   UNL     1       1.013  16.409  19.228  0.00  0.00    +0.000 A 
ATOM     14  C   UNL     1       2.048  16.960  18.447  0.00  0.00    +0.000 A 
ATOM     15  N   UNL     1       1.734  17.831  17.443  0.00  0.00    +0.000 NA
ATOM     16  C   UNL     1       0.427  18.061  17.161  0.00  0.00    +0.000 A 
ATOM     17  C   UNL     1      -0.653  17.429  17.772  0.00  0.00    +0.000 A 
ATOM     18  C   UNL     1      -0.306  16.570  18.811  0.00  0.00    +0.000 A 
ATOM     19  N   UNL     1      -1.002  15.665  19.577  0.00  0.00    +0.000 N 
ATOM     20  H   UNL     1      -1.976  15.405  19.487  0.00  0.00    +0.000 HD
BRANCH  14  21
ATOM     21  C   UNL     1       3.398  16.392  18.497  0.00  0.00    +0.000 A 
ATOM     22  C   UNL     1       3.771  15.288  17.718  0.00  0.00    +0.000 A 
ATOM     23  C   UNL     1       5.026  14.685  17.880  0.00  0.00    +0.000 A 
ATOM     24  C   UNL     1       5.929  15.179  18.820  0.00  0.00    +0.000 A 
ATOM     25  C   UNL     1       5.578  16.280  19.587  0.00  0.00    +0.000 A 
ATOM     26  F   UNL     1       6.430  16.755  20.503  0.00  0.00    +0.000 F 
ATOM     27  C   UNL     1       4.335  16.880  19.432  0.00  0.00    +0.000 A 
ENDBRANCH  14  21
ENDBRANCH   7  11
BRANCH   1  32
ATOM     28  C   UNL     1       2.174   7.432  19.340  0.00  0.00    +0.000 A 
ATOM     29  C   UNL     1       2.366   7.861  18.038  0.00  0.00    +0.000 A 
ATOM     30  N   UNL     1       1.964   9.066  17.571  0.00  0.00    +0.000 NA
ATOM     31  C   UNL     1       1.347   9.882  18.462  0.00  0.00    +0.000 A 
ATOM     32  C   UNL     1       1.135   9.583  19.810  0.00  0.00    +0.000 A 
ATOM     33  C   UNL     1       1.582   8.320  20.234  0.00  0.00    +0.000 A 
BRANCH  28  34
ATOM     34  O   UNL     1       2.592   6.169  19.645  0.00  0.00    +0.000 OA
BRANCH  34  35
ATOM     35  C   UNL     1       1.829   5.503  20.661  0.00  0.00    +0.000 C 
BRANCH  35  36
ATOM     36  C   UNL     1       1.029   4.372  19.997  0.00  0.00    +0.000 C 
BRANCH  36  38
ATOM     37  C   UNL     1       1.732   2.122  19.517  0.00  0.00    +0.000 C 
ATOM     38  N   UNL     1       1.272   3.035  20.567  0.00  0.00    +0.000 NA
ATOM     39  C   UNL     1       2.250   3.068  21.656  0.00  0.00    +0.000 C 
ENDBRANCH  36  38
ENDBRANCH  35  36
ENDBRANCH  34  35
ENDBRANCH  28  34
ENDBRANCH   1  32
TORSDOF 7
ENDMDL
MODEL 7
REMARK VINA RESULT:      -8.3      4.915      8.178
REMARK  Name = 
REMARK  9 active torsions:
REMARK  status: ('A' for Active; 'I' for Inactive)
REMARK    1  A    between atoms: C_1  and  N_2
REMARK    2  A    between atoms: N_2  and  C_3
REMARK    3  A    between atoms: N_2  and  C_4
REMARK    4  A    between atoms: C_4  and  C_5
REMARK    5  A    between atoms: C_5  and  O_6
REMARK    6  A    between atoms: O_6  and  C_7
REMARK    7  A    between atoms: C_11  and  C_12
REMARK    8  A    between atoms: C_18  and  C_19
REMARK    9  A    between atoms: C_22  and  C_23
REMARK                            x       y       z     vdW  Elec       q    Type
REMARK                         _______ _______ _______ _____ _____    ______ ____
ROOT
ATOM      1  C   UNL     1       1.778  13.546  18.913  0.00  0.00    +0.000 A 
ATOM      2  C   UNL     1       0.508  13.911  19.390  0.00  0.00    +0.000 A 
ATOM      3  N   UNL     1      -0.520  13.075  19.715  0.00  0.00    +0.000 NA
ATOM      4  C   UNL     1      -0.212  11.781  19.522  0.00  0.00    +0.000 A 
ATOM      5  N   UNL     1      -1.027  10.704  19.721  0.00  0.00    +0.000 N 
ATOM      6  N   UNL     1      -0.489   9.522  19.326  0.00  0.00    +0.000 NA
ATOM      7  C   UNL     1       0.771   9.865  19.008  0.00  0.00    +0.000 A 
ATOM      8  C   UNL     1       0.987  11.263  19.075  0.00  0.00    +0.000 A 
ATOM      9  C   UNL     1       2.013  12.167  18.765  0.00  0.00    +0.000 A 
ATOM     10  H   UNL     1      -1.968  10.722  20.093  0.00  0.00    +0.000 HD
ENDROOT
BRANCH   7  11
ATOM     11  C   UNL     1       1.813   8.877  18.626  0.00  0.00    +0.000 A 
ATOM     12  N   UNL     1       2.040   7.782  19.316  0.00  0.00    +0.000 NA
ATOM     13  C   UNL     1       2.953   7.063  18.582  0.00  0.00    +0.000 A 
ATOM     14  C   UNL     1       3.364   5.722  18.702  0.00  0.00    +0.000 A 
ATOM     15  N   UNL     1       4.393   5.268  17.927  0.00  0.00    +0.000 NA
ATOM     16  C   UNL     1       4.922   6.096  16.992  0.00  0.00    +0.000 A 
ATOM     17  C   UNL     1       4.461   7.376  16.695  0.00  0.00    +0.000 A 
ATOM     18  C   UNL     1       3.433   7.825  17.520  0.00  0.00    +0.000 A 
ATOM     19  N   UNL     1       2.609   8.926  17.509  0.00  0.00    +0.000 N 
ATOM     20  H   UNL     1       2.570   9.657  16.811  0.00  0.00    +0.000 HD
BRANCH  14  21
ATOM     21  C   UNL     1       2.525   4.749  19.407  0.00  0.00    +0.000 A 
ATOM     22  C   UNL     1       2.549   4.618  20.804  0.00  0.00    +0.000 A 
ATOM     23  C   UNL     1       1.835   3.595  21.442  0.00  0.00    +0.000 A 
ATOM     24  C   UNL     1       1.083   2.689  20.695  0.00  0.00    +0.000 A 
ATOM     25  C   UNL     1       1.038   2.816  19.315  0.00  0.00    +0.000 A 
ATOM     26  F   UNL     1       0.332   1.944  18.586  0.00  0.00    +0.000 F 
ATOM     27  C   UNL     1       1.746   3.827  18.677  0.00  0.00    +0.000 A 
ENDBRANCH  14  21
ENDBRANCH   7  11
BRANCH   1  32
ATOM     28  C   UNL     1       5.105  15.067  17.927  0.00  0.00    +0.000 A 
ATOM     29  C   UNL     1       4.745  16.404  17.931  0.00  0.00    +0.000 A 
ATOM     30  N   UNL     1       3.499  16.852  18.207  0.00  0.00    +0.000 NA
ATOM     31  C   UNL     1       2.571  15.907  18.502  0.00  0.00    +0.000 A 
ATOM     32  C   UNL     1       2.819  14.535  18.575  0.00  0.00    +0.000 A 
ATOM     33  C   UNL     1       4.135  14.134  18.285  0.00  0.00    +0.000 A 
BRANCH  28  34
ATOM     34  O   UNL     1       6.392  14.772  17.579  0.00  0.00    +0.000 OA
BRANCH  34  35
ATOM     35  C   UNL     1       7.278  14.524  18.679  0.00  0.00    +0.000 C 
BRANCH  35  36
ATOM     36  C   UNL     1       8.712  14.456  18.134  0.00  0.00    +0.000 C 
BRANCH  36  38
ATOM     37  C   UNL     1      10.425  12.910  17.452  0.00  0.00    +0.000 C 
ATOM     38  N   UNL     1       9.446  13.229  18.494  0.00  0.00    +0.000 NA
ATOM     39  C   UNL     1      10.122  13.349  19.787  0.00  0.00    +0.000 C 
ENDBRANCH  36  38
ENDBRANCH  35  36
ENDBRANCH  34  35
ENDBRANCH  28  34
ENDBRANCH   1  32
TORSDOF 7
ENDMDL
MODEL 8
REMARK VINA RESULT:      -8.3      4.466      7.032
REMARK  Name = 
REMARK  9 active torsions:
REMARK  status: ('A' for Active; 'I' for Inactive)
REMARK    1  A    between atoms: C_1  and  N_2
REMARK    2  A    between atoms: N_2  and  C_3
REMARK    3  A    between atoms: N_2  and  C_4
REMARK    4  A    between atoms: C_4  and  C_5
REMARK    5  A    between atoms: C_5  and  O_6
REMARK    6  A    between atoms: O_6  and  C_7
REMARK    7  A    between atoms: C_11  and  C_12
REMARK    8  A    between atoms: C_18  and  C_19
REMARK    9  A    between atoms: C_22  and  C_23
REMARK                            x       y       z     vdW  Elec       q    Type
REMARK                         _______ _______ _______ _____ _____    ______ ____
ROOT
ATOM      1  C   UNL     1       0.028  13.429  21.289  0.00  0.00    +0.000 A 
ATOM      2  C   UNL     1      -0.805  13.479  22.420  0.00  0.00    +0.000 A 
ATOM      3  N   UNL     1      -1.226  12.425  23.177  0.00  0.00    +0.000 NA
ATOM      4  C   UNL     1      -0.761  11.248  22.725  0.00  0.00    +0.000 A 
ATOM      5  N   UNL     1      -1.023  10.009  23.237  0.00  0.00    +0.000 N 
ATOM      6  N   UNL     1      -0.517   8.987  22.501  0.00  0.00    +0.000 NA
ATOM      7  C   UNL     1       0.217   9.628  21.576  0.00  0.00    +0.000 A 
ATOM      8  C   UNL     1       0.071  11.035  21.644  0.00  0.00    +0.000 A 
ATOM      9  C   UNL     1       0.481  12.155  20.906  0.00  0.00    +0.000 A 
ATOM     10  H   UNL     1      -1.566   9.804  24.067  0.00  0.00    +0.000 HD
ENDROOT
BRANCH   7  11
ATOM     11  C   UNL     1       1.080   8.926  20.591  0.00  0.00    +0.000 A 
ATOM     12  N   UNL     1       1.554   7.718  20.797  0.00  0.00    +0.000 NA
ATOM     13  C   UNL     1       2.169   7.355  19.622  0.00  0.00    +0.000 A 
ATOM     14  C   UNL     1       2.622   6.096  19.182  0.00  0.00    +0.000 A 
ATOM     15  N   UNL     1       3.326   6.011  18.015  0.00  0.00    +0.000 NA
ATOM     16  C   UNL     1       3.481   7.129  17.262  0.00  0.00    +0.000 A 
ATOM     17  C   UNL     1       2.921   8.373  17.541  0.00  0.00    +0.000 A 
ATOM     18  C   UNL     1       2.235   8.439  18.751  0.00  0.00    +0.000 A 
ATOM     19  N   UNL     1       1.437   9.386  19.348  0.00  0.00    +0.000 N 
ATOM     20  H   UNL     1       1.144  10.274  18.962  0.00  0.00    +0.000 HD
BRANCH  14  21
ATOM     21  C   UNL     1       2.100   4.867  19.787  0.00  0.00    +0.000 A 
ATOM     22  C   UNL     1       2.379   4.513  21.114  0.00  0.00    +0.000 A 
ATOM     23  C   UNL     1       1.976   3.272  21.627  0.00  0.00    +0.000 A 
ATOM     24  C   UNL     1       1.284   2.369  20.822  0.00  0.00    +0.000 A 
ATOM     25  C   UNL     1       0.988   2.712  19.511  0.00  0.00    +0.000 A 
ATOM     26  F   UNL     1       0.338   1.848  18.724  0.00  0.00    +0.000 F 
ATOM     27  C   UNL     1       1.387   3.940  18.998  0.00  0.00    +0.000 A 
ENDBRANCH  14  21
ENDBRANCH   7  11
BRANCH   1  32
ATOM     28  C   UNL     1       2.059  16.328  19.936  0.00  0.00    +0.000 A 
ATOM     29  C   UNL     1       1.117  16.877  19.082  0.00  0.00    +0.000 A 
ATOM     30  N   UNL     1      -0.121  16.365  18.892  0.00  0.00    +0.000 NA
ATOM     31  C   UNL     1      -0.430  15.253  19.604  0.00  0.00    +0.000 A 
ATOM     32  C   UNL     1       0.414  14.633  20.529  0.00  0.00    +0.000 A 
ATOM     33  C   UNL     1       1.683  15.217  20.686  0.00  0.00    +0.000 A 
BRANCH  28  34
ATOM     34  O   UNL     1       3.282  16.932  19.981  0.00  0.00    +0.000 OA
BRANCH  34  35
ATOM     35  C   UNL     1       4.220  16.482  18.994  0.00  0.00    +0.000 C 
BRANCH  35  36
ATOM     36  C   UNL     1       5.585  16.301  19.676  0.00  0.00    +0.000 C 
BRANCH  36  38
ATOM     37  C   UNL     1       6.172  14.740  17.942  0.00  0.00    +0.000 C 
ATOM     38  N   UNL     1       6.253  15.022  19.378  0.00  0.00    +0.000 NA
ATOM     39  C   UNL     1       7.653  15.016  19.805  0.00  0.00    +0.000 C 
ENDBRANCH  36  38
ENDBRANCH  35  36
ENDBRANCH  34  35
ENDBRANCH  28  34
ENDBRANCH   1  32
TORSDOF 7
ENDMDL
MODEL 9
REMARK VINA RESULT:      -8.2      4.863      9.326
REMARK  Name = 
REMARK  9 active torsions:
REMARK  status: ('A' for Active; 'I' for Inactive)
REMARK    1  A    between atoms: C_1  and  N_2
REMARK    2  A    between atoms: N_2  and  C_3
REMARK    3  A    between atoms: N_2  and  C_4
REMARK    4  A    between atoms: C_4  and  C_5
REMARK    5  A    between atoms: C_5  and  O_6
REMARK    6  A    between atoms: O_6  and  C_7
REMARK    7  A    between atoms: C_11  and  C_12
REMARK    8  A    between atoms: C_18  and  C_19
REMARK    9  A    between atoms: C_22  and  C_23
REMARK                            x       y       z     vdW  Elec       q    Type
REMARK                         _______ _______ _______ _____ _____    ______ ____
ROOT
ATOM      1  C   UNL     1       0.380  10.410  20.981  0.00  0.00    +0.000 A 
ATOM      2  C   UNL     1      -0.242  10.015  22.177  0.00  0.00    +0.000 A 
ATOM      3  N   UNL     1      -0.883  10.818  23.075  0.00  0.00    +0.000 NA
ATOM      4  C   UNL     1      -0.868  12.111  22.711  0.00  0.00    +0.000 A 
ATOM      5  N   UNL     1      -1.391  13.166  23.403  0.00  0.00    +0.000 N 
ATOM      6  N   UNL     1      -1.119  14.378  22.854  0.00  0.00    +0.000 NA
ATOM      7  C   UNL     1      -0.531  14.048  21.692  0.00  0.00    +0.000 A 
ATOM      8  C   UNL     1      -0.314  12.655  21.569  0.00  0.00    +0.000 A 
ATOM      9  C   UNL     1       0.324  11.782  20.675  0.00  0.00    +0.000 A 
ATOM     10  H   UNL     1      -1.914  13.117  24.269  0.00  0.00    +0.000 HD
ENDROOT
BRANCH   7  11
ATOM     11  C   UNL     1      -0.150  15.047  20.660  0.00  0.00    +0.000 A 
ATOM     12  N   UNL     1       1.047  15.584  20.599  0.00  0.00    +0.000 NA
ATOM     13  C   UNL     1       1.062  16.330  19.445  0.00  0.00    +0.000 A 
ATOM     14  C   UNL     1       2.140  16.909  18.749  0.00  0.00    +0.000 A 
ATOM     15  N   UNL     1       1.885  17.723  17.682  0.00  0.00    +0.000 NA
ATOM     16  C   UNL     1       0.603  17.868  17.263  0.00  0.00    +0.000 A 
ATOM     17  C   UNL     1      -0.498  17.198  17.788  0.00  0.00    +0.000 A 
ATOM     18  C   UNL     1      -0.214  16.400  18.893  0.00  0.00    +0.000 A 
ATOM     19  N   UNL     1      -0.936  15.485  19.623  0.00  0.00    +0.000 N 
ATOM     20  H   UNL     1      -1.880  15.167  19.447  0.00  0.00    +0.000 HD
BRANCH  14  21
ATOM     21  C   UNL     1       3.506  16.421  18.957  0.00  0.00    +0.000 A 
ATOM     22  C   UNL     1       4.398  17.053  19.837  0.00  0.00    +0.000 A 
ATOM     23  C   UNL     1       5.736  16.645  19.920  0.00  0.00    +0.000 A 
ATOM     24  C   UNL     1       6.203  15.596  19.130  0.00  0.00    +0.000 A 
ATOM     25  C   UNL     1       5.329  14.952  18.267  0.00  0.00    +0.000 A 
ATOM     26  F   UNL     1       5.768  13.954  17.492  0.00  0.00    +0.000 F 
ATOM     27  C   UNL     1       4.002  15.355  18.178  0.00  0.00    +0.000 A 
ENDBRANCH  14  21
ENDBRANCH   7  11
BRANCH   1  32
ATOM     28  C   UNL     1       2.150   7.314  19.700  0.00  0.00    +0.000 A 
ATOM     29  C   UNL     1       2.321   7.690  18.378  0.00  0.00    +0.000 A 
ATOM     30  N   UNL     1       1.886   8.862  17.863  0.00  0.00    +0.000 NA
ATOM     31  C   UNL     1       1.256   9.702  18.721  0.00  0.00    +0.000 A 
ATOM     32  C   UNL     1       1.062   9.459  20.083  0.00  0.00    +0.000 A 
ATOM     33  C   UNL     1       1.543   8.227  20.560  0.00  0.00    +0.000 A 
BRANCH  28  34
ATOM     34  O   UNL     1       2.601   6.076  20.057  0.00  0.00    +0.000 OA
BRANCH  34  35
ATOM     35  C   UNL     1       2.082   4.990  19.277  0.00  0.00    +0.000 C 
BRANCH  35  36
ATOM     36  C   UNL     1       1.014   4.268  20.112  0.00  0.00    +0.000 C 
BRANCH  36  38
ATOM     37  C   UNL     1       1.863   2.161  19.317  0.00  0.00    +0.000 C 
ATOM     38  N   UNL     1       1.363   2.886  20.488  0.00  0.00    +0.000 NA
ATOM     39  C   UNL     1       2.360   2.841  21.560  0.00  0.00    +0.000 C 
ENDBRANCH  36  38
ENDBRANCH  35  36
ENDBRANCH  34  35
ENDBRANCH  28  34
ENDBRANCH   1  32
TORSDOF 7
ENDMDL
