MODEL 1
REMARK VINA RESULT:      -7.1      0.000      0.000
REMARK  Name = 
REMARK  11 active torsions:
REMARK  status: ('A' for Active; 'I' for Inactive)
REMARK    1  A    between atoms: C_1  and  C_2
REMARK    2  A    between atoms: C_2  and  C_3
REMARK    3  A    between atoms: C_3  and  N_4
REMARK    4  A    between atoms: C_9  and  C_10
REMARK    5  A    between atoms: C_13  and  O_14
REMARK    6  A    between atoms: O_14  and  C_15
REMARK    7  A    between atoms: C_15  and  C_16
REMARK    8  A    between atoms: C_16  and  O_18
REMARK    9  A    between atoms: N_24  and  C_25
REMARK   10  A    between atoms: C_25  and  C_26
REMARK   11  A    between atoms: C_26  and  C_27
REMARK                            x       y       z     vdW  Elec       q    Type
REMARK                         _______ _______ _______ _____ _____    ______ ____
ROOT
ATOM      1  N   UNL     1      -1.363  11.905  21.931  0.00  0.00    +0.000 N 
ATOM      2  C   UNL     1      -0.414  10.920  22.195  0.00  0.00    +0.000 A 
ATOM      3  O   UNL     1       0.005  10.635  23.311  0.00  0.00    +0.000 OA
ATOM      4  C   UNL     1       0.041  10.249  21.022  0.00  0.00    +0.000 A 
ATOM      5  N   UNL     1       0.978   9.258  20.968  0.00  0.00    +0.000 N 
ATOM      6  C   UNL     1       1.164   8.842  19.664  0.00  0.00    +0.000 A 
ATOM      7  C   UNL     1       0.290   9.610  18.889  0.00  0.00    +0.000 A 
ATOM      8 CL   UNL     1       0.055   9.456  17.203  0.00  0.00    +0.000 Cl
ATOM      9  C   UNL     1      -0.400  10.513  19.753  0.00  0.00    +0.000 A 
ATOM     10  N   UNL     1      -1.352  11.517  19.556  0.00  0.00    +0.000 N 
ATOM     11  C   UNL     1      -1.870  12.219  20.662  0.00  0.00    +0.000 A 
ATOM     12  O   UNL     1      -2.735  13.090  20.523  0.00  0.00    +0.000 OA
ATOM     13  H   UNL     1       1.464   8.894  21.780  0.00  0.00    +0.000 HD
ENDROOT
BRANCH   6  14
ATOM     14  C   UNL     1       2.107   7.772  19.299  0.00  0.00    +0.000 A 
ATOM     15  C   UNL     1       2.230   6.611  20.071  0.00  0.00    +0.000 A 
ATOM     16  C   UNL     1       3.090   5.576  19.677  0.00  0.00    +0.000 A 
ATOM     17  C   UNL     1       3.823   5.671  18.494  0.00  0.00    +0.000 A 
ATOM     18  C   UNL     1       3.737   6.833  17.735  0.00  0.00    +0.000 A 
ATOM     19  C   UNL     1       2.902   7.877  18.148  0.00  0.00    +0.000 A 
BRANCH  17  20
ATOM     20  O   UNL     1       4.622   4.601  18.203  0.00  0.00    +0.000 OA
BRANCH  20  21
ATOM     21  C   UNL     1       5.203   4.607  16.892  0.00  0.00    +0.000 C 
BRANCH  21  22
ATOM     22  C   UNL     1       6.716   4.569  17.039  0.00  0.00    +0.000 C 
ATOM     23  O   UNL     1       7.497   4.856  16.144  0.00  0.00    +0.000 OA
BRANCH  22  24
ATOM     24  O   UNL     1       7.128   4.196  18.276  0.00  0.00    +0.000 OA
ATOM     25  H   UNL     1       6.536   4.596  18.952  0.00  0.00    +0.000 HD
ENDBRANCH  22  24
ENDBRANCH  21  22
ENDBRANCH  20  21
ENDBRANCH  17  20
ENDBRANCH   6  14
BRANCH   1  26
ATOM     26  C   UNL     1      -1.888  12.653  23.072  0.00  0.00    +0.000 C 
BRANCH  26  28
ATOM     27  C   UNL     1      -4.096  13.086  24.209  0.00  0.00    +0.000 C 
ATOM     28  C   UNL     1      -3.172  12.029  23.625  0.00  0.00    +0.000 C 
ENDBRANCH  26  28
ENDBRANCH   1  26
BRANCH  10  29
ATOM     29  C   UNL     1      -1.819  11.922  18.227  0.00  0.00    +0.000 C 
BRANCH  29  30
ATOM     30  C   UNL     1      -2.995  11.101  17.689  0.00  0.00    +0.000 C 
ATOM     31  C   UNL     1      -3.012  10.982  16.174  0.00  0.00    +0.000 C 
ENDBRANCH  29  30
ENDBRANCH  10  29
TORSDOF 9
ENDMDL
MODEL 2
REMARK VINA RESULT:      -7.0      2.953      9.804
REMARK  Name = 
REMARK  11 active torsions:
REMARK  status: ('A' for Active; 'I' for Inactive)
REMARK    1  A    between atoms: C_1  and  C_2
REMARK    2  A    between atoms: C_2  and  C_3
REMARK    3  A    between atoms: C_3  and  N_4
REMARK    4  A    between atoms: C_9  and  C_10
REMARK    5  A    between atoms: C_13  and  O_14
REMARK    6  A    between atoms: O_14  and  C_15
REMARK    7  A    between atoms: C_15  and  C_16
REMARK    8  A    between atoms: C_16  and  O_18
REMARK    9  A    between atoms: N_24  and  C_25
REMARK   10  A    between atoms: C_25  and  C_26
REMARK   11  A    between atoms: C_26  and  C_27
REMARK                            x       y       z     vdW  Elec       q    Type
REMARK                         _______ _______ _______ _____ _____    ______ ____
ROOT
ATOM      1  N   UNL     1       4.929   4.714  16.788  0.00  0.00    +0.000 N 
ATOM      2  C   UNL     1       4.672   6.057  17.056  0.00  0.00    +0.000 A 
ATOM      3  O   UNL     1       5.240   6.999  16.513  0.00  0.00    +0.000 OA
ATOM      4  C   UNL     1       3.662   6.251  18.043  0.00  0.00    +0.000 A 
ATOM      5  N   UNL     1       3.216   7.449  18.521  0.00  0.00    +0.000 N 
ATOM      6  C   UNL     1       2.228   7.252  19.466  0.00  0.00    +0.000 A 
ATOM      7  C   UNL     1       2.057   5.868  19.559  0.00  0.00    +0.000 A 
ATOM      8 CL   UNL     1       0.902   5.068  20.532  0.00  0.00    +0.000 Cl
ATOM      9  C   UNL     1       2.983   5.241  18.672  0.00  0.00    +0.000 A 
ATOM     10  N   UNL     1       3.291   3.915  18.359  0.00  0.00    +0.000 N 
ATOM     11  C   UNL     1       4.265   3.632  17.382  0.00  0.00    +0.000 A 
ATOM     12  O   UNL     1       4.537   2.470  17.062  0.00  0.00    +0.000 OA
ATOM     13  H   UNL     1       3.575   8.348  18.219  0.00  0.00    +0.000 HD
ENDROOT
BRANCH   6  14
ATOM     14  C   UNL     1       1.548   8.366  20.148  0.00  0.00    +0.000 A 
ATOM     15  C   UNL     1       1.343   8.359  21.533  0.00  0.00    +0.000 A 
ATOM     16  C   UNL     1       0.746   9.454  22.175  0.00  0.00    +0.000 A 
ATOM     17  C   UNL     1       0.368  10.583  21.450  0.00  0.00    +0.000 A 
ATOM     18  C   UNL     1       0.534  10.591  20.070  0.00  0.00    +0.000 A 
ATOM     19  C   UNL     1       1.100   9.483  19.428  0.00  0.00    +0.000 A 
BRANCH  17  20
ATOM     20  O   UNL     1      -0.195  11.594  22.178  0.00  0.00    +0.000 OA
BRANCH  20  21
ATOM     21  C   UNL     1      -1.265  11.202  23.048  0.00  0.00    +0.000 C 
BRANCH  21  22
ATOM     22  C   UNL     1      -2.330  12.287  23.017  0.00  0.00    +0.000 C 
ATOM     23  O   UNL     1      -2.179  13.377  22.484  0.00  0.00    +0.000 OA
BRANCH  22  24
ATOM     24  O   UNL     1      -3.484  11.927  23.631  0.00  0.00    +0.000 OA
ATOM     25  H   UNL     1      -3.344  11.089  24.125  0.00  0.00    +0.000 HD
ENDBRANCH  22  24
ENDBRANCH  21  22
ENDBRANCH  20  21
ENDBRANCH  17  20
ENDBRANCH   6  14
BRANCH   1  26
ATOM     26  C   UNL     1       5.955   4.414  15.792  0.00  0.00    +0.000 C 
BRANCH  26  28
ATOM     27  C   UNL     1       6.252   3.747  13.378  0.00  0.00    +0.000 C 
ATOM     28  C   UNL     1       5.426   4.561  14.362  0.00  0.00    +0.000 C 
ENDBRANCH  26  28
ENDBRANCH   1  26
BRANCH  10  29
ATOM     29  C   UNL     1       2.676   2.772  19.042  0.00  0.00    +0.000 C 
BRANCH  29  30
ATOM     30  C   UNL     1       3.401   2.327  20.315  0.00  0.00    +0.000 C 
ATOM     31  C   UNL     1       2.658   2.679  21.593  0.00  0.00    +0.000 C 
ENDBRANCH  29  30
ENDBRANCH  10  29
TORSDOF 9
ENDMDL
MODEL 3
REMARK VINA RESULT:      -6.9      3.023      9.745
REMARK  Name = 
REMARK  11 active torsions:
REMARK  status: ('A' for Active; 'I' for Inactive)
REMARK    1  A    between atoms: C_1  and  C_2
REMARK    2  A    between atoms: C_2  and  C_3
REMARK    3  A    between atoms: C_3  and  N_4
REMARK    4  A    between atoms: C_9  and  C_10
REMARK    5  A    between atoms: C_13  and  O_14
REMARK    6  A    between atoms: O_14  and  C_15
REMARK    7  A    between atoms: C_15  and  C_16
REMARK    8  A    between atoms: C_16  and  O_18
REMARK    9  A    between atoms: N_24  and  C_25
REMARK   10  A    between atoms: C_25  and  C_26
REMARK   11  A    between atoms: C_26  and  C_27
REMARK                            x       y       z     vdW  Elec       q    Type
REMARK                         _______ _______ _______ _____ _____    ______ ____
ROOT
ATOM      1  N   UNL     1       5.121   4.783  16.478  0.00  0.00    +0.000 N 
ATOM      2  C   UNL     1       4.729   6.116  16.585  0.00  0.00    +0.000 A 
ATOM      3  O   UNL     1       5.131   7.022  15.863  0.00  0.00    +0.000 OA
ATOM      4  C   UNL     1       3.791   6.345  17.634  0.00  0.00    +0.000 A 
ATOM      5  N   UNL     1       3.247   7.546  17.987  0.00  0.00    +0.000 N 
ATOM      6  C   UNL     1       2.375   7.387  19.046  0.00  0.00    +0.000 A 
ATOM      7  C   UNL     1       2.381   6.022  19.345  0.00  0.00    +0.000 A 
ATOM      8 CL   UNL     1       1.417   5.256  20.532  0.00  0.00    +0.000 Cl
ATOM      9  C   UNL     1       3.295   5.372  18.462  0.00  0.00    +0.000 A 
ATOM     10  N   UNL     1       3.732   4.055  18.304  0.00  0.00    +0.000 N 
ATOM     11  C   UNL     1       4.645   3.736  17.280  0.00  0.00    +0.000 A 
ATOM     12  O   UNL     1       5.025   2.575  17.097  0.00  0.00    +0.000 OA
ATOM     13  H   UNL     1       3.469   8.424  17.529  0.00  0.00    +0.000 HD
ENDROOT
BRANCH   6  14
ATOM     14  C   UNL     1       1.628   8.511  19.635  0.00  0.00    +0.000 A 
ATOM     15  C   UNL     1       1.135   9.556  18.844  0.00  0.00    +0.000 A 
ATOM     16  C   UNL     1       0.376  10.588  19.412  0.00  0.00    +0.000 A 
ATOM     17  C   UNL     1       0.073  10.582  20.774  0.00  0.00    +0.000 A 
ATOM     18  C   UNL     1       0.584   9.570  21.578  0.00  0.00    +0.000 A 
ATOM     19  C   UNL     1       1.369   8.558  21.013  0.00  0.00    +0.000 A 
BRANCH  17  20
ATOM     20  O   UNL     1      -0.681  11.632  21.218  0.00  0.00    +0.000 OA
BRANCH  20  21
ATOM     21  C   UNL     1      -1.710  12.072  20.321  0.00  0.00    +0.000 C 
BRANCH  21  22
ATOM     22  C   UNL     1      -1.596  13.580  20.164  0.00  0.00    +0.000 C 
ATOM     23  O   UNL     1      -1.915  14.383  21.029  0.00  0.00    +0.000 OA
BRANCH  22  24
ATOM     24  O   UNL     1      -1.086  13.960  18.966  0.00  0.00    +0.000 OA
ATOM     25  H   UNL     1      -0.130  14.167  19.068  0.00  0.00    +0.000 HD
ENDBRANCH  22  24
ENDBRANCH  21  22
ENDBRANCH  20  21
ENDBRANCH  17  20
ENDBRANCH   6  14
BRANCH   1  26
ATOM     26  C   UNL     1       6.085   4.450  15.433  0.00  0.00    +0.000 C 
BRANCH  26  28
ATOM     27  C   UNL     1       6.414   3.785  13.023  0.00  0.00    +0.000 C 
ATOM     28  C   UNL     1       5.398   4.087  14.114  0.00  0.00    +0.000 C 
ENDBRANCH  26  28
ENDBRANCH   1  26
BRANCH  10  29
ATOM     29  C   UNL     1       3.319   2.967  19.196  0.00  0.00    +0.000 C 
BRANCH  29  30
ATOM     30  C   UNL     1       2.302   1.997  18.585  0.00  0.00    +0.000 C 
ATOM     31  C   UNL     1       0.857   2.420  18.791  0.00  0.00    +0.000 C 
ENDBRANCH  29  30
ENDBRANCH  10  29
TORSDOF 9
ENDMDL
MODEL 4
REMARK VINA RESULT:      -6.9      0.630      1.185
REMARK  Name = 
REMARK  11 active torsions:
REMARK  status: ('A' for Active; 'I' for Inactive)
REMARK    1  A    between atoms: C_1  and  C_2
REMARK    2  A    between atoms: C_2  and  C_3
REMARK    3  A    between atoms: C_3  and  N_4
REMARK    4  A    between atoms: C_9  and  C_10
REMARK    5  A    between atoms: C_13  and  O_14
REMARK    6  A    between atoms: O_14  and  C_15
REMARK    7  A    between atoms: C_15  and  C_16
REMARK    8  A    between atoms: C_16  and  O_18
REMARK    9  A    between atoms: N_24  and  C_25
REMARK   10  A    between atoms: C_25  and  C_26
REMARK   11  A    between atoms: C_26  and  C_27
REMARK                            x       y       z     vdW  Elec       q    Type
REMARK                         _______ _______ _______ _____ _____    ______ ____
ROOT
ATOM      1  N   UNL     1      -1.459  11.800  22.056  0.00  0.00    +0.000 N 
ATOM      2  C   UNL     1      -0.459  10.851  22.260  0.00  0.00    +0.000 A 
ATOM      3  O   UNL     1       0.024  10.568  23.351  0.00  0.00    +0.000 OA
ATOM      4  C   UNL     1      -0.032  10.216  21.057  0.00  0.00    +0.000 A 
ATOM      5  N   UNL     1       0.941   9.265  20.944  0.00  0.00    +0.000 N 
ATOM      6  C   UNL     1       1.082   8.876  19.626  0.00  0.00    +0.000 A 
ATOM      7  C   UNL     1       0.143   9.618  18.905  0.00  0.00    +0.000 A 
ATOM      8 CL   UNL     1      -0.165   9.478  17.229  0.00  0.00    +0.000 Cl
ATOM      9  C   UNL     1      -0.543  10.479  19.813  0.00  0.00    +0.000 A 
ATOM     10  N   UNL     1      -1.543  11.445  19.678  0.00  0.00    +0.000 N 
ATOM     11  C   UNL     1      -2.037  12.110  20.817  0.00  0.00    +0.000 A 
ATOM     12  O   UNL     1      -2.942  12.946  20.732  0.00  0.00    +0.000 OA
ATOM     13  H   UNL     1       1.479   8.911  21.727  0.00  0.00    +0.000 HD
ENDROOT
BRANCH   6  14
ATOM     14  C   UNL     1       2.051   7.851  19.201  0.00  0.00    +0.000 A 
ATOM     15  C   UNL     1       2.812   8.005  18.036  0.00  0.00    +0.000 A 
ATOM     16  C   UNL     1       3.771   7.047  17.675  0.00  0.00    +0.000 A 
ATOM     17  C   UNL     1       4.005   5.936  18.484  0.00  0.00    +0.000 A 
ATOM     18  C   UNL     1       3.233   5.753  19.626  0.00  0.00    +0.000 A 
ATOM     19  C   UNL     1       2.254   6.693  19.965  0.00  0.00    +0.000 A 
BRANCH  17  20
ATOM     20  O   UNL     1       4.969   5.073  18.042  0.00  0.00    +0.000 OA
BRANCH  20  21
ATOM     21  C   UNL     1       5.834   5.590  17.022  0.00  0.00    +0.000 C 
BRANCH  21  22
ATOM     22  C   UNL     1       7.108   4.758  17.007  0.00  0.00    +0.000 C 
ATOM     23  O   UNL     1       7.828   4.631  16.028  0.00  0.00    +0.000 OA
BRANCH  22  24
ATOM     24  O   UNL     1       7.383   4.175  18.200  0.00  0.00    +0.000 OA
ATOM     25  H   UNL     1       7.200   4.812  18.926  0.00  0.00    +0.000 HD
ENDBRANCH  22  24
ENDBRANCH  21  22
ENDBRANCH  20  21
ENDBRANCH  17  20
ENDBRANCH   6  14
BRANCH   1  26
ATOM     26  C   UNL     1      -1.959  12.509  23.232  0.00  0.00    +0.000 C 
BRANCH  26  28
ATOM     27  C   UNL     1      -2.171  14.911  23.965  0.00  0.00    +0.000 C 
ATOM     28  C   UNL     1      -1.227  13.834  23.457  0.00  0.00    +0.000 C 
ENDBRANCH  26  28
ENDBRANCH   1  26
BRANCH  10  29
ATOM     29  C   UNL     1      -2.088  11.849  18.378  0.00  0.00    +0.000 C 
BRANCH  29  30
ATOM     30  C   UNL     1      -3.275  11.009  17.898  0.00  0.00    +0.000 C 
ATOM     31  C   UNL     1      -3.578  11.172  16.418  0.00  0.00    +0.000 C 
ENDBRANCH  29  30
ENDBRANCH  10  29
TORSDOF 9
ENDMDL
MODEL 5
REMARK VINA RESULT:      -6.9      3.379      9.446
REMARK  Name = 
REMARK  11 active torsions:
REMARK  status: ('A' for Active; 'I' for Inactive)
REMARK    1  A    between atoms: C_1  and  C_2
REMARK    2  A    between atoms: C_2  and  C_3
REMARK    3  A    between atoms: C_3  and  N_4
REMARK    4  A    between atoms: C_9  and  C_10
REMARK    5  A    between atoms: C_13  and  O_14
REMARK    6  A    between atoms: O_14  and  C_15
REMARK    7  A    between atoms: C_15  and  C_16
REMARK    8  A    between atoms: C_16  and  O_18
REMARK    9  A    between atoms: N_24  and  C_25
REMARK   10  A    between atoms: C_25  and  C_26
REMARK   11  A    between atoms: C_26  and  C_27
REMARK                            x       y       z     vdW  Elec       q    Type
REMARK                         _______ _______ _______ _____ _____    ______ ____
ROOT
ATOM      1  N   UNL     1       4.767   5.088  17.345  0.00  0.00    +0.000 N 
ATOM      2  C   UNL     1       4.425   6.355  16.878  0.00  0.00    +0.000 A 
ATOM      3  O   UNL     1       4.859   6.860  15.847  0.00  0.00    +0.000 OA
ATOM      4  C   UNL     1       3.501   7.037  17.721  0.00  0.00    +0.000 A 
ATOM      5  N   UNL     1       3.003   8.294  17.531  0.00  0.00    +0.000 N 
ATOM      6  C   UNL     1       2.129   8.625  18.547  0.00  0.00    +0.000 A 
ATOM      7  C   UNL     1       2.084   7.512  19.392  0.00  0.00    +0.000 A 
ATOM      8 CL   UNL     1       1.097   7.350  20.778  0.00  0.00    +0.000 Cl
ATOM      9  C   UNL     1       2.971   6.520  18.875  0.00  0.00    +0.000 A 
ATOM     10  N   UNL     1       3.357   5.243  19.290  0.00  0.00    +0.000 N 
ATOM     11  C   UNL     1       4.255   4.492  18.507  0.00  0.00    +0.000 A 
ATOM     12  O   UNL     1       4.591   3.349  18.832  0.00  0.00    +0.000 OA
ATOM     13  H   UNL     1       3.256   8.889  16.750  0.00  0.00    +0.000 HD
ENDROOT
BRANCH   6  14
ATOM     14  C   UNL     1       1.426   9.918  18.601  0.00  0.00    +0.000 A 
ATOM     15  C   UNL     1       2.124  11.131  18.557  0.00  0.00    +0.000 A 
ATOM     16  C   UNL     1       1.437  12.353  18.550  0.00  0.00    +0.000 A 
ATOM     17  C   UNL     1       0.042  12.385  18.560  0.00  0.00    +0.000 A 
ATOM     18  C   UNL     1      -0.663  11.189  18.638  0.00  0.00    +0.000 A 
ATOM     19  C   UNL     1       0.027   9.973  18.678  0.00  0.00    +0.000 A 
BRANCH  17  20
ATOM     20  O   UNL     1      -0.522  13.629  18.542  0.00  0.00    +0.000 OA
BRANCH  20  21
ATOM     21  C   UNL     1       0.025  14.566  19.480  0.00  0.00    +0.000 C 
BRANCH  21  22
ATOM     22  C   UNL     1       0.266  15.882  18.757  0.00  0.00    +0.000 C 
ATOM     23  O   UNL     1       1.368  16.393  18.617  0.00  0.00    +0.000 OA
BRANCH  22  24
ATOM     24  O   UNL     1      -0.866  16.440  18.262  0.00  0.00    +0.000 OA
ATOM     25  H   UNL     1      -1.087  16.023  17.400  0.00  0.00    +0.000 HD
ENDBRANCH  22  24
ENDBRANCH  21  22
ENDBRANCH  20  21
ENDBRANCH  17  20
ENDBRANCH   6  14
BRANCH   1  26
ATOM     26  C   UNL     1       5.715   4.313  16.548  0.00  0.00    +0.000 C 
BRANCH  26  28
ATOM     27  C   UNL     1       7.719   4.740  18.017  0.00  0.00    +0.000 C 
ATOM     28  C   UNL     1       7.131   4.888  16.622  0.00  0.00    +0.000 C 
ENDBRANCH  26  28
ENDBRANCH   1  26
BRANCH  10  29
ATOM     29  C   UNL     1       2.907   4.646  20.550  0.00  0.00    +0.000 C 
BRANCH  29  30
ATOM     30  C   UNL     1       1.626   3.814  20.437  0.00  0.00    +0.000 C 
ATOM     31  C   UNL     1       1.412   2.864  21.604  0.00  0.00    +0.000 C 
ENDBRANCH  29  30
ENDBRANCH  10  29
TORSDOF 9
ENDMDL
MODEL 6
REMARK VINA RESULT:      -6.9      3.040      9.738
REMARK  Name = 
REMARK  11 active torsions:
REMARK  status: ('A' for Active; 'I' for Inactive)
REMARK    1  A    between atoms: C_1  and  C_2
REMARK    2  A    between atoms: C_2  and  C_3
REMARK    3  A    between atoms: C_3  and  N_4
REMARK    4  A    between atoms: C_9  and  C_10
REMARK    5  A    between atoms: C_13  and  O_14
REMARK    6  A    between atoms: O_14  and  C_15
REMARK    7  A    between atoms: C_15  and  C_16
REMARK    8  A    between atoms: C_16  and  O_18
REMARK    9  A    between atoms: N_24  and  C_25
REMARK   10  A    between atoms: C_25  and  C_26
REMARK   11  A    between atoms: C_26  and  C_27
REMARK                            x       y       z     vdW  Elec       q    Type
REMARK                         _______ _______ _______ _____ _____    ______ ____
ROOT
ATOM      1  N   UNL     1       5.158   4.754  16.372  0.00  0.00    +0.000 N 
ATOM      2  C   UNL     1       4.792   6.094  16.465  0.00  0.00    +0.000 A 
ATOM      3  O   UNL     1       5.221   6.987  15.742  0.00  0.00    +0.000 OA
ATOM      4  C   UNL     1       3.847   6.350  17.502  0.00  0.00    +0.000 A 
ATOM      5  N   UNL     1       3.324   7.564  17.841  0.00  0.00    +0.000 N 
ATOM      6  C   UNL     1       2.436   7.429  18.890  0.00  0.00    +0.000 A 
ATOM      7  C   UNL     1       2.411   6.066  19.198  0.00  0.00    +0.000 A 
ATOM      8 CL   UNL     1       1.419   5.328  20.379  0.00  0.00    +0.000 Cl
ATOM      9  C   UNL     1       3.322   5.393  18.330  0.00  0.00    +0.000 A 
ATOM     10  N   UNL     1       3.734   4.066  18.186  0.00  0.00    +0.000 N 
ATOM     11  C   UNL     1       4.652   3.721  17.175  0.00  0.00    +0.000 A 
ATOM     12  O   UNL     1       5.011   2.552  17.004  0.00  0.00    +0.000 OA
ATOM     13  H   UNL     1       3.568   8.433  17.380  0.00  0.00    +0.000 HD
ENDROOT
BRANCH   6  14
ATOM     14  C   UNL     1       1.705   8.572  19.463  0.00  0.00    +0.000 A 
ATOM     15  C   UNL     1       1.422   8.646  20.833  0.00  0.00    +0.000 A 
ATOM     16  C   UNL     1       0.776   9.768  21.371  0.00  0.00    +0.000 A 
ATOM     17  C   UNL     1       0.426  10.846  20.558  0.00  0.00    +0.000 A 
ATOM     18  C   UNL     1       0.670  10.771  19.191  0.00  0.00    +0.000 A 
ATOM     19  C   UNL     1       1.285   9.636  18.652  0.00  0.00    +0.000 A 
BRANCH  17  20
ATOM     20  O   UNL     1      -0.190  11.890  21.190  0.00  0.00    +0.000 OA
BRANCH  20  21
ATOM     21  C   UNL     1      -1.578  12.065  20.876  0.00  0.00    +0.000 C 
BRANCH  21  22
ATOM     22  C   UNL     1      -1.751  13.420  20.208  0.00  0.00    +0.000 C 
ATOM     23  O   UNL     1      -0.826  14.092  19.777  0.00  0.00    +0.000 OA
BRANCH  22  24
ATOM     24  O   UNL     1      -3.046  13.814  20.118  0.00  0.00    +0.000 OA
ATOM     25  H   UNL     1      -3.623  13.024  20.029  0.00  0.00    +0.000 HD
ENDBRANCH  22  24
ENDBRANCH  21  22
ENDBRANCH  20  21
ENDBRANCH  17  20
ENDBRANCH   6  14
BRANCH   1  26
ATOM     26  C   UNL     1       6.128   4.394  15.340  0.00  0.00    +0.000 C 
BRANCH  26  28
ATOM     27  C   UNL     1       6.475   3.802  12.914  0.00  0.00    +0.000 C 
ATOM     28  C   UNL     1       5.451   4.071  14.005  0.00  0.00    +0.000 C 
ENDBRANCH  26  28
ENDBRANCH   1  26
BRANCH  10  29
ATOM     29  C   UNL     1       3.289   2.993  19.080  0.00  0.00    +0.000 C 
BRANCH  29  30
ATOM     30  C   UNL     1       2.254   2.043  18.467  0.00  0.00    +0.000 C 
ATOM     31  C   UNL     1       0.822   2.372  18.855  0.00  0.00    +0.000 C 
ENDBRANCH  29  30
ENDBRANCH  10  29
TORSDOF 9
ENDMDL
MODEL 7
REMARK VINA RESULT:      -6.8      2.137      2.895
REMARK  Name = 
REMARK  11 active torsions:
REMARK  status: ('A' for Active; 'I' for Inactive)
REMARK    1  A    between atoms: C_1  and  C_2
REMARK    2  A    between atoms: C_2  and  C_3
REMARK    3  A    between atoms: C_3  and  N_4
REMARK    4  A    between atoms: C_9  and  C_10
REMARK    5  A    between atoms: C_13  and  O_14
REMARK    6  A    between atoms: O_14  and  C_15
REMARK    7  A    between atoms: C_15  and  C_16
REMARK    8  A    between atoms: C_16  and  O_18
REMARK    9  A    between atoms: N_24  and  C_25
REMARK   10  A    between atoms: C_25  and  C_26
REMARK   11  A    between atoms: C_26  and  C_27
REMARK                            x       y       z     vdW  Elec       q    Type
REMARK                         _______ _______ _______ _____ _____    ______ ____
ROOT
ATOM      1  N   UNL     1      -0.866  12.072  22.263  0.00  0.00    +0.000 N 
ATOM      2  C   UNL     1      -0.553  10.720  22.380  0.00  0.00    +0.000 A 
ATOM      3  O   UNL     1      -0.906   9.999  23.307  0.00  0.00    +0.000 OA
ATOM      4  C   UNL     1       0.234  10.228  21.298  0.00  0.00    +0.000 A 
ATOM      5  N   UNL     1       0.705   8.955  21.151  0.00  0.00    +0.000 N 
ATOM      6  C   UNL     1       1.426   8.841  19.979  0.00  0.00    +0.000 A 
ATOM      7  C   UNL     1       1.382  10.102  19.378  0.00  0.00    +0.000 A 
ATOM      8 CL   UNL     1       2.055  10.508  17.859  0.00  0.00    +0.000 Cl
ATOM      9  C   UNL     1       0.645  10.980  20.229  0.00  0.00    +0.000 A 
ATOM     10  N   UNL     1       0.300  12.332  20.173  0.00  0.00    +0.000 N 
ATOM     11  C   UNL     1      -0.491  12.897  21.193  0.00  0.00    +0.000 A 
ATOM     12  O   UNL     1      -0.838  14.082  21.155  0.00  0.00    +0.000 OA
ATOM     13  H   UNL     1       0.545   8.212  21.822  0.00  0.00    +0.000 HD
ENDROOT
BRANCH   6  14
ATOM     14  C   UNL     1       2.046   7.577  19.548  0.00  0.00    +0.000 A 
ATOM     15  C   UNL     1       2.725   7.475  18.327  0.00  0.00    +0.000 A 
ATOM     16  C   UNL     1       3.359   6.280  17.958  0.00  0.00    +0.000 A 
ATOM     17  C   UNL     1       3.350   5.177  18.812  0.00  0.00    +0.000 A 
ATOM     18  C   UNL     1       2.652   5.253  20.011  0.00  0.00    +0.000 A 
ATOM     19  C   UNL     1       1.992   6.436  20.362  0.00  0.00    +0.000 A 
BRANCH  17  20
ATOM     20  O   UNL     1       4.008   4.069  18.355  0.00  0.00    +0.000 OA
BRANCH  20  21
ATOM     21  C   UNL     1       4.066   2.968  19.272  0.00  0.00    +0.000 C 
BRANCH  21  22
ATOM     22  C   UNL     1       3.217   1.835  18.715  0.00  0.00    +0.000 C 
ATOM     23  O   UNL     1       2.004   1.898  18.572  0.00  0.00    +0.000 OA
BRANCH  22  24
ATOM     24  O   UNL     1       3.938   0.740  18.372  0.00  0.00    +0.000 OA
ATOM     25  H   UNL     1       4.237   0.276  19.187  0.00  0.00    +0.000 HD
ENDBRANCH  22  24
ENDBRANCH  21  22
ENDBRANCH  20  21
ENDBRANCH  17  20
ENDBRANCH   6  14
BRANCH   1  26
ATOM     26  C   UNL     1      -1.667  12.669  23.329  0.00  0.00    +0.000 C 
BRANCH  26  28
ATOM     27  C   UNL     1      -3.969  12.442  24.332  0.00  0.00    +0.000 C 
ATOM     28  C   UNL     1      -3.168  12.564  23.046  0.00  0.00    +0.000 C 
ENDBRANCH  26  28
ENDBRANCH   1  26
BRANCH  10  29
ATOM     29  C   UNL     1       0.765  13.230  19.112  0.00  0.00    +0.000 C 
BRANCH  29  30
ATOM     30  C   UNL     1       2.136  13.862  19.371  0.00  0.00    +0.000 C 
ATOM     31  C   UNL     1       2.940  14.111  18.106  0.00  0.00    +0.000 C 
ENDBRANCH  29  30
ENDBRANCH  10  29
TORSDOF 9
ENDMDL
MODEL 8
REMARK VINA RESULT:      -6.8      3.355      9.658
REMARK  Name = 
REMARK  11 active torsions:
REMARK  status: ('A' for Active; 'I' for Inactive)
REMARK    1  A    between atoms: C_1  and  C_2
REMARK    2  A    between atoms: C_2  and  C_3
REMARK    3  A    between atoms: C_3  and  N_4
REMARK    4  A    between atoms: C_9  and  C_10
REMARK    5  A    between atoms: C_13  and  O_14
REMARK    6  A    between atoms: O_14  and  C_15
REMARK    7  A    between atoms: C_15  and  C_16
REMARK    8  A    between atoms: C_16  and  O_18
REMARK    9  A    between atoms: N_24  and  C_25
REMARK   10  A    between atoms: C_25  and  C_26
REMARK   11  A    between atoms: C_26  and  C_27
REMARK                            x       y       z     vdW  Elec       q    Type
REMARK                         _______ _______ _______ _____ _____    ______ ____
ROOT
ATOM      1  N   UNL     1       5.080   4.463  16.465  0.00  0.00    +0.000 N 
ATOM      2  C   UNL     1       4.813   5.828  16.547  0.00  0.00    +0.000 A 
ATOM      3  O   UNL     1       5.356   6.688  15.861  0.00  0.00    +0.000 OA
ATOM      4  C   UNL     1       3.825   6.151  17.522  0.00  0.00    +0.000 A 
ATOM      5  N   UNL     1       3.376   7.401  17.838  0.00  0.00    +0.000 N 
ATOM      6  C   UNL     1       2.414   7.331  18.826  0.00  0.00    +0.000 A 
ATOM      7  C   UNL     1       2.263   5.973  19.119  0.00  0.00    +0.000 A 
ATOM      8 CL   UNL     1       1.142   5.309  20.226  0.00  0.00    +0.000 Cl
ATOM      9  C   UNL     1       3.175   5.234  18.306  0.00  0.00    +0.000 A 
ATOM     10  N   UNL     1       3.492   3.880  18.176  0.00  0.00    +0.000 N 
ATOM     11  C   UNL     1       4.445   3.470  17.224  0.00  0.00    +0.000 A 
ATOM     12  O   UNL     1       4.723   2.277  17.065  0.00  0.00    +0.000 OA
ATOM     13  H   UNL     1       3.716   8.251  17.402  0.00  0.00    +0.000 HD
ENDROOT
BRANCH   6  14
ATOM     14  C   UNL     1       1.737   8.525  19.361  0.00  0.00    +0.000 A 
ATOM     15  C   UNL     1       1.397   9.603  18.536  0.00  0.00    +0.000 A 
ATOM     16  C   UNL     1       0.701  10.707  19.050  0.00  0.00    +0.000 A 
ATOM     17  C   UNL     1       0.310  10.741  20.388  0.00  0.00    +0.000 A 
ATOM     18  C   UNL     1       0.670   9.692  21.227  0.00  0.00    +0.000 A 
ATOM     19  C   UNL     1       1.393   8.608  20.718  0.00  0.00    +0.000 A 
BRANCH  17  20
ATOM     20  O   UNL     1      -0.372  11.860  20.778  0.00  0.00    +0.000 OA
BRANCH  20  21
ATOM     21  C   UNL     1       0.178  13.103  20.322  0.00  0.00    +0.000 C 
BRANCH  21  22
ATOM     22  C   UNL     1       1.198  13.580  21.345  0.00  0.00    +0.000 C 
ATOM     23  O   UNL     1       2.405  13.431  21.226  0.00  0.00    +0.000 OA
BRANCH  22  24
ATOM     24  O   UNL     1       0.640  14.208  22.409  0.00  0.00    +0.000 OA
ATOM     25  H   UNL     1       1.147  13.986  23.222  0.00  0.00    +0.000 HD
ENDBRANCH  22  24
ENDBRANCH  21  22
ENDBRANCH  20  21
ENDBRANCH  17  20
ENDBRANCH   6  14
BRANCH   1  26
ATOM     26  C   UNL     1       6.085   4.034  15.495  0.00  0.00    +0.000 C 
BRANCH  26  28
ATOM     27  C   UNL     1       6.618   4.017  13.031  0.00  0.00    +0.000 C 
ATOM     28  C   UNL     1       5.515   3.957  14.076  0.00  0.00    +0.000 C 
ENDBRANCH  26  28
ENDBRANCH   1  26
BRANCH  10  29
ATOM     29  C   UNL     1       2.908   2.841  19.029  0.00  0.00    +0.000 C 
BRANCH  29  30
ATOM     30  C   UNL     1       3.603   2.666  20.383  0.00  0.00    +0.000 C 
ATOM     31  C   UNL     1       2.639   2.568  21.554  0.00  0.00    +0.000 C 
ENDBRANCH  29  30
ENDBRANCH  10  29
TORSDOF 9
ENDMDL
MODEL 9
REMARK VINA RESULT:      -6.8      2.219      2.711
REMARK  Name = 
REMARK  11 active torsions:
REMARK  status: ('A' for Active; 'I' for Inactive)
REMARK    1  A    between atoms: C_1  and  C_2
REMARK    2  A    between atoms: C_2  and  C_3
REMARK    3  A    between atoms: C_3  and  N_4
REMARK    4  A    between atoms: C_9  and  C_10
REMARK    5  A    between atoms: C_13  and  O_14
REMARK    6  A    between atoms: O_14  and  C_15
REMARK    7  A    between atoms: C_15  and  C_16
REMARK    8  A    between atoms: C_16  and  O_18
REMARK    9  A    between atoms: N_24  and  C_25
REMARK   10  A    between atoms: C_25  and  C_26
REMARK   11  A    between atoms: C_26  and  C_27
REMARK                            x       y       z     vdW  Elec       q    Type
REMARK                         _______ _______ _______ _____ _____    ______ ____
ROOT
ATOM      1  N   UNL     1      -0.801  12.103  21.895  0.00  0.00    +0.000 N 
ATOM      2  C   UNL     1      -0.469  10.831  22.358  0.00  0.00    +0.000 A 
ATOM      3  O   UNL     1      -0.757  10.396  23.468  0.00  0.00    +0.000 OA
ATOM      4  C   UNL     1       0.253  10.055  21.406  0.00  0.00    +0.000 A 
ATOM      5  N   UNL     1       0.726   8.787  21.585  0.00  0.00    +0.000 N 
ATOM      6  C   UNL     1       1.373   8.350  20.446  0.00  0.00    +0.000 A 
ATOM      7  C   UNL     1       1.280   9.398  19.526  0.00  0.00    +0.000 A 
ATOM      8 CL   UNL     1       1.852   9.365  17.915  0.00  0.00    +0.000 Cl
ATOM      9  C   UNL     1       0.589  10.481  20.148  0.00  0.00    +0.000 A 
ATOM     10  N   UNL     1       0.229  11.769  19.745  0.00  0.00    +0.000 N 
ATOM     11  C   UNL     1      -0.502  12.599  20.618  0.00  0.00    +0.000 A 
ATOM     12  O   UNL     1      -0.861  13.731  20.279  0.00  0.00    +0.000 OA
ATOM     13  H   UNL     1       0.614   8.258  22.443  0.00  0.00    +0.000 HD
ENDROOT
BRANCH   6  14
ATOM     14  C   UNL     1       1.976   7.010  20.340  0.00  0.00    +0.000 A 
ATOM     15  C   UNL     1       1.453   5.916  21.040  0.00  0.00    +0.000 A 
ATOM     16  C   UNL     1       2.004   4.636  20.884  0.00  0.00    +0.000 A 
ATOM     17  C   UNL     1       3.067   4.422  20.007  0.00  0.00    +0.000 A 
ATOM     18  C   UNL     1       3.618   5.504  19.331  0.00  0.00    +0.000 A 
ATOM     19  C   UNL     1       3.087   6.786  19.514  0.00  0.00    +0.000 A 
BRANCH  17  20
ATOM     20  O   UNL     1       3.518   3.134  19.925  0.00  0.00    +0.000 OA
BRANCH  20  21
ATOM     21  C   UNL     1       2.622   2.208  19.294  0.00  0.00    +0.000 C 
BRANCH  21  22
ATOM     22  C   UNL     1       2.923   2.191  17.804  0.00  0.00    +0.000 C 
ATOM     23  O   UNL     1       2.213   2.716  16.958  0.00  0.00    +0.000 OA
BRANCH  22  24
ATOM     24  O   UNL     1       4.074   1.545  17.494  0.00  0.00    +0.000 OA
ATOM     25  H   UNL     1       4.812   1.919  18.025  0.00  0.00    +0.000 HD
ENDBRANCH  22  24
ENDBRANCH  21  22
ENDBRANCH  20  21
ENDBRANCH  17  20
ENDBRANCH   6  14
BRANCH   1  26
ATOM     26  C   UNL     1      -1.539  12.976  22.804  0.00  0.00    +0.000 C 
BRANCH  26  28
ATOM     27  C   UNL     1      -3.649  12.576  24.126  0.00  0.00    +0.000 C 
ATOM     28  C   UNL     1      -3.049  12.729  22.737  0.00  0.00    +0.000 C 
ENDBRANCH  26  28
ENDBRANCH   1  26
BRANCH  10  29
ATOM     29  C   UNL     1       0.619  12.337  18.451  0.00  0.00    +0.000 C 
BRANCH  29  30
ATOM     30  C   UNL     1       2.055  12.867  18.397  0.00  0.00    +0.000 C 
ATOM     31  C   UNL     1       2.150  14.379  18.512  0.00  0.00    +0.000 C 
ENDBRANCH  29  30
ENDBRANCH  10  29
TORSDOF 9
ENDMDL
