MODEL 1
REMARK VINA RESULT:      -8.1      0.000      0.000
REMARK  Name = 
REMARK  11 active torsions:
REMARK  status: ('A' for Active; 'I' for Inactive)
REMARK    1  A    between atoms: C_1  and  C_2
REMARK    2  A    between atoms: C_2  and  C_3
REMARK    3  A    between atoms: C_3  and  C_4
REMARK    4  A    between atoms: C_4  and  C_5
REMARK    5  A    between atoms: C_5  and  O_7
REMARK    6  A    between atoms: O_7  and  C_8
REMARK    7  A    between atoms: C_8  and  C_9
REMARK    8  A    between atoms: C_11  and  N_12
REMARK    9  A    between atoms: N_17  and  C_18
REMARK   10  A    between atoms: C_27  and  O_28
REMARK   11  A    between atoms: C_29  and  O_30
REMARK                            x       y       z     vdW  Elec       q    Type
REMARK                         _______ _______ _______ _____ _____    ______ ____
ROOT
ATOM      1  C   UNL     1       4.506   3.934  18.654  0.00  0.00    +0.000 C 
ATOM      2  O   UNL     1       4.441   5.339  18.973  0.00  0.00    +0.000 OA
ATOM      3  C   UNL     1       3.140   5.645  19.526  0.00  0.00    +0.000 C 
ATOM      4  C   UNL     1       2.233   4.451  19.215  0.00  0.00    +0.000 C 
ATOM      5  C   UNL     1       3.225   3.296  19.194  0.00  0.00    +0.000 C 
ENDROOT
BRANCH   3   6
ATOM      6  N   UNL     1       2.690   6.903  18.978  0.00  0.00    +0.000 N 
ATOM      7  C   UNL     1       3.004   7.421  17.750  0.00  0.00    +0.000 A 
ATOM      8  N   UNL     1       2.469   8.610  17.561  0.00  0.00    +0.000 NA
ATOM      9  C   UNL     1       1.810   8.895  18.742  0.00  0.00    +0.000 A 
ATOM     10  C   UNL     1       1.126  10.048  19.194  0.00  0.00    +0.000 A 
ATOM     11  N   UNL     1       0.965  11.172  18.410  0.00  0.00    +0.000 N 
ATOM     12  N   UNL     1       0.615  10.008  20.462  0.00  0.00    +0.000 NA
ATOM     13  C   UNL     1       0.758   8.883  21.194  0.00  0.00    +0.000 A 
ATOM     14  N   UNL     1       1.400   7.743  20.863  0.00  0.00    +0.000 NA
ATOM     15  C   UNL     1       1.917   7.831  19.625  0.00  0.00    +0.000 A 
ATOM     16  H   UNL     1       0.873  11.018  17.416  0.00  0.00    +0.000 HD
BRANCH  11  17
ATOM     17  C   UNL     1       0.835  12.491  18.993  0.00  0.00    +0.000 C 
ATOM     18  C   UNL     1       1.960  13.425  18.538  0.00  0.00    +0.000 C 
ATOM     19  C   UNL     1       1.410  14.824  18.784  0.00  0.00    +0.000 C 
ATOM     20  C   UNL     1      -0.106  14.706  18.669  0.00  0.00    +0.000 C 
ATOM     21  C   UNL     1      -0.427  13.216  18.547  0.00  0.00    +0.000 C 
ENDBRANCH  11  17
ENDBRANCH   3   6
BRANCH   4  22
ATOM     22  O   UNL     1       1.223   4.254  20.202  0.00  0.00    +0.000 OA
ATOM     23  H   UNL     1       1.646   3.763  20.938  0.00  0.00    +0.000 HD
ENDBRANCH   4  22
BRANCH   5  24
ATOM     24  O   UNL     1       3.396   2.837  20.549  0.00  0.00    +0.000 OA
ATOM     25  H   UNL     1       3.534   3.604  21.135  0.00  0.00    +0.000 HD
ENDBRANCH   5  24
BRANCH   1  26
ATOM     26  C   UNL     1       4.693   3.776  17.140  0.00  0.00    +0.000 C 
BRANCH  26  27
ATOM     27  O   UNL     1       5.326   4.927  16.563  0.00  0.00    +0.000 OA
BRANCH  27  28
ATOM     28  C   UNL     1       6.229   4.638  15.579  0.00  0.00    +0.000 C 
ATOM     29  O   UNL     1       7.437   4.632  15.724  0.00  0.00    +0.000 OA
BRANCH  28  30
ATOM     30  C   UNL     1       5.530   4.263  14.298  0.00  0.00    +0.000 C 
BRANCH  30  31
ATOM     31  C   UNL     1       6.531   3.953  13.187  0.00  0.00    +0.000 C 
BRANCH  31  33
ATOM     32  C   UNL     1       4.542   3.422  11.739  0.00  0.00    +0.000 C 
ATOM     33  C   UNL     1       5.958   3.018  12.119  0.00  0.00    +0.000 C 
ENDBRANCH  31  33
ENDBRANCH  30  31
ENDBRANCH  28  30
ENDBRANCH  27  28
ENDBRANCH  26  27
ENDBRANCH   1  26
TORSDOF 10
ENDMDL
MODEL 2
REMARK VINA RESULT:      -8.0      1.045      1.218
REMARK  Name = 
REMARK  11 active torsions:
REMARK  status: ('A' for Active; 'I' for Inactive)
REMARK    1  A    between atoms: C_1  and  C_2
REMARK    2  A    between atoms: C_2  and  C_3
REMARK    3  A    between atoms: C_3  and  C_4
REMARK    4  A    between atoms: C_4  and  C_5
REMARK    5  A    between atoms: C_5  and  O_7
REMARK    6  A    between atoms: O_7  and  C_8
REMARK    7  A    between atoms: C_8  and  C_9
REMARK    8  A    between atoms: C_11  and  N_12
REMARK    9  A    between atoms: N_17  and  C_18
REMARK   10  A    between atoms: C_27  and  O_28
REMARK   11  A    between atoms: C_29  and  O_30
REMARK                            x       y       z     vdW  Elec       q    Type
REMARK                         _______ _______ _______ _____ _____    ______ ____
ROOT
ATOM      1  C   UNL     1       6.023   4.805  19.113  0.00  0.00    +0.000 C 
ATOM      2  O   UNL     1       5.164   5.873  19.563  0.00  0.00    +0.000 OA
ATOM      3  C   UNL     1       3.791   5.552  19.239  0.00  0.00    +0.000 C 
ATOM      4  C   UNL     1       3.830   4.397  18.235  0.00  0.00    +0.000 C 
ATOM      5  C   UNL     1       5.112   3.676  18.628  0.00  0.00    +0.000 C 
ENDROOT
BRANCH   3   6
ATOM      6  N   UNL     1       3.138   6.747  18.761  0.00  0.00    +0.000 N 
ATOM      7  C   UNL     1       3.335   7.361  17.552  0.00  0.00    +0.000 A 
ATOM      8  N   UNL     1       2.618   8.459  17.430  0.00  0.00    +0.000 NA
ATOM      9  C   UNL     1       1.955   8.586  18.636  0.00  0.00    +0.000 A 
ATOM     10  C   UNL     1       1.113   9.598  19.156  0.00  0.00    +0.000 A 
ATOM     11  N   UNL     1       0.760  10.717  18.428  0.00  0.00    +0.000 N 
ATOM     12  N   UNL     1       0.649   9.424  20.430  0.00  0.00    +0.000 NA
ATOM     13  C   UNL     1       0.984   8.304  21.105  0.00  0.00    +0.000 A 
ATOM     14  N   UNL     1       1.786   7.293  20.709  0.00  0.00    +0.000 NA
ATOM     15  C   UNL     1       2.249   7.515  19.466  0.00  0.00    +0.000 A 
ATOM     16  H   UNL     1       0.666  10.593  17.431  0.00  0.00    +0.000 HD
BRANCH  11  17
ATOM     17  C   UNL     1       0.444  11.973  19.075  0.00  0.00    +0.000 C 
ATOM     18  C   UNL     1       1.636  12.933  19.061  0.00  0.00    +0.000 C 
ATOM     19  C   UNL     1       1.015  14.308  19.274  0.00  0.00    +0.000 C 
ATOM     20  C   UNL     1      -0.400  14.220  18.711  0.00  0.00    +0.000 C 
ATOM     21  C   UNL     1      -0.647  12.754  18.356  0.00  0.00    +0.000 C 
ENDBRANCH  11  17
ENDBRANCH   3   6
BRANCH   4  22
ATOM     22  O   UNL     1       2.696   3.539  18.337  0.00  0.00    +0.000 OA
ATOM     23  H   UNL     1       2.748   3.114  19.219  0.00  0.00    +0.000 HD
ENDBRANCH   4  22
BRANCH   5  24
ATOM     24  O   UNL     1       4.794   2.761  19.695  0.00  0.00    +0.000 OA
ATOM     25  H   UNL     1       3.944   2.324  19.501  0.00  0.00    +0.000 HD
ENDBRANCH   5  24
BRANCH   1  26
ATOM     26  C   UNL     1       6.971   5.349  18.037  0.00  0.00    +0.000 C 
BRANCH  26  27
ATOM     27  O   UNL     1       7.280   4.352  17.053  0.00  0.00    +0.000 OA
BRANCH  27  28
ATOM     28  C   UNL     1       7.055   4.745  15.764  0.00  0.00    +0.000 C 
ATOM     29  O   UNL     1       7.739   5.544  15.151  0.00  0.00    +0.000 OA
BRANCH  28  30
ATOM     30  C   UNL     1       5.882   4.008  15.172  0.00  0.00    +0.000 C 
BRANCH  30  31
ATOM     31  C   UNL     1       5.615   4.449  13.734  0.00  0.00    +0.000 C 
BRANCH  31  33
ATOM     32  C   UNL     1       5.118   2.861  11.845  0.00  0.00    +0.000 C 
ATOM     33  C   UNL     1       6.208   3.487  12.701  0.00  0.00    +0.000 C 
ENDBRANCH  31  33
ENDBRANCH  30  31
ENDBRANCH  28  30
ENDBRANCH  27  28
ENDBRANCH  26  27
ENDBRANCH   1  26
TORSDOF 10
ENDMDL
MODEL 3
REMARK VINA RESULT:      -8.0      1.296      2.315
REMARK  Name = 
REMARK  11 active torsions:
REMARK  status: ('A' for Active; 'I' for Inactive)
REMARK    1  A    between atoms: C_1  and  C_2
REMARK    2  A    between atoms: C_2  and  C_3
REMARK    3  A    between atoms: C_3  and  C_4
REMARK    4  A    between atoms: C_4  and  C_5
REMARK    5  A    between atoms: C_5  and  O_7
REMARK    6  A    between atoms: O_7  and  C_8
REMARK    7  A    between atoms: C_8  and  C_9
REMARK    8  A    between atoms: C_11  and  N_12
REMARK    9  A    between atoms: N_17  and  C_18
REMARK   10  A    between atoms: C_27  and  O_28
REMARK   11  A    between atoms: C_29  and  O_30
REMARK                            x       y       z     vdW  Elec       q    Type
REMARK                         _______ _______ _______ _____ _____    ______ ____
ROOT
ATOM      1  C   UNL     1       4.239   3.831  18.762  0.00  0.00    +0.000 C 
ATOM      2  O   UNL     1       4.281   5.251  19.014  0.00  0.00    +0.000 OA
ATOM      3  C   UNL     1       3.049   5.661  19.651  0.00  0.00    +0.000 C 
ATOM      4  C   UNL     1       2.053   4.512  19.474  0.00  0.00    +0.000 C 
ATOM      5  C   UNL     1       2.972   3.298  19.433  0.00  0.00    +0.000 C 
ENDROOT
BRANCH   3   6
ATOM      6  N   UNL     1       2.630   6.918  19.078  0.00  0.00    +0.000 N 
ATOM      7  C   UNL     1       2.993   7.425  17.858  0.00  0.00    +0.000 A 
ATOM      8  N   UNL     1       2.474   8.616  17.641  0.00  0.00    +0.000 NA
ATOM      9  C   UNL     1       1.773   8.913  18.794  0.00  0.00    +0.000 A 
ATOM     10  C   UNL     1       1.080  10.074  19.212  0.00  0.00    +0.000 A 
ATOM     11  N   UNL     1       0.958  11.194  18.414  0.00  0.00    +0.000 N 
ATOM     12  N   UNL     1       0.521  10.047  20.459  0.00  0.00    +0.000 NA
ATOM     13  C   UNL     1       0.629   8.927  21.204  0.00  0.00    +0.000 A 
ATOM     14  N   UNL     1       1.275   7.780  20.907  0.00  0.00    +0.000 NA
ATOM     15  C   UNL     1       1.839   7.856  19.689  0.00  0.00    +0.000 A 
ATOM     16  H   UNL     1       0.902  11.033  17.419  0.00  0.00    +0.000 HD
BRANCH  11  17
ATOM     17  C   UNL     1       0.815  12.518  18.982  0.00  0.00    +0.000 C 
ATOM     18  C   UNL     1       1.979  13.431  18.589  0.00  0.00    +0.000 C 
ATOM     19  C   UNL     1       1.439  14.841  18.796  0.00  0.00    +0.000 C 
ATOM     20  C   UNL     1      -0.070  14.746  18.593  0.00  0.00    +0.000 C 
ATOM     21  C   UNL     1      -0.407  13.261  18.460  0.00  0.00    +0.000 C 
ENDBRANCH  11  17
ENDBRANCH   3   6
BRANCH   4  22
ATOM     22  O   UNL     1       1.118   4.423  20.546  0.00  0.00    +0.000 OA
ATOM     23  H   UNL     1       0.251   4.205  20.142  0.00  0.00    +0.000 HD
ENDBRANCH   4  22
BRANCH   5  24
ATOM     24  O   UNL     1       3.226   2.892  20.792  0.00  0.00    +0.000 OA
ATOM     25  H   UNL     1       3.716   3.597  21.253  0.00  0.00    +0.000 HD
ENDBRANCH   5  24
BRANCH   1  26
ATOM     26  C   UNL     1       4.292   3.592  17.248  0.00  0.00    +0.000 C 
BRANCH  26  27
ATOM     27  O   UNL     1       4.854   4.716  16.556  0.00  0.00    +0.000 OA
BRANCH  27  28
ATOM     28  C   UNL     1       5.963   4.422  15.814  0.00  0.00    +0.000 C 
ATOM     29  O   UNL     1       5.969   3.726  14.816  0.00  0.00    +0.000 OA
BRANCH  28  30
ATOM     30  C   UNL     1       7.178   5.129  16.356  0.00  0.00    +0.000 C 
BRANCH  30  31
ATOM     31  C   UNL     1       6.801   6.435  17.051  0.00  0.00    +0.000 C 
BRANCH  31  33
ATOM     32  C   UNL     1       7.746   5.730  19.275  0.00  0.00    +0.000 C 
ATOM     33  C   UNL     1       7.757   6.796  18.191  0.00  0.00    +0.000 C 
ENDBRANCH  31  33
ENDBRANCH  30  31
ENDBRANCH  28  30
ENDBRANCH  27  28
ENDBRANCH  26  27
ENDBRANCH   1  26
TORSDOF 10
ENDMDL
MODEL 4
REMARK VINA RESULT:      -7.9      1.644      2.414
REMARK  Name = 
REMARK  11 active torsions:
REMARK  status: ('A' for Active; 'I' for Inactive)
REMARK    1  A    between atoms: C_1  and  C_2
REMARK    2  A    between atoms: C_2  and  C_3
REMARK    3  A    between atoms: C_3  and  C_4
REMARK    4  A    between atoms: C_4  and  C_5
REMARK    5  A    between atoms: C_5  and  O_7
REMARK    6  A    between atoms: O_7  and  C_8
REMARK    7  A    between atoms: C_8  and  C_9
REMARK    8  A    between atoms: C_11  and  N_12
REMARK    9  A    between atoms: N_17  and  C_18
REMARK   10  A    between atoms: C_27  and  O_28
REMARK   11  A    between atoms: C_29  and  O_30
REMARK                            x       y       z     vdW  Elec       q    Type
REMARK                         _______ _______ _______ _____ _____    ______ ____
ROOT
ATOM      1  C   UNL     1       5.122   3.917  18.095  0.00  0.00    +0.000 C 
ATOM      2  O   UNL     1       4.667   4.656  19.247  0.00  0.00    +0.000 OA
ATOM      3  C   UNL     1       3.269   4.368  19.479  0.00  0.00    +0.000 C 
ATOM      4  C   UNL     1       2.737   3.692  18.213  0.00  0.00    +0.000 C 
ATOM      5  C   UNL     1       3.979   2.986  17.684  0.00  0.00    +0.000 C 
ENDROOT
BRANCH   3   6
ATOM      6  N   UNL     1       2.598   5.596  19.835  0.00  0.00    +0.000 N 
ATOM      7  C   UNL     1       1.807   5.810  20.932  0.00  0.00    +0.000 A 
ATOM      8  N   UNL     1       1.304   7.028  20.953  0.00  0.00    +0.000 NA
ATOM      9  C   UNL     1       1.760   7.619  19.790  0.00  0.00    +0.000 A 
ATOM     10  C   UNL     1       1.496   8.877  19.198  0.00  0.00    +0.000 A 
ATOM     11  N   UNL     1       0.679   9.820  19.789  0.00  0.00    +0.000 N 
ATOM     12  N   UNL     1       2.092   9.132  17.994  0.00  0.00    +0.000 NA
ATOM     13  C   UNL     1       2.912   8.205  17.456  0.00  0.00    +0.000 A 
ATOM     14  N   UNL     1       3.217   6.978  17.930  0.00  0.00    +0.000 NA
ATOM     15  C   UNL     1       2.587   6.750  19.095  0.00  0.00    +0.000 A 
ATOM     16  H   UNL     1       0.682   9.847  20.798  0.00  0.00    +0.000 HD
BRANCH  11  17
ATOM     17  C   UNL     1      -0.061  10.783  19.001  0.00  0.00    +0.000 C 
ATOM     18  C   UNL     1      -1.157  10.111  18.169  0.00  0.00    +0.000 C 
ATOM     19  C   UNL     1      -2.128  11.239  17.845  0.00  0.00    +0.000 C 
ATOM     20  C   UNL     1      -2.001  12.244  18.985  0.00  0.00    +0.000 C 
ATOM     21  C   UNL     1      -0.829  11.784  19.852  0.00  0.00    +0.000 C 
ENDBRANCH  11  17
ENDBRANCH   3   6
BRANCH   4  22
ATOM     22  O   UNL     1       1.685   2.768  18.481  0.00  0.00    +0.000 OA
ATOM     23  H   UNL     1       0.857   3.193  18.174  0.00  0.00    +0.000 HD
ENDBRANCH   4  22
BRANCH   5  24
ATOM     24  O   UNL     1       4.075   1.710  18.347  0.00  0.00    +0.000 OA
ATOM     25  H   UNL     1       3.286   1.575  18.903  0.00  0.00    +0.000 HD
ENDBRANCH   5  24
BRANCH   1  26
ATOM     26  C   UNL     1       5.543   4.907  17.002  0.00  0.00    +0.000 C 
BRANCH  26  27
ATOM     27  O   UNL     1       6.851   4.608  16.495  0.00  0.00    +0.000 OA
BRANCH  27  28
ATOM     28  C   UNL     1       6.990   4.800  15.149  0.00  0.00    +0.000 C 
ATOM     29  O   UNL     1       7.831   5.511  14.630  0.00  0.00    +0.000 OA
BRANCH  28  30
ATOM     30  C   UNL     1       6.002   3.963  14.379  0.00  0.00    +0.000 C 
BRANCH  30  31
ATOM     31  C   UNL     1       6.281   4.009  12.879  0.00  0.00    +0.000 C 
BRANCH  31  33
ATOM     32  C   UNL     1       4.356   3.259  11.441  0.00  0.00    +0.000 C 
ATOM     33  C   UNL     1       5.648   2.837  12.123  0.00  0.00    +0.000 C 
ENDBRANCH  31  33
ENDBRANCH  30  31
ENDBRANCH  28  30
ENDBRANCH  27  28
ENDBRANCH  26  27
ENDBRANCH   1  26
TORSDOF 10
ENDMDL
MODEL 5
REMARK VINA RESULT:      -7.8      2.047      2.805
REMARK  Name = 
REMARK  11 active torsions:
REMARK  status: ('A' for Active; 'I' for Inactive)
REMARK    1  A    between atoms: C_1  and  C_2
REMARK    2  A    between atoms: C_2  and  C_3
REMARK    3  A    between atoms: C_3  and  C_4
REMARK    4  A    between atoms: C_4  and  C_5
REMARK    5  A    between atoms: C_5  and  O_7
REMARK    6  A    between atoms: O_7  and  C_8
REMARK    7  A    between atoms: C_8  and  C_9
REMARK    8  A    between atoms: C_11  and  N_12
REMARK    9  A    between atoms: N_17  and  C_18
REMARK   10  A    between atoms: C_27  and  O_28
REMARK   11  A    between atoms: C_29  and  O_30
REMARK                            x       y       z     vdW  Elec       q    Type
REMARK                         _______ _______ _______ _____ _____    ______ ____
ROOT
ATOM      1  C   UNL     1       4.539   4.131  19.454  0.00  0.00    +0.000 C 
ATOM      2  O   UNL     1       4.228   5.496  19.800  0.00  0.00    +0.000 OA
ATOM      3  C   UNL     1       2.793   5.651  19.893  0.00  0.00    +0.000 C 
ATOM      4  C   UNL     1       2.169   4.417  19.236  0.00  0.00    +0.000 C 
ATOM      5  C   UNL     1       3.224   3.351  19.496  0.00  0.00    +0.000 C 
ENDROOT
BRANCH   3   6
ATOM      6  N   UNL     1       2.424   6.909  19.287  0.00  0.00    +0.000 N 
ATOM      7  C   UNL     1       2.776   7.352  18.040  0.00  0.00    +0.000 A 
ATOM      8  N   UNL     1       2.316   8.562  17.794  0.00  0.00    +0.000 NA
ATOM      9  C   UNL     1       1.668   8.938  18.956  0.00  0.00    +0.000 A 
ATOM     10  C   UNL     1       1.053  10.149  19.352  0.00  0.00    +0.000 A 
ATOM     11  N   UNL     1       0.966  11.245  18.517  0.00  0.00    +0.000 N 
ATOM     12  N   UNL     1       0.533  10.196  20.615  0.00  0.00    +0.000 NA
ATOM     13  C   UNL     1       0.603   9.098  21.397  0.00  0.00    +0.000 A 
ATOM     14  N   UNL     1       1.176   7.908  21.122  0.00  0.00    +0.000 NA
ATOM     15  C   UNL     1       1.705   7.910  19.886  0.00  0.00    +0.000 A 
ATOM     16  H   UNL     1       0.871  11.053  17.531  0.00  0.00    +0.000 HD
BRANCH  11  17
ATOM     17  C   UNL     1       0.913  12.594  19.041  0.00  0.00    +0.000 C 
ATOM     18  C   UNL     1       2.000  13.482  18.430  0.00  0.00    +0.000 C 
ATOM     19  C   UNL     1       1.497  14.902  18.656  0.00  0.00    +0.000 C 
ATOM     20  C   UNL     1      -0.025  14.807  18.697  0.00  0.00    +0.000 C 
ATOM     21  C   UNL     1      -0.377  13.320  18.685  0.00  0.00    +0.000 C 
ENDBRANCH  11  17
ENDBRANCH   3   6
BRANCH   4  22
ATOM     22  O   UNL     1       0.914   4.061  19.812  0.00  0.00    +0.000 OA
ATOM     23  H   UNL     1       0.309   4.815  19.649  0.00  0.00    +0.000 HD
ENDBRANCH   4  22
BRANCH   5  24
ATOM     24  O   UNL     1       2.981   2.800  20.805  0.00  0.00    +0.000 OA
ATOM     25  H   UNL     1       3.177   3.475  21.481  0.00  0.00    +0.000 HD
ENDBRANCH   5  24
BRANCH   1  26
ATOM     26  C   UNL     1       5.234   4.110  18.087  0.00  0.00    +0.000 C 
BRANCH  26  27
ATOM     27  O   UNL     1       6.662   4.063  18.221  0.00  0.00    +0.000 OA
BRANCH  27  28
ATOM     28  C   UNL     1       7.327   5.004  17.488  0.00  0.00    +0.000 C 
ATOM     29  O   UNL     1       7.848   4.803  16.406  0.00  0.00    +0.000 OA
BRANCH  28  30
ATOM     30  C   UNL     1       7.278   6.349  18.164  0.00  0.00    +0.000 C 
BRANCH  30  31
ATOM     31  C   UNL     1       7.908   7.435  17.293  0.00  0.00    +0.000 C 
BRANCH  31  33
ATOM     32  C   UNL     1       8.728   9.560  18.364  0.00  0.00    +0.000 C 
ATOM     33  C   UNL     1       7.534   8.848  17.748  0.00  0.00    +0.000 C 
ENDBRANCH  31  33
ENDBRANCH  30  31
ENDBRANCH  28  30
ENDBRANCH  27  28
ENDBRANCH  26  27
ENDBRANCH   1  26
TORSDOF 10
ENDMDL
MODEL 6
REMARK VINA RESULT:      -7.7      2.869      3.775
REMARK  Name = 
REMARK  11 active torsions:
REMARK  status: ('A' for Active; 'I' for Inactive)
REMARK    1  A    between atoms: C_1  and  C_2
REMARK    2  A    between atoms: C_2  and  C_3
REMARK    3  A    between atoms: C_3  and  C_4
REMARK    4  A    between atoms: C_4  and  C_5
REMARK    5  A    between atoms: C_5  and  O_7
REMARK    6  A    between atoms: O_7  and  C_8
REMARK    7  A    between atoms: C_8  and  C_9
REMARK    8  A    between atoms: C_11  and  N_12
REMARK    9  A    between atoms: N_17  and  C_18
REMARK   10  A    between atoms: C_27  and  O_28
REMARK   11  A    between atoms: C_29  and  O_30
REMARK                            x       y       z     vdW  Elec       q    Type
REMARK                         _______ _______ _______ _____ _____    ______ ____
ROOT
ATOM      1  C   UNL     1       5.943   4.725  18.917  0.00  0.00    +0.000 C 
ATOM      2  O   UNL     1       5.139   5.821  19.399  0.00  0.00    +0.000 OA
ATOM      3  C   UNL     1       3.742   5.533  19.158  0.00  0.00    +0.000 C 
ATOM      4  C   UNL     1       3.693   4.366  18.169  0.00  0.00    +0.000 C 
ATOM      5  C   UNL     1       4.976   3.615  18.499  0.00  0.00    +0.000 C 
ENDROOT
BRANCH   3   6
ATOM      6  N   UNL     1       3.095   6.740  18.700  0.00  0.00    +0.000 N 
ATOM      7  C   UNL     1       3.283   7.365  17.496  0.00  0.00    +0.000 A 
ATOM      8  N   UNL     1       2.575   8.471  17.394  0.00  0.00    +0.000 NA
ATOM      9  C   UNL     1       1.928   8.591  18.610  0.00  0.00    +0.000 A 
ATOM     10  C   UNL     1       1.103   9.605  19.151  0.00  0.00    +0.000 A 
ATOM     11  N   UNL     1       0.752  10.736  18.440  0.00  0.00    +0.000 N 
ATOM     12  N   UNL     1       0.653   9.422  20.429  0.00  0.00    +0.000 NA
ATOM     13  C   UNL     1       0.985   8.292  21.088  0.00  0.00    +0.000 A 
ATOM     14  N   UNL     1       1.772   7.278  20.671  0.00  0.00    +0.000 NA
ATOM     15  C   UNL     1       2.222   7.509  19.425  0.00  0.00    +0.000 A 
ATOM     16  H   UNL     1       0.645  10.623  17.442  0.00  0.00    +0.000 HD
BRANCH  11  17
ATOM     17  C   UNL     1       0.456  11.987  19.104  0.00  0.00    +0.000 C 
ATOM     18  C   UNL     1       1.699  12.872  19.225  0.00  0.00    +0.000 C 
ATOM     19  C   UNL     1       1.144  14.275  19.435  0.00  0.00    +0.000 C 
ATOM     20  C   UNL     1      -0.221  14.293  18.754  0.00  0.00    +0.000 C 
ATOM     21  C   UNL     1      -0.522  12.857  18.326  0.00  0.00    +0.000 C 
ENDBRANCH  11  17
ENDBRANCH   3   6
BRANCH   4  22
ATOM     22  O   UNL     1       2.544   3.540  18.347  0.00  0.00    +0.000 OA
ATOM     23  H   UNL     1       2.705   3.011  19.157  0.00  0.00    +0.000 HD
ENDBRANCH   4  22
BRANCH   5  24
ATOM     24  O   UNL     1       4.694   2.722  19.595  0.00  0.00    +0.000 OA
ATOM     25  H   UNL     1       3.740   2.747  19.794  0.00  0.00    +0.000 HD
ENDBRANCH   5  24
BRANCH   1  26
ATOM     26  C   UNL     1       6.843   5.229  17.782  0.00  0.00    +0.000 C 
BRANCH  26  27
ATOM     27  O   UNL     1       7.851   6.127  18.267  0.00  0.00    +0.000 OA
BRANCH  27  28
ATOM     28  C   UNL     1       7.741   7.404  17.793  0.00  0.00    +0.000 C 
ATOM     29  O   UNL     1       7.062   7.737  16.840  0.00  0.00    +0.000 OA
BRANCH  28  30
ATOM     30  C   UNL     1       8.523   8.366  18.649  0.00  0.00    +0.000 C 
BRANCH  30  31
ATOM     31  C   UNL     1       8.538   9.768  18.042  0.00  0.00    +0.000 C 
BRANCH  31  33
ATOM     32  C   UNL     1      10.327  11.531  17.880  0.00  0.00    +0.000 C 
ATOM     33  C   UNL     1       9.430  10.739  18.819  0.00  0.00    +0.000 C 
ENDBRANCH  31  33
ENDBRANCH  30  31
ENDBRANCH  28  30
ENDBRANCH  27  28
ENDBRANCH  26  27
ENDBRANCH   1  26
TORSDOF 10
ENDMDL
MODEL 7
REMARK VINA RESULT:      -7.7      1.054      1.210
REMARK  Name = 
REMARK  11 active torsions:
REMARK  status: ('A' for Active; 'I' for Inactive)
REMARK    1  A    between atoms: C_1  and  C_2
REMARK    2  A    between atoms: C_2  and  C_3
REMARK    3  A    between atoms: C_3  and  C_4
REMARK    4  A    between atoms: C_4  and  C_5
REMARK    5  A    between atoms: C_5  and  O_7
REMARK    6  A    between atoms: O_7  and  C_8
REMARK    7  A    between atoms: C_8  and  C_9
REMARK    8  A    between atoms: C_11  and  N_12
REMARK    9  A    between atoms: N_17  and  C_18
REMARK   10  A    between atoms: C_27  and  O_28
REMARK   11  A    between atoms: C_29  and  O_30
REMARK                            x       y       z     vdW  Elec       q    Type
REMARK                         _______ _______ _______ _____ _____    ______ ____
ROOT
ATOM      1  C   UNL     1       4.768   4.525  19.339  0.00  0.00    +0.000 C 
ATOM      2  O   UNL     1       4.021   5.696  19.729  0.00  0.00    +0.000 OA
ATOM      3  C   UNL     1       2.729   5.677  19.080  0.00  0.00    +0.000 C 
ATOM      4  C   UNL     1       2.805   4.629  17.967  0.00  0.00    +0.000 C 
ATOM      5  C   UNL     1       3.818   3.641  18.529  0.00  0.00    +0.000 C 
ENDROOT
BRANCH   3   6
ATOM      6  N   UNL     1       2.418   7.014  18.631  0.00  0.00    +0.000 N 
ATOM      7  C   UNL     1       2.723   7.561  17.413  0.00  0.00    +0.000 A 
ATOM      8  N   UNL     1       2.341   8.818  17.323  0.00  0.00    +0.000 NA
ATOM      9  C   UNL     1       1.798   9.113  18.559  0.00  0.00    +0.000 A 
ATOM     10  C   UNL     1       1.302  10.315  19.116  0.00  0.00    +0.000 A 
ATOM     11  N   UNL     1       1.246  11.497  18.404  0.00  0.00    +0.000 N 
ATOM     12  N   UNL     1       0.868  10.265  20.412  0.00  0.00    +0.000 NA
ATOM     13  C   UNL     1       0.904   9.088  21.072  0.00  0.00    +0.000 A 
ATOM     14  N   UNL     1       1.367   7.897  20.640  0.00  0.00    +0.000 NA
ATOM     15  C   UNL     1       1.816   7.993  19.376  0.00  0.00    +0.000 A 
ATOM     16  H   UNL     1       1.075  11.416  17.413  0.00  0.00    +0.000 HD
BRANCH  11  17
ATOM     17  C   UNL     1       1.328  12.783  19.063  0.00  0.00    +0.000 C 
ATOM     18  C   UNL     1       2.534  13.592  18.579  0.00  0.00    +0.000 C 
ATOM     19  C   UNL     1       2.190  15.032  18.936  0.00  0.00    +0.000 C 
ATOM     20  C   UNL     1       0.667  15.116  18.923  0.00  0.00    +0.000 C 
ATOM     21  C   UNL     1       0.146  13.690  18.747  0.00  0.00    +0.000 C 
ENDBRANCH  11  17
ENDBRANCH   3   6
BRANCH   4  22
ATOM     22  O   UNL     1       1.550   4.002  17.713  0.00  0.00    +0.000 OA
ATOM     23  H   UNL     1       0.892   4.724  17.622  0.00  0.00    +0.000 HD
ENDBRANCH   4  22
BRANCH   5  24
ATOM     24  O   UNL     1       3.108   2.716  19.376  0.00  0.00    +0.000 OA
ATOM     25  H   UNL     1       2.988   3.114  20.258  0.00  0.00    +0.000 HD
ENDBRANCH   5  24
BRANCH   1  26
ATOM     26  C   UNL     1       6.020   4.965  18.571  0.00  0.00    +0.000 C 
BRANCH  26  27
ATOM     27  O   UNL     1       5.756   6.106  17.742  0.00  0.00    +0.000 OA
BRANCH  27  28
ATOM     28  C   UNL     1       6.427   6.104  16.551  0.00  0.00    +0.000 C 
ATOM     29  O   UNL     1       7.560   6.518  16.390  0.00  0.00    +0.000 OA
BRANCH  28  30
ATOM     30  C   UNL     1       5.603   5.457  15.468  0.00  0.00    +0.000 C 
BRANCH  30  31
ATOM     31  C   UNL     1       6.459   4.563  14.574  0.00  0.00    +0.000 C 
BRANCH  31  33
ATOM     32  C   UNL     1       6.439   3.541  12.274  0.00  0.00    +0.000 C 
ATOM     33  C   UNL     1       5.632   3.798  13.538  0.00  0.00    +0.000 C 
ENDBRANCH  31  33
ENDBRANCH  30  31
ENDBRANCH  28  30
ENDBRANCH  27  28
ENDBRANCH  26  27
ENDBRANCH   1  26
TORSDOF 10
ENDMDL
MODEL 8
REMARK VINA RESULT:      -7.7      2.111      3.518
REMARK  Name = 
REMARK  11 active torsions:
REMARK  status: ('A' for Active; 'I' for Inactive)
REMARK    1  A    between atoms: C_1  and  C_2
REMARK    2  A    between atoms: C_2  and  C_3
REMARK    3  A    between atoms: C_3  and  C_4
REMARK    4  A    between atoms: C_4  and  C_5
REMARK    5  A    between atoms: C_5  and  O_7
REMARK    6  A    between atoms: O_7  and  C_8
REMARK    7  A    between atoms: C_8  and  C_9
REMARK    8  A    between atoms: C_11  and  N_12
REMARK    9  A    between atoms: N_17  and  C_18
REMARK   10  A    between atoms: C_27  and  O_28
REMARK   11  A    between atoms: C_29  and  O_30
REMARK                            x       y       z     vdW  Elec       q    Type
REMARK                         _______ _______ _______ _____ _____    ______ ____
ROOT
ATOM      1  C   UNL     1       4.525   3.325  18.025  0.00  0.00    +0.000 C 
ATOM      2  O   UNL     1       4.244   4.148  19.175  0.00  0.00    +0.000 OA
ATOM      3  C   UNL     1       2.834   4.069  19.489  0.00  0.00    +0.000 C 
ATOM      4  C   UNL     1       2.143   3.445  18.274  0.00  0.00    +0.000 C 
ATOM      5  C   UNL     1       3.241   2.557  17.705  0.00  0.00    +0.000 C 
ENDROOT
BRANCH   3   6
ATOM      6  N   UNL     1       2.364   5.388  19.840  0.00  0.00    +0.000 N 
ATOM      7  C   UNL     1       1.629   5.730  20.944  0.00  0.00    +0.000 A 
ATOM      8  N   UNL     1       1.320   7.010  20.958  0.00  0.00    +0.000 NA
ATOM      9  C   UNL     1       1.846   7.515  19.784  0.00  0.00    +0.000 A 
ATOM     10  C   UNL     1       1.770   8.793  19.182  0.00  0.00    +0.000 A 
ATOM     11  N   UNL     1       1.115   9.855  19.773  0.00  0.00    +0.000 N 
ATOM     12  N   UNL     1       2.383   8.944  17.969  0.00  0.00    +0.000 NA
ATOM     13  C   UNL     1       3.044   7.897  17.431  0.00  0.00    +0.000 A 
ATOM     14  N   UNL     1       3.163   6.643  17.914  0.00  0.00    +0.000 NA
ATOM     15  C   UNL     1       2.520   6.524  19.089  0.00  0.00    +0.000 A 
ATOM     16  H   UNL     1       1.134   9.890  20.781  0.00  0.00    +0.000 HD
BRANCH  11  17
ATOM     17  C   UNL     1       0.521  10.914  18.983  0.00  0.00    +0.000 C 
ATOM     18  C   UNL     1      -0.855  11.316  19.520  0.00  0.00    +0.000 C 
ATOM     19  C   UNL     1      -1.086  12.712  18.954  0.00  0.00    +0.000 C 
ATOM     20  C   UNL     1       0.299  13.322  18.762  0.00  0.00    +0.000 C 
ATOM     21  C   UNL     1       1.314  12.212  19.036  0.00  0.00    +0.000 C 
ENDBRANCH  11  17
ENDBRANCH   3   6
BRANCH   4  22
ATOM     22  O   UNL     1       0.988   2.686  18.625  0.00  0.00    +0.000 OA
ATOM     23  H   UNL     1       0.398   3.292  19.122  0.00  0.00    +0.000 HD
ENDBRANCH   4  22
BRANCH   5  24
ATOM     24  O   UNL     1       3.194   1.296  18.401  0.00  0.00    +0.000 OA
ATOM     25  H   UNL     1       3.341   0.571  17.766  0.00  0.00    +0.000 HD
ENDBRANCH   5  24
BRANCH   1  26
ATOM     26  C   UNL     1       5.020   4.218  16.881  0.00  0.00    +0.000 C 
BRANCH  26  27
ATOM     27  O   UNL     1       6.423   4.041  16.642  0.00  0.00    +0.000 OA
BRANCH  27  28
ATOM     28  C   UNL     1       7.231   4.787  17.453  0.00  0.00    +0.000 C 
ATOM     29  O   UNL     1       7.839   4.357  18.416  0.00  0.00    +0.000 OA
BRANCH  28  30
ATOM     30  C   UNL     1       7.327   6.207  16.960  0.00  0.00    +0.000 C 
BRANCH  30  31
ATOM     31  C   UNL     1       7.767   7.155  18.073  0.00  0.00    +0.000 C 
BRANCH  31  33
ATOM     32  C   UNL     1       8.676   9.466  18.487  0.00  0.00    +0.000 C 
ATOM     33  C   UNL     1       7.724   8.626  17.650  0.00  0.00    +0.000 C 
ENDBRANCH  31  33
ENDBRANCH  30  31
ENDBRANCH  28  30
ENDBRANCH  27  28
ENDBRANCH  26  27
ENDBRANCH   1  26
TORSDOF 10
ENDMDL
MODEL 9
REMARK VINA RESULT:      -7.7      1.891      3.399
REMARK  Name = 
REMARK  11 active torsions:
REMARK  status: ('A' for Active; 'I' for Inactive)
REMARK    1  A    between atoms: C_1  and  C_2
REMARK    2  A    between atoms: C_2  and  C_3
REMARK    3  A    between atoms: C_3  and  C_4
REMARK    4  A    between atoms: C_4  and  C_5
REMARK    5  A    between atoms: C_5  and  O_7
REMARK    6  A    between atoms: O_7  and  C_8
REMARK    7  A    between atoms: C_8  and  C_9
REMARK    8  A    between atoms: C_11  and  N_12
REMARK    9  A    between atoms: N_17  and  C_18
REMARK   10  A    between atoms: C_27  and  O_28
REMARK   11  A    between atoms: C_29  and  O_30
REMARK                            x       y       z     vdW  Elec       q    Type
REMARK                         _______ _______ _______ _____ _____    ______ ____
ROOT
ATOM      1  C   UNL     1       4.396   3.184  17.776  0.00  0.00    +0.000 C 
ATOM      2  O   UNL     1       4.242   4.061  18.910  0.00  0.00    +0.000 OA
ATOM      3  C   UNL     1       2.899   3.937  19.433  0.00  0.00    +0.000 C 
ATOM      4  C   UNL     1       2.073   3.211  18.369  0.00  0.00    +0.000 C 
ATOM      5  C   UNL     1       3.122   2.341  17.691  0.00  0.00    +0.000 C 
ENDROOT
BRANCH   3   6
ATOM      6  N   UNL     1       2.416   5.253  19.780  0.00  0.00    +0.000 N 
ATOM      7  C   UNL     1       1.664   5.587  20.875  0.00  0.00    +0.000 A 
ATOM      8  N   UNL     1       1.346   6.866  20.887  0.00  0.00    +0.000 NA
ATOM      9  C   UNL     1       1.884   7.376  19.721  0.00  0.00    +0.000 A 
ATOM     10  C   UNL     1       1.807   8.655  19.120  0.00  0.00    +0.000 A 
ATOM     11  N   UNL     1       1.137   9.712  19.704  0.00  0.00    +0.000 N 
ATOM     12  N   UNL     1       2.435   8.812  17.916  0.00  0.00    +0.000 NA
ATOM     13  C   UNL     1       3.110   7.771  17.385  0.00  0.00    +0.000 A 
ATOM     14  N   UNL     1       3.232   6.516  17.867  0.00  0.00    +0.000 NA
ATOM     15  C   UNL     1       2.574   6.391  19.033  0.00  0.00    +0.000 A 
ATOM     16  H   UNL     1       1.143   9.745  20.713  0.00  0.00    +0.000 HD
BRANCH  11  17
ATOM     17  C   UNL     1       0.547  10.767  18.908  0.00  0.00    +0.000 C 
ATOM     18  C   UNL     1      -0.858  10.395  18.427  0.00  0.00    +0.000 C 
ATOM     19  C   UNL     1      -1.508  11.733  18.094  0.00  0.00    +0.000 C 
ATOM     20  C   UNL     1      -0.834  12.763  18.993  0.00  0.00    +0.000 C 
ATOM     21  C   UNL     1       0.322  12.051  19.696  0.00  0.00    +0.000 C 
ENDBRANCH  11  17
ENDBRANCH   3   6
BRANCH   4  22
ATOM     22  O   UNL     1       1.023   2.424  18.927  0.00  0.00    +0.000 OA
ATOM     23  H   UNL     1       0.202   2.680  18.455  0.00  0.00    +0.000 HD
ENDBRANCH   4  22
BRANCH   5  24
ATOM     24  O   UNL     1       3.244   1.123  18.452  0.00  0.00    +0.000 OA
ATOM     25  H   UNL     1       4.153   1.048  18.796  0.00  0.00    +0.000 HD
ENDBRANCH   5  24
BRANCH   1  26
ATOM     26  C   UNL     1       4.671   4.028  16.527  0.00  0.00    +0.000 C 
BRANCH  26  27
ATOM     27  O   UNL     1       5.944   3.713  15.945  0.00  0.00    +0.000 OA
BRANCH  27  28
ATOM     28  C   UNL     1       6.763   4.791  15.765  0.00  0.00    +0.000 C 
ATOM     29  O   UNL     1       6.950   5.353  14.702  0.00  0.00    +0.000 OA
BRANCH  28  30
ATOM     30  C   UNL     1       7.362   5.239  17.073  0.00  0.00    +0.000 C 
BRANCH  30  31
ATOM     31  C   UNL     1       6.979   6.681  17.397  0.00  0.00    +0.000 C 
BRANCH  31  33
ATOM     32  C   UNL     1       8.162   8.847  17.894  0.00  0.00    +0.000 C 
ATOM     33  C   UNL     1       8.013   7.383  18.281  0.00  0.00    +0.000 C 
ENDBRANCH  31  33
ENDBRANCH  30  31
ENDBRANCH  28  30
ENDBRANCH  27  28
ENDBRANCH  26  27
ENDBRANCH   1  26
TORSDOF 10
ENDMDL
