MODEL 1
REMARK VINA RESULT:      -7.7      0.000      0.000
REMARK  Name = 
REMARK  10 active torsions:
REMARK  status: ('A' for Active; 'I' for Inactive)
REMARK    1  A    between atoms: C_2  and  C_3
REMARK    2  A    between atoms: C_2  and  C_24
REMARK    3  A    between atoms: C_3  and  C_4
REMARK    4  A    between atoms: C_4  and  C_5
REMARK    5  A    between atoms: C_5  and  C_6
REMARK    6  A    between atoms: C_6  and  C_7
REMARK    7  A    between atoms: C_7  and  C_8
REMARK    8  A    between atoms: C_8  and  C_9
REMARK    9  A    between atoms: C_11  and  C_12
REMARK   10  A    between atoms: C_15  and  C_16
REMARK                            x       y       z     vdW  Elec       q    Type
REMARK                         _______ _______ _______ _____ _____    ______ ____
ROOT
ATOM      1  C   UNL     1       7.829   6.848  18.226  0.00  0.00    +0.000 A 
ATOM      2  N   UNL     1       8.584   7.662  18.926  0.00  0.00    +0.000 NA
ATOM      3  C   UNL     1       8.404   8.866  18.278  0.00  0.00    +0.000 A 
ATOM      4  N   UNL     1       7.582   8.793  17.217  0.00  0.00    +0.000 NA
ATOM      5  O   UNL     1       7.199   7.455  17.183  0.00  0.00    +0.000 OA
ENDROOT
BRANCH   3   6
ATOM      6  C   UNL     1       9.052  10.094  18.725  0.00  0.00    +0.000 A 
ATOM      7  C   UNL     1       9.435  11.071  17.796  0.00  0.00    +0.000 A 
ATOM      8  C   UNL     1      10.056  12.252  18.214  0.00  0.00    +0.000 A 
ATOM      9  C   UNL     1      10.308  12.480  19.575  0.00  0.00    +0.000 A 
ATOM     10  C   UNL     1       9.930  11.501  20.506  0.00  0.00    +0.000 A 
ATOM     11  C   UNL     1       9.308  10.322  20.085  0.00  0.00    +0.000 A 
BRANCH   9  12
ATOM     12  C   UNL     1      10.974  13.750  20.047  0.00  0.00    +0.000 C 
ATOM     13  F   UNL     1      10.718  14.048  21.351  0.00  0.00    +0.000 F 
ATOM     14  F   UNL     1      12.331  13.698  19.936  0.00  0.00    +0.000 F 
ATOM     15  F   UNL     1      10.582  14.840  19.331  0.00  0.00    +0.000 F 
ENDBRANCH   9  12
ENDBRANCH   3   6
BRANCH   1  16
ATOM     16  C   UNL     1       7.566   5.405  18.424  0.00  0.00    +0.000 C 
BRANCH  16  17
ATOM     17  C   UNL     1       6.726   4.838  17.279  0.00  0.00    +0.000 C 
BRANCH  17  18
ATOM     18  C   UNL     1       5.431   4.222  17.805  0.00  0.00    +0.000 C 
BRANCH  18  19
ATOM     19  C   UNL     1       4.251   4.512  16.877  0.00  0.00    +0.000 C 
BRANCH  19  20
ATOM     20  C   UNL     1       3.070   3.604  17.214  0.00  0.00    +0.000 C 
BRANCH  20  21
ATOM     21  C   UNL     1       1.897   4.385  17.803  0.00  0.00    +0.000 C 
BRANCH  21  23
ATOM     22  O   UNL     1       2.138   5.115  20.085  0.00  0.00    +0.000 OA
ATOM     23  C   UNL     1       1.796   4.216  19.310  0.00  0.00    +0.000 C 
BRANCH  23  24
ATOM     24  C   UNL     1       1.252   2.878  19.788  0.00  0.00    +0.000 C 
ATOM     25  F   UNL     1       2.203   1.902  19.800  0.00  0.00    +0.000 F 
ATOM     26  F   UNL     1       0.759   2.941  21.055  0.00  0.00    +0.000 F 
ATOM     27  F   UNL     1       0.246   2.416  18.997  0.00  0.00    +0.000 F 
ENDBRANCH  23  24
ENDBRANCH  21  23
ENDBRANCH  20  21
ENDBRANCH  19  20
ENDBRANCH  18  19
ENDBRANCH  17  18
ENDBRANCH  16  17
ENDBRANCH   1  16
TORSDOF 10
ENDMDL
MODEL 2
REMARK VINA RESULT:      -7.5      1.106      1.493
REMARK  Name = 
REMARK  10 active torsions:
REMARK  status: ('A' for Active; 'I' for Inactive)
REMARK    1  A    between atoms: C_2  and  C_3
REMARK    2  A    between atoms: C_2  and  C_24
REMARK    3  A    between atoms: C_3  and  C_4
REMARK    4  A    between atoms: C_4  and  C_5
REMARK    5  A    between atoms: C_5  and  C_6
REMARK    6  A    between atoms: C_6  and  C_7
REMARK    7  A    between atoms: C_7  and  C_8
REMARK    8  A    between atoms: C_8  and  C_9
REMARK    9  A    between atoms: C_11  and  C_12
REMARK   10  A    between atoms: C_15  and  C_16
REMARK                            x       y       z     vdW  Elec       q    Type
REMARK                         _______ _______ _______ _____ _____    ______ ____
ROOT
ATOM      1  C   UNL     1       7.777   6.955  18.138  0.00  0.00    +0.000 A 
ATOM      2  N   UNL     1       8.509   7.782  18.848  0.00  0.00    +0.000 NA
ATOM      3  C   UNL     1       8.337   8.978  18.183  0.00  0.00    +0.000 A 
ATOM      4  N   UNL     1       7.541   8.888  17.104  0.00  0.00    +0.000 NA
ATOM      5  O   UNL     1       7.169   7.547  17.074  0.00  0.00    +0.000 OA
ENDROOT
BRANCH   3   6
ATOM      6  C   UNL     1       8.965  10.215  18.634  0.00  0.00    +0.000 A 
ATOM      7  C   UNL     1       8.895  11.372  17.845  0.00  0.00    +0.000 A 
ATOM      8  C   UNL     1       9.493  12.563  18.268  0.00  0.00    +0.000 A 
ATOM      9  C   UNL     1      10.175  12.621  19.492  0.00  0.00    +0.000 A 
ATOM     10  C   UNL     1      10.249  11.463  20.280  0.00  0.00    +0.000 A 
ATOM     11  C   UNL     1       9.649  10.274  19.856  0.00  0.00    +0.000 A 
BRANCH   9  12
ATOM     12  C   UNL     1      10.823  13.899  19.968  0.00  0.00    +0.000 C 
ATOM     13  F   UNL     1      10.425  15.004  19.276  0.00  0.00    +0.000 F 
ATOM     14  F   UNL     1      10.553  14.162  21.277  0.00  0.00    +0.000 F 
ATOM     15  F   UNL     1      12.180  13.864  19.866  0.00  0.00    +0.000 F 
ENDBRANCH   9  12
ENDBRANCH   3   6
BRANCH   1  16
ATOM     16  C   UNL     1       7.520   5.513  18.344  0.00  0.00    +0.000 C 
BRANCH  16  17
ATOM     17  C   UNL     1       6.107   5.277  18.877  0.00  0.00    +0.000 C 
BRANCH  17  18
ATOM     18  C   UNL     1       5.092   5.236  17.737  0.00  0.00    +0.000 C 
BRANCH  18  19
ATOM     19  C   UNL     1       4.589   3.815  17.480  0.00  0.00    +0.000 C 
BRANCH  19  20
ATOM     20  C   UNL     1       3.063   3.769  17.539  0.00  0.00    +0.000 C 
BRANCH  20  21
ATOM     21  C   UNL     1       2.549   2.417  18.027  0.00  0.00    +0.000 C 
BRANCH  21  23
ATOM     22  O   UNL     1       0.213   2.143  18.543  0.00  0.00    +0.000 OA
ATOM     23  C   UNL     1       1.319   2.556  18.908  0.00  0.00    +0.000 C 
BRANCH  23  24
ATOM     24  C   UNL     1       1.544   3.231  20.253  0.00  0.00    +0.000 C 
ATOM     25  F   UNL     1       0.772   2.698  21.241  0.00  0.00    +0.000 F 
ATOM     26  F   UNL     1       2.832   3.122  20.678  0.00  0.00    +0.000 F 
ATOM     27  F   UNL     1       1.251   4.560  20.219  0.00  0.00    +0.000 F 
ENDBRANCH  23  24
ENDBRANCH  21  23
ENDBRANCH  20  21
ENDBRANCH  19  20
ENDBRANCH  18  19
ENDBRANCH  17  18
ENDBRANCH  16  17
ENDBRANCH   1  16
TORSDOF 10
ENDMDL
MODEL 3
REMARK VINA RESULT:      -7.5      5.457      8.255
REMARK  Name = 
REMARK  10 active torsions:
REMARK  status: ('A' for Active; 'I' for Inactive)
REMARK    1  A    between atoms: C_2  and  C_3
REMARK    2  A    between atoms: C_2  and  C_24
REMARK    3  A    between atoms: C_3  and  C_4
REMARK    4  A    between atoms: C_4  and  C_5
REMARK    5  A    between atoms: C_5  and  C_6
REMARK    6  A    between atoms: C_6  and  C_7
REMARK    7  A    between atoms: C_7  and  C_8
REMARK    8  A    between atoms: C_8  and  C_9
REMARK    9  A    between atoms: C_11  and  C_12
REMARK   10  A    between atoms: C_15  and  C_16
REMARK                            x       y       z     vdW  Elec       q    Type
REMARK                         _______ _______ _______ _____ _____    ______ ____
ROOT
ATOM      1  C   UNL     1       2.919   5.896  19.048  0.00  0.00    +0.000 A 
ATOM      2  N   UNL     1       2.165   6.403  19.996  0.00  0.00    +0.000 NA
ATOM      3  C   UNL     1       1.948   7.690  19.549  0.00  0.00    +0.000 A 
ATOM      4  N   UNL     1       2.553   7.966  18.380  0.00  0.00    +0.000 NA
ATOM      5  O   UNL     1       3.195   6.777  18.048  0.00  0.00    +0.000 OA
ENDROOT
BRANCH   3   6
ATOM      6  C   UNL     1       1.129   8.641  20.290  0.00  0.00    +0.000 A 
ATOM      7  C   UNL     1       0.699   8.343  21.591  0.00  0.00    +0.000 A 
ATOM      8  C   UNL     1      -0.086   9.248  22.310  0.00  0.00    +0.000 A 
ATOM      9  C   UNL     1      -0.460  10.474  21.742  0.00  0.00    +0.000 A 
ATOM     10  C   UNL     1      -0.035  10.773  20.439  0.00  0.00    +0.000 A 
ATOM     11  C   UNL     1       0.752   9.867  19.721  0.00  0.00    +0.000 A 
BRANCH   9  12
ATOM     12  C   UNL     1      -1.304  11.467  22.504  0.00  0.00    +0.000 C 
ATOM     13  F   UNL     1      -0.592  12.507  23.020  0.00  0.00    +0.000 F 
ATOM     14  F   UNL     1      -2.274  12.028  21.729  0.00  0.00    +0.000 F 
ATOM     15  F   UNL     1      -1.951  10.899  23.559  0.00  0.00    +0.000 F 
ENDBRANCH   9  12
ENDBRANCH   3   6
BRANCH   1  16
ATOM     16  C   UNL     1       3.478   4.533  18.918  0.00  0.00    +0.000 C 
BRANCH  16  17
ATOM     17  C   UNL     1       3.514   4.091  17.455  0.00  0.00    +0.000 C 
BRANCH  17  18
ATOM     18  C   UNL     1       4.935   3.729  17.028  0.00  0.00    +0.000 C 
BRANCH  18  19
ATOM     19  C   UNL     1       5.209   4.133  15.579  0.00  0.00    +0.000 C 
BRANCH  19  20
ATOM     20  C   UNL     1       6.281   5.220  15.521  0.00  0.00    +0.000 C 
BRANCH  20  21
ATOM     21  C   UNL     1       5.955   6.396  16.439  0.00  0.00    +0.000 C 
BRANCH  21  23
ATOM     22  O   UNL     1       7.778   7.883  16.950  0.00  0.00    +0.000 OA
ATOM     23  C   UNL     1       7.166   6.850  17.238  0.00  0.00    +0.000 C 
BRANCH  23  24
ATOM     24  C   UNL     1       7.564   5.953  18.400  0.00  0.00    +0.000 C 
ATOM     25  F   UNL     1       8.571   6.483  19.148  0.00  0.00    +0.000 F 
ATOM     26  F   UNL     1       6.532   5.729  19.259  0.00  0.00    +0.000 F 
ATOM     27  F   UNL     1       8.002   4.733  17.985  0.00  0.00    +0.000 F 
ENDBRANCH  23  24
ENDBRANCH  21  23
ENDBRANCH  20  21
ENDBRANCH  19  20
ENDBRANCH  18  19
ENDBRANCH  17  18
ENDBRANCH  16  17
ENDBRANCH   1  16
TORSDOF 10
ENDMDL
MODEL 4
REMARK VINA RESULT:      -7.5      6.705      8.203
REMARK  Name = 
REMARK  10 active torsions:
REMARK  status: ('A' for Active; 'I' for Inactive)
REMARK    1  A    between atoms: C_2  and  C_3
REMARK    2  A    between atoms: C_2  and  C_24
REMARK    3  A    between atoms: C_3  and  C_4
REMARK    4  A    between atoms: C_4  and  C_5
REMARK    5  A    between atoms: C_5  and  C_6
REMARK    6  A    between atoms: C_6  and  C_7
REMARK    7  A    between atoms: C_7  and  C_8
REMARK    8  A    between atoms: C_8  and  C_9
REMARK    9  A    between atoms: C_11  and  C_12
REMARK   10  A    between atoms: C_15  and  C_16
REMARK                            x       y       z     vdW  Elec       q    Type
REMARK                         _______ _______ _______ _____ _____    ______ ____
ROOT
ATOM      1  C   UNL     1       2.195   7.826  19.104  0.00  0.00    +0.000 A 
ATOM      2  N   UNL     1       1.508   8.928  19.298  0.00  0.00    +0.000 NA
ATOM      3  C   UNL     1       1.006   8.747  20.569  0.00  0.00    +0.000 A 
ATOM      4  N   UNL     1       1.359   7.577  21.129  0.00  0.00    +0.000 NA
ATOM      5  O   UNL     1       2.149   6.967  20.159  0.00  0.00    +0.000 OA
ENDROOT
BRANCH   3   6
ATOM      6  C   UNL     1       0.176   9.750  21.227  0.00  0.00    +0.000 A 
ATOM      7  C   UNL     1      -0.167  10.933  20.558  0.00  0.00    +0.000 A 
ATOM      8  C   UNL     1      -0.962  11.901  21.179  0.00  0.00    +0.000 A 
ATOM      9  C   UNL     1      -1.432  11.705  22.485  0.00  0.00    +0.000 A 
ATOM     10  C   UNL     1      -1.087  10.523  23.157  0.00  0.00    +0.000 A 
ATOM     11  C   UNL     1      -0.292   9.556  22.534  0.00  0.00    +0.000 A 
BRANCH   9  12
ATOM     12  C   UNL     1      -2.296  12.736  23.171  0.00  0.00    +0.000 C 
ATOM     13  F   UNL     1      -3.041  13.484  22.309  0.00  0.00    +0.000 F 
ATOM     14  F   UNL     1      -3.182  12.175  24.040  0.00  0.00    +0.000 F 
ATOM     15  F   UNL     1      -1.567  13.624  23.901  0.00  0.00    +0.000 F 
ENDBRANCH   9  12
ENDBRANCH   3   6
BRANCH   1  16
ATOM     16  C   UNL     1       3.001   7.413  17.934  0.00  0.00    +0.000 C 
BRANCH  16  17
ATOM     17  C   UNL     1       3.665   6.057  18.175  0.00  0.00    +0.000 C 
BRANCH  17  18
ATOM     18  C   UNL     1       4.483   5.625  16.960  0.00  0.00    +0.000 C 
BRANCH  18  19
ATOM     19  C   UNL     1       4.373   4.121  16.711  0.00  0.00    +0.000 C 
BRANCH  19  20
ATOM     20  C   UNL     1       3.139   3.553  17.410  0.00  0.00    +0.000 C 
BRANCH  20  21
ATOM     21  C   UNL     1       3.455   2.274  18.181  0.00  0.00    +0.000 C 
BRANCH  21  23
ATOM     22  O   UNL     1       5.020   2.602  19.981  0.00  0.00    +0.000 OA
ATOM     23  C   UNL     1       3.839   2.555  19.625  0.00  0.00    +0.000 C 
BRANCH  23  24
ATOM     24  C   UNL     1       2.679   2.772  20.585  0.00  0.00    +0.000 C 
ATOM     25  F   UNL     1       2.931   2.277  21.829  0.00  0.00    +0.000 F 
ATOM     26  F   UNL     1       2.386   4.090  20.755  0.00  0.00    +0.000 F 
ATOM     27  F   UNL     1       1.536   2.166  20.161  0.00  0.00    +0.000 F 
ENDBRANCH  23  24
ENDBRANCH  21  23
ENDBRANCH  20  21
ENDBRANCH  19  20
ENDBRANCH  18  19
ENDBRANCH  17  18
ENDBRANCH  16  17
ENDBRANCH   1  16
TORSDOF 10
ENDMDL
MODEL 5
REMARK VINA RESULT:      -7.4      7.030      8.660
REMARK  Name = 
REMARK  10 active torsions:
REMARK  status: ('A' for Active; 'I' for Inactive)
REMARK    1  A    between atoms: C_2  and  C_3
REMARK    2  A    between atoms: C_2  and  C_24
REMARK    3  A    between atoms: C_3  and  C_4
REMARK    4  A    between atoms: C_4  and  C_5
REMARK    5  A    between atoms: C_5  and  C_6
REMARK    6  A    between atoms: C_6  and  C_7
REMARK    7  A    between atoms: C_7  and  C_8
REMARK    8  A    between atoms: C_8  and  C_9
REMARK    9  A    between atoms: C_11  and  C_12
REMARK   10  A    between atoms: C_15  and  C_16
REMARK                            x       y       z     vdW  Elec       q    Type
REMARK                         _______ _______ _______ _____ _____    ______ ____
ROOT
ATOM      1  C   UNL     1       1.785   8.106  19.669  0.00  0.00    +0.000 A 
ATOM      2  N   UNL     1       1.055   8.542  20.669  0.00  0.00    +0.000 NA
ATOM      3  C   UNL     1       0.538   9.719  20.169  0.00  0.00    +0.000 A 
ATOM      4  N   UNL     1       0.942  10.000  18.918  0.00  0.00    +0.000 NA
ATOM      5  O   UNL     1       1.768   8.930  18.586  0.00  0.00    +0.000 OA
ENDROOT
BRANCH   3   6
ATOM      6  C   UNL     1      -0.368  10.560  20.943  0.00  0.00    +0.000 A 
ATOM      7  C   UNL     1      -0.497  10.374  22.327  0.00  0.00    +0.000 A 
ATOM      8  C   UNL     1      -1.363  11.175  23.078  0.00  0.00    +0.000 A 
ATOM      9  C   UNL     1      -2.119  12.180  22.460  0.00  0.00    +0.000 A 
ATOM     10  C   UNL     1      -1.995  12.365  21.075  0.00  0.00    +0.000 A 
ATOM     11  C   UNL     1      -1.128  11.564  20.325  0.00  0.00    +0.000 A 
BRANCH   9  12
ATOM     12  C   UNL     1      -3.056  13.058  23.255  0.00  0.00    +0.000 C 
ATOM     13  F   UNL     1      -4.219  12.441  23.604  0.00  0.00    +0.000 F 
ATOM     14  F   UNL     1      -2.498  13.489  24.421  0.00  0.00    +0.000 F 
ATOM     15  F   UNL     1      -3.419  14.181  22.577  0.00  0.00    +0.000 F 
ENDBRANCH   9  12
ENDBRANCH   3   6
BRANCH   1  16
ATOM     16  C   UNL     1       2.587   6.868  19.560  0.00  0.00    +0.000 C 
BRANCH  16  17
ATOM     17  C   UNL     1       3.062   6.645  18.124  0.00  0.00    +0.000 C 
BRANCH  17  18
ATOM     18  C   UNL     1       3.328   5.164  17.859  0.00  0.00    +0.000 C 
BRANCH  18  19
ATOM     19  C   UNL     1       2.028   4.383  17.667  0.00  0.00    +0.000 C 
BRANCH  19  20
ATOM     20  C   UNL     1       2.305   2.881  17.649  0.00  0.00    +0.000 C 
BRANCH  20  21
ATOM     21  C   UNL     1       1.765   2.184  18.895  0.00  0.00    +0.000 C 
BRANCH  21  23
ATOM     22  O   UNL     1       3.688   2.384  20.330  0.00  0.00    +0.000 OA
ATOM     23  C   UNL     1       2.489   2.625  20.157  0.00  0.00    +0.000 C 
BRANCH  23  24
ATOM     24  C   UNL     1       1.643   3.373  21.176  0.00  0.00    +0.000 C 
ATOM     25  F   UNL     1       0.615   4.057  20.599  0.00  0.00    +0.000 F 
ATOM     26  F   UNL     1       1.078   2.541  22.092  0.00  0.00    +0.000 F 
ATOM     27  F   UNL     1       2.365   4.293  21.872  0.00  0.00    +0.000 F 
ENDBRANCH  23  24
ENDBRANCH  21  23
ENDBRANCH  20  21
ENDBRANCH  19  20
ENDBRANCH  18  19
ENDBRANCH  17  18
ENDBRANCH  16  17
ENDBRANCH   1  16
TORSDOF 10
ENDMDL
MODEL 6
REMARK VINA RESULT:      -7.4      5.092      7.382
REMARK  Name = 
REMARK  10 active torsions:
REMARK  status: ('A' for Active; 'I' for Inactive)
REMARK    1  A    between atoms: C_2  and  C_3
REMARK    2  A    between atoms: C_2  and  C_24
REMARK    3  A    between atoms: C_3  and  C_4
REMARK    4  A    between atoms: C_4  and  C_5
REMARK    5  A    between atoms: C_5  and  C_6
REMARK    6  A    between atoms: C_6  and  C_7
REMARK    7  A    between atoms: C_7  and  C_8
REMARK    8  A    between atoms: C_8  and  C_9
REMARK    9  A    between atoms: C_11  and  C_12
REMARK   10  A    between atoms: C_15  and  C_16
REMARK                            x       y       z     vdW  Elec       q    Type
REMARK                         _______ _______ _______ _____ _____    ______ ____
ROOT
ATOM      1  C   UNL     1       2.630   4.101  18.680  0.00  0.00    +0.000 A 
ATOM      2  N   UNL     1       2.141   5.226  18.210  0.00  0.00    +0.000 NA
ATOM      3  C   UNL     1       2.380   6.108  19.243  0.00  0.00    +0.000 A 
ATOM      4  N   UNL     1       2.981   5.548  20.307  0.00  0.00    +0.000 NA
ATOM      5  O   UNL     1       3.147   4.217  19.933  0.00  0.00    +0.000 OA
ENDROOT
BRANCH   3   6
ATOM      6  C   UNL     1       2.013   7.517  19.161  0.00  0.00    +0.000 A 
ATOM      7  C   UNL     1       2.212   8.232  17.971  0.00  0.00    +0.000 A 
ATOM      8  C   UNL     1       1.863   9.582  17.881  0.00  0.00    +0.000 A 
ATOM      9  C   UNL     1       1.307  10.249  18.982  0.00  0.00    +0.000 A 
ATOM     10  C   UNL     1       1.112   9.537  20.175  0.00  0.00    +0.000 A 
ATOM     11  C   UNL     1       1.460   8.186  20.263  0.00  0.00    +0.000 A 
BRANCH   9  12
ATOM     12  C   UNL     1       0.920  11.706  18.903  0.00  0.00    +0.000 C 
ATOM     13  F   UNL     1      -0.309  11.915  18.353  0.00  0.00    +0.000 F 
ATOM     14  F   UNL     1       0.885  12.301  20.128  0.00  0.00    +0.000 F 
ATOM     15  F   UNL     1       1.792  12.437  18.157  0.00  0.00    +0.000 F 
ENDBRANCH   9  12
ENDBRANCH   3   6
BRANCH   1  16
ATOM     16  C   UNL     1       2.705   2.769  18.041  0.00  0.00    +0.000 C 
BRANCH  16  17
ATOM     17  C   UNL     1       3.929   2.665  17.130  0.00  0.00    +0.000 C 
BRANCH  17  18
ATOM     18  C   UNL     1       4.787   3.925  17.222  0.00  0.00    +0.000 C 
BRANCH  18  19
ATOM     19  C   UNL     1       5.246   4.397  15.842  0.00  0.00    +0.000 C 
BRANCH  19  20
ATOM     20  C   UNL     1       5.258   5.923  15.776  0.00  0.00    +0.000 C 
BRANCH  20  21
ATOM     21  C   UNL     1       5.440   6.554  17.155  0.00  0.00    +0.000 C 
BRANCH  21  23
ATOM     22  O   UNL     1       7.526   7.719  16.859  0.00  0.00    +0.000 OA
ATOM     23  C   UNL     1       6.900   6.843  17.463  0.00  0.00    +0.000 C 
BRANCH  23  24
ATOM     24  C   UNL     1       7.525   5.987  18.554  0.00  0.00    +0.000 C 
ATOM     25  F   UNL     1       8.571   6.606  19.169  0.00  0.00    +0.000 F 
ATOM     26  F   UNL     1       6.640   5.672  19.537  0.00  0.00    +0.000 F 
ATOM     27  F   UNL     1       8.013   4.811  18.072  0.00  0.00    +0.000 F 
ENDBRANCH  23  24
ENDBRANCH  21  23
ENDBRANCH  20  21
ENDBRANCH  19  20
ENDBRANCH  18  19
ENDBRANCH  17  18
ENDBRANCH  16  17
ENDBRANCH   1  16
TORSDOF 10
ENDMDL
MODEL 7
REMARK VINA RESULT:      -7.4      6.625      8.097
REMARK  Name = 
REMARK  10 active torsions:
REMARK  status: ('A' for Active; 'I' for Inactive)
REMARK    1  A    between atoms: C_2  and  C_3
REMARK    2  A    between atoms: C_2  and  C_24
REMARK    3  A    between atoms: C_3  and  C_4
REMARK    4  A    between atoms: C_4  and  C_5
REMARK    5  A    between atoms: C_5  and  C_6
REMARK    6  A    between atoms: C_6  and  C_7
REMARK    7  A    between atoms: C_7  and  C_8
REMARK    8  A    between atoms: C_8  and  C_9
REMARK    9  A    between atoms: C_11  and  C_12
REMARK   10  A    between atoms: C_15  and  C_16
REMARK                            x       y       z     vdW  Elec       q    Type
REMARK                         _______ _______ _______ _____ _____    ______ ____
ROOT
ATOM      1  C   UNL     1       2.366   7.424  19.347  0.00  0.00    +0.000 A 
ATOM      2  N   UNL     1       1.730   7.907  20.388  0.00  0.00    +0.000 NA
ATOM      3  C   UNL     1       1.122   9.032  19.871  0.00  0.00    +0.000 A 
ATOM      4  N   UNL     1       1.384   9.239  18.569  0.00  0.00    +0.000 NA
ATOM      5  O   UNL     1       2.208   8.172  18.221  0.00  0.00    +0.000 OA
ENDROOT
BRANCH   3   6
ATOM      6  C   UNL     1       0.273   9.898  20.681  0.00  0.00    +0.000 A 
ATOM      7  C   UNL     1       0.045   9.602  22.032  0.00  0.00    +0.000 A 
ATOM      8  C   UNL     1      -0.767  10.425  22.818  0.00  0.00    +0.000 A 
ATOM      9  C   UNL     1      -1.369  11.565  22.267  0.00  0.00    +0.000 A 
ATOM     10  C   UNL     1      -1.146  11.861  20.914  0.00  0.00    +0.000 A 
ATOM     11  C   UNL     1      -0.333  11.037  20.131  0.00  0.00    +0.000 A 
BRANCH   9  12
ATOM     12  C   UNL     1      -2.246  12.469  23.101  0.00  0.00    +0.000 C 
ATOM     13  F   UNL     1      -3.084  13.249  22.363  0.00  0.00    +0.000 F 
ATOM     14  F   UNL     1      -3.044  11.772  23.958  0.00  0.00    +0.000 F 
ATOM     15  F   UNL     1      -1.524  13.325  23.875  0.00  0.00    +0.000 F 
ENDBRANCH   9  12
ENDBRANCH   3   6
BRANCH   1  16
ATOM     16  C   UNL     1       3.195   6.204  19.233  0.00  0.00    +0.000 C 
BRANCH  16  17
ATOM     17  C   UNL     1       4.167   6.307  18.057  0.00  0.00    +0.000 C 
BRANCH  17  18
ATOM     18  C   UNL     1       4.114   5.049  17.192  0.00  0.00    +0.000 C 
BRANCH  18  19
ATOM     19  C   UNL     1       4.526   3.805  17.980  0.00  0.00    +0.000 C 
BRANCH  19  20
ATOM     20  C   UNL     1       3.756   2.581  17.486  0.00  0.00    +0.000 C 
BRANCH  20  21
ATOM     21  C   UNL     1       3.194   1.754  18.641  0.00  0.00    +0.000 C 
BRANCH  21  23
ATOM     22  O   UNL     1       2.844   2.891  20.734  0.00  0.00    +0.000 OA
ATOM     23  C   UNL     1       2.399   2.604  19.619  0.00  0.00    +0.000 C 
BRANCH  23  24
ATOM     24  C   UNL     1       1.034   3.067  19.131  0.00  0.00    +0.000 C 
ATOM     25  F   UNL     1       0.304   3.665  20.114  0.00  0.00    +0.000 F 
ATOM     26  F   UNL     1       1.124   3.973  18.121  0.00  0.00    +0.000 F 
ATOM     27  F   UNL     1       0.273   2.037  18.669  0.00  0.00    +0.000 F 
ENDBRANCH  23  24
ENDBRANCH  21  23
ENDBRANCH  20  21
ENDBRANCH  19  20
ENDBRANCH  18  19
ENDBRANCH  17  18
ENDBRANCH  16  17
ENDBRANCH   1  16
TORSDOF 10
ENDMDL
MODEL 8
REMARK VINA RESULT:      -7.3      1.438      1.922
REMARK  Name = 
REMARK  10 active torsions:
REMARK  status: ('A' for Active; 'I' for Inactive)
REMARK    1  A    between atoms: C_2  and  C_3
REMARK    2  A    between atoms: C_2  and  C_24
REMARK    3  A    between atoms: C_3  and  C_4
REMARK    4  A    between atoms: C_4  and  C_5
REMARK    5  A    between atoms: C_5  and  C_6
REMARK    6  A    between atoms: C_6  and  C_7
REMARK    7  A    between atoms: C_7  and  C_8
REMARK    8  A    between atoms: C_8  and  C_9
REMARK    9  A    between atoms: C_11  and  C_12
REMARK   10  A    between atoms: C_15  and  C_16
REMARK                            x       y       z     vdW  Elec       q    Type
REMARK                         _______ _______ _______ _____ _____    ______ ____
ROOT
ATOM      1  C   UNL     1       7.159   6.836  17.311  0.00  0.00    +0.000 A 
ATOM      2  N   UNL     1       7.335   8.132  17.193  0.00  0.00    +0.000 NA
ATOM      3  C   UNL     1       8.193   8.413  18.236  0.00  0.00    +0.000 A 
ATOM      4  N   UNL     1       8.522   7.336  18.971  0.00  0.00    +0.000 NA
ATOM      5  O   UNL     1       7.837   6.291  18.358  0.00  0.00    +0.000 OA
ENDROOT
BRANCH   3   6
ATOM      6  C   UNL     1       8.689   9.760  18.493  0.00  0.00    +0.000 A 
ATOM      7  C   UNL     1       8.454  10.788  17.569  0.00  0.00    +0.000 A 
ATOM      8  C   UNL     1       8.925  12.083  17.805  0.00  0.00    +0.000 A 
ATOM      9  C   UNL     1       9.643  12.377  18.973  0.00  0.00    +0.000 A 
ATOM     10  C   UNL     1       9.884  11.348  19.896  0.00  0.00    +0.000 A 
ATOM     11  C   UNL     1       9.411  10.054  19.659  0.00  0.00    +0.000 A 
BRANCH   9  12
ATOM     12  C   UNL     1      10.156  13.770  19.248  0.00  0.00    +0.000 C 
ATOM     13  F   UNL     1      11.514  13.869  19.210  0.00  0.00    +0.000 F 
ATOM     14  F   UNL     1       9.691  14.682  18.348  0.00  0.00    +0.000 F 
ATOM     15  F   UNL     1       9.782  14.231  20.473  0.00  0.00    +0.000 F 
ENDBRANCH   9  12
ENDBRANCH   3   6
BRANCH   1  16
ATOM     16  C   UNL     1       6.359   5.916  16.474  0.00  0.00    +0.000 C 
BRANCH  16  17
ATOM     17  C   UNL     1       4.871   6.259  16.547  0.00  0.00    +0.000 C 
BRANCH  17  18
ATOM     18  C   UNL     1       4.029   5.002  16.761  0.00  0.00    +0.000 C 
BRANCH  18  19
ATOM     19  C   UNL     1       4.755   3.980  17.636  0.00  0.00    +0.000 C 
BRANCH  19  20
ATOM     20  C   UNL     1       3.814   2.837  18.014  0.00  0.00    +0.000 C 
BRANCH  20  21
ATOM     21  C   UNL     1       2.407   3.046  17.457  0.00  0.00    +0.000 C 
BRANCH  21  23
ATOM     22  O   UNL     1       0.400   2.233  18.510  0.00  0.00    +0.000 OA
ATOM     23  C   UNL     1       1.350   3.022  18.549  0.00  0.00    +0.000 C 
BRANCH  23  24
ATOM     24  C   UNL     1       1.543   4.025  19.675  0.00  0.00    +0.000 C 
ATOM     25  F   UNL     1       1.921   5.253  19.222  0.00  0.00    +0.000 F 
ATOM     26  F   UNL     1       0.405   4.221  20.396  0.00  0.00    +0.000 F 
ATOM     27  F   UNL     1       2.504   3.635  20.556  0.00  0.00    +0.000 F 
ENDBRANCH  23  24
ENDBRANCH  21  23
ENDBRANCH  20  21
ENDBRANCH  19  20
ENDBRANCH  18  19
ENDBRANCH  17  18
ENDBRANCH  16  17
ENDBRANCH   1  16
TORSDOF 10
ENDMDL
MODEL 9
REMARK VINA RESULT:      -7.3      6.305      7.596
REMARK  Name = 
REMARK  10 active torsions:
REMARK  status: ('A' for Active; 'I' for Inactive)
REMARK    1  A    between atoms: C_2  and  C_3
REMARK    2  A    between atoms: C_2  and  C_24
REMARK    3  A    between atoms: C_3  and  C_4
REMARK    4  A    between atoms: C_4  and  C_5
REMARK    5  A    between atoms: C_5  and  C_6
REMARK    6  A    between atoms: C_6  and  C_7
REMARK    7  A    between atoms: C_7  and  C_8
REMARK    8  A    between atoms: C_8  and  C_9
REMARK    9  A    between atoms: C_11  and  C_12
REMARK   10  A    between atoms: C_15  and  C_16
REMARK                            x       y       z     vdW  Elec       q    Type
REMARK                         _______ _______ _______ _____ _____    ______ ____
ROOT
ATOM      1  C   UNL     1       2.860   7.186  17.998  0.00  0.00    +0.000 A 
ATOM      2  N   UNL     1       2.189   7.466  19.091  0.00  0.00    +0.000 NA
ATOM      3  C   UNL     1       1.751   8.751  18.851  0.00  0.00    +0.000 A 
ATOM      4  N   UNL     1       2.145   9.245  17.665  0.00  0.00    +0.000 NA
ATOM      5  O   UNL     1       2.879   8.207  17.098  0.00  0.00    +0.000 OA
ENDROOT
BRANCH   3   6
ATOM      6  C   UNL     1       0.930   9.483  19.809  0.00  0.00    +0.000 A 
ATOM      7  C   UNL     1       0.790   9.016  21.123  0.00  0.00    +0.000 A 
ATOM      8  C   UNL     1       0.006   9.710  22.049  0.00  0.00    +0.000 A 
ATOM      9  C   UNL     1      -0.657  10.889  21.679  0.00  0.00    +0.000 A 
ATOM     10  C   UNL     1      -0.521  11.356  20.363  0.00  0.00    +0.000 A 
ATOM     11  C   UNL     1       0.264  10.661  19.439  0.00  0.00    +0.000 A 
BRANCH   9  12
ATOM     12  C   UNL     1      -1.505  11.655  22.666  0.00  0.00    +0.000 C 
ATOM     13  F   UNL     1      -2.597  12.245  22.106  0.00  0.00    +0.000 F 
ATOM     14  F   UNL     1      -1.981  10.862  23.667  0.00  0.00    +0.000 F 
ATOM     15  F   UNL     1      -0.814  12.656  23.279  0.00  0.00    +0.000 F 
ENDBRANCH   9  12
ENDBRANCH   3   6
BRANCH   1  16
ATOM     16  C   UNL     1       3.563   5.941  17.618  0.00  0.00    +0.000 C 
BRANCH  16  17
ATOM     17  C   UNL     1       4.885   5.804  18.374  0.00  0.00    +0.000 C 
BRANCH  17  18
ATOM     18  C   UNL     1       5.397   4.366  18.323  0.00  0.00    +0.000 C 
BRANCH  18  19
ATOM     19  C   UNL     1       4.576   3.441  19.222  0.00  0.00    +0.000 C 
BRANCH  19  20
ATOM     20  C   UNL     1       3.763   2.460  18.379  0.00  0.00    +0.000 C 
BRANCH  20  21
ATOM     21  C   UNL     1       2.507   1.985  19.105  0.00  0.00    +0.000 C 
BRANCH  21  23
ATOM     22  O   UNL     1       1.191   3.990  19.316  0.00  0.00    +0.000 OA
ATOM     23  C   UNL     1       1.838   3.105  19.885  0.00  0.00    +0.000 C 
BRANCH  23  24
ATOM     24  C   UNL     1       2.022   3.058  21.394  0.00  0.00    +0.000 C 
ATOM     25  F   UNL     1       2.329   4.276  21.921  0.00  0.00    +0.000 F 
ATOM     26  F   UNL     1       0.900   2.639  22.040  0.00  0.00    +0.000 F 
ATOM     27  F   UNL     1       3.027   2.219  21.767  0.00  0.00    +0.000 F 
ENDBRANCH  23  24
ENDBRANCH  21  23
ENDBRANCH  20  21
ENDBRANCH  19  20
ENDBRANCH  18  19
ENDBRANCH  17  18
ENDBRANCH  16  17
ENDBRANCH   1  16
TORSDOF 10
ENDMDL
