MODEL 1
REMARK VINA RESULT:      -7.0      0.000      0.000
REMARK  Name = 
REMARK  5 active torsions:
REMARK  status: ('A' for Active; 'I' for Inactive)
REMARK    1  A    between atoms: C_4  and  C_5
REMARK    2  A    between atoms: N_10  and  C_11
REMARK    3  A    between atoms: C_11  and  C_12
REMARK    4  A    between atoms: N_21  and  C_22
REMARK    5  A    between atoms: C_22  and  C_23
REMARK                            x       y       z     vdW  Elec       q    Type
REMARK                         _______ _______ _______ _____ _____    ______ ____
ROOT
ATOM      1  C   UNL     1       1.845   6.729  19.756  0.00  0.00    +0.000 C 
ATOM      2  O   UNL     1       1.829   5.928  20.693  0.00  0.00    +0.000 OA
ATOM      3  N   UNL     1       1.532   8.063  19.965  0.00  0.00    +0.000 N 
ATOM      4  C   UNL     1       1.441   9.119  18.954  0.00  0.00    +0.000 C 
ATOM      5  C   UNL     1       0.183   9.995  19.182  0.00  0.00    +0.000 C 
ATOM      6  N   UNL     1       0.069  10.558  20.551  0.00  0.00    +0.000 NA
ATOM      7  C   UNL     1       0.155   9.437  21.519  0.00  0.00    +0.000 C 
ATOM      8  C   UNL     1       1.395   8.544  21.348  0.00  0.00    +0.000 C 
ENDROOT
BRANCH   1  12
ATOM      9  O   UNL     1       2.594   2.746  18.350  0.00  0.00    +0.000 OA
ATOM     10  C   UNL     1       2.779   3.949  18.267  0.00  0.00    +0.000 C 
ATOM     11  C   UNL     1       1.730   4.955  17.890  0.00  0.00    +0.000 C 
ATOM     12  C   UNL     1       2.307   6.288  18.366  0.00  0.00    +0.000 C 
ATOM     13  C   UNL     1       3.818   6.056  18.316  0.00  0.00    +0.000 C 
ATOM     14  N   UNL     1       3.964   4.624  18.433  0.00  0.00    +0.000 N 
BRANCH  14  15
ATOM     15  C   UNL     1       5.213   3.987  18.798  0.00  0.00    +0.000 C 
BRANCH  15  16
ATOM     16  C   UNL     1       6.324   4.961  18.677  0.00  0.00    +0.000 A 
ATOM     17  C   UNL     1       6.827   5.697  17.623  0.00  0.00    +0.000 A 
ATOM     18  C   UNL     1       7.917   6.438  18.137  0.00  0.00    +0.000 A 
ATOM     19  C   UNL     1       8.002   6.116  19.471  0.00  0.00    +0.000 A 
ATOM     20  O   UNL     1       7.035   5.226  19.811  0.00  0.00    +0.000 OA
ENDBRANCH  15  16
ENDBRANCH  14  15
ENDBRANCH   1  12
BRANCH   6  21
ATOM     21  C   UNL     1       1.099  11.592  20.755  0.00  0.00    +0.000 C 
BRANCH  21  22
ATOM     22  C   UNL     1       0.840  12.910  20.070  0.00  0.00    +0.000 A 
ATOM     23  C   UNL     1      -0.421  13.518  20.161  0.00  0.00    +0.000 A 
ATOM     24  C   UNL     1      -0.658  14.762  19.584  0.00  0.00    +0.000 A 
ATOM     25  C   UNL     1       0.366  15.417  18.901  0.00  0.00    +0.000 A 
ATOM     26  C   UNL     1       1.623  14.824  18.794  0.00  0.00    +0.000 A 
ATOM     27  C   UNL     1       1.863  13.578  19.375  0.00  0.00    +0.000 A 
ENDBRANCH  21  22
ENDBRANCH   6  21
TORSDOF 5
ENDMDL
MODEL 2
REMARK VINA RESULT:      -7.0      2.432      3.663
REMARK  Name = 
REMARK  5 active torsions:
REMARK  status: ('A' for Active; 'I' for Inactive)
REMARK    1  A    between atoms: C_4  and  C_5
REMARK    2  A    between atoms: N_10  and  C_11
REMARK    3  A    between atoms: C_11  and  C_12
REMARK    4  A    between atoms: N_21  and  C_22
REMARK    5  A    between atoms: C_22  and  C_23
REMARK                            x       y       z     vdW  Elec       q    Type
REMARK                         _______ _______ _______ _____ _____    ______ ____
ROOT
ATOM      1  C   UNL     1       3.563   6.748  17.861  0.00  0.00    +0.000 C 
ATOM      2  O   UNL     1       4.110   7.249  16.877  0.00  0.00    +0.000 OA
ATOM      3  N   UNL     1       2.558   7.427  18.531  0.00  0.00    +0.000 N 
ATOM      4  C   UNL     1       1.859   7.001  19.747  0.00  0.00    +0.000 C 
ATOM      5  C   UNL     1       1.719   8.179  20.744  0.00  0.00    +0.000 C 
ATOM      6  N   UNL     1       1.094   9.396  20.170  0.00  0.00    +0.000 NA
ATOM      7  C   UNL     1       1.856   9.778  18.957  0.00  0.00    +0.000 C 
ATOM      8  C   UNL     1       2.011   8.650  17.923  0.00  0.00    +0.000 C 
ENDROOT
BRANCH   1  12
ATOM      9  O   UNL     1       7.078   5.392  19.912  0.00  0.00    +0.000 OA
ATOM     10  C   UNL     1       6.124   5.166  19.188  0.00  0.00    +0.000 C 
ATOM     11  C   UNL     1       4.686   5.230  19.616  0.00  0.00    +0.000 C 
ATOM     12  C   UNL     1       3.911   5.324  18.302  0.00  0.00    +0.000 C 
ATOM     13  C   UNL     1       4.833   4.628  17.299  0.00  0.00    +0.000 C 
ATOM     14  N   UNL     1       6.150   4.753  17.877  0.00  0.00    +0.000 N 
BRANCH  14  15
ATOM     15  C   UNL     1       7.367   4.568  17.113  0.00  0.00    +0.000 C 
BRANCH  15  16
ATOM     16  C   UNL     1       7.038   4.447  15.672  0.00  0.00    +0.000 A 
ATOM     17  C   UNL     1       6.148   3.662  14.967  0.00  0.00    +0.000 A 
ATOM     18  C   UNL     1       6.316   3.995  13.602  0.00  0.00    +0.000 A 
ATOM     19  C   UNL     1       7.285   4.968  13.563  0.00  0.00    +0.000 A 
ATOM     20  O   UNL     1       7.726   5.256  14.815  0.00  0.00    +0.000 OA
ENDBRANCH  15  16
ENDBRANCH  14  15
ENDBRANCH   1  12
BRANCH   6  21
ATOM     21  C   UNL     1      -0.337   9.152  19.914  0.00  0.00    +0.000 C 
BRANCH  21  22
ATOM     22  C   UNL     1      -1.148  10.370  19.548  0.00  0.00    +0.000 A 
ATOM     23  C   UNL     1      -1.859  10.408  18.339  0.00  0.00    +0.000 A 
ATOM     24  C   UNL     1      -2.659  11.500  18.015  0.00  0.00    +0.000 A 
ATOM     25  C   UNL     1      -2.757  12.575  18.897  0.00  0.00    +0.000 A 
ATOM     26  C   UNL     1      -2.051  12.557  20.098  0.00  0.00    +0.000 A 
ATOM     27  C   UNL     1      -1.251  11.462  20.427  0.00  0.00    +0.000 A 
ENDBRANCH  21  22
ENDBRANCH   6  21
TORSDOF 5
ENDMDL
MODEL 3
REMARK VINA RESULT:      -7.0      1.870      2.346
REMARK  Name = 
REMARK  5 active torsions:
REMARK  status: ('A' for Active; 'I' for Inactive)
REMARK    1  A    between atoms: C_4  and  C_5
REMARK    2  A    between atoms: N_10  and  C_11
REMARK    3  A    between atoms: C_11  and  C_12
REMARK    4  A    between atoms: N_21  and  C_22
REMARK    5  A    between atoms: C_22  and  C_23
REMARK                            x       y       z     vdW  Elec       q    Type
REMARK                         _______ _______ _______ _____ _____    ______ ____
ROOT
ATOM      1  C   UNL     1       1.976   7.059  19.776  0.00  0.00    +0.000 C 
ATOM      2  O   UNL     1       2.279   6.262  20.666  0.00  0.00    +0.000 OA
ATOM      3  N   UNL     1       1.479   8.313  20.092  0.00  0.00    +0.000 N 
ATOM      4  C   UNL     1       1.014   9.343  19.159  0.00  0.00    +0.000 C 
ATOM      5  C   UNL     1      -0.312   9.976  19.652  0.00  0.00    +0.000 C 
ATOM      6  N   UNL     1      -0.262  10.500  21.040  0.00  0.00    +0.000 NA
ATOM      7  C   UNL     1       0.201   9.407  21.929  0.00  0.00    +0.000 C 
ATOM      8  C   UNL     1       1.524   8.753  21.496  0.00  0.00    +0.000 C 
ENDROOT
BRANCH   1  12
ATOM      9  O   UNL     1       2.845   3.226  18.057  0.00  0.00    +0.000 OA
ATOM     10  C   UNL     1       2.900   4.443  18.009  0.00  0.00    +0.000 C 
ATOM     11  C   UNL     1       1.715   5.352  17.862  0.00  0.00    +0.000 C 
ATOM     12  C   UNL     1       2.237   6.718  18.307  0.00  0.00    +0.000 C 
ATOM     13  C   UNL     1       3.734   6.641  17.998  0.00  0.00    +0.000 C 
ATOM     14  N   UNL     1       4.030   5.227  18.015  0.00  0.00    +0.000 N 
BRANCH  14  15
ATOM     15  C   UNL     1       5.375   4.705  18.136  0.00  0.00    +0.000 C 
BRANCH  15  16
ATOM     16  C   UNL     1       6.014   4.657  16.799  0.00  0.00    +0.000 A 
ATOM     17  C   UNL     1       6.988   5.421  16.188  0.00  0.00    +0.000 A 
ATOM     18  C   UNL     1       7.157   4.888  14.889  0.00  0.00    +0.000 A 
ATOM     19  C   UNL     1       6.288   3.828  14.795  0.00  0.00    +0.000 A 
ATOM     20  O   UNL     1       5.593   3.674  15.951  0.00  0.00    +0.000 OA
ENDBRANCH  15  16
ENDBRANCH  14  15
ENDBRANCH   1  12
BRANCH   6  21
ATOM     21  C   UNL     1       0.589  11.701  21.092  0.00  0.00    +0.000 C 
BRANCH  21  22
ATOM     22  C   UNL     1       0.016  12.870  21.853  0.00  0.00    +0.000 A 
ATOM     23  C   UNL     1      -1.054  12.679  22.740  0.00  0.00    +0.000 A 
ATOM     24  C   UNL     1      -1.555  13.737  23.494  0.00  0.00    +0.000 A 
ATOM     25  C   UNL     1      -0.992  15.006  23.369  0.00  0.00    +0.000 A 
ATOM     26  C   UNL     1       0.066  15.215  22.487  0.00  0.00    +0.000 A 
ATOM     27  C   UNL     1       0.572  14.155  21.732  0.00  0.00    +0.000 A 
ENDBRANCH  21  22
ENDBRANCH   6  21
TORSDOF 5
ENDMDL
MODEL 4
REMARK VINA RESULT:      -6.9      3.321      9.095
REMARK  Name = 
REMARK  5 active torsions:
REMARK  status: ('A' for Active; 'I' for Inactive)
REMARK    1  A    between atoms: C_4  and  C_5
REMARK    2  A    between atoms: N_10  and  C_11
REMARK    3  A    between atoms: C_11  and  C_12
REMARK    4  A    between atoms: N_21  and  C_22
REMARK    5  A    between atoms: C_22  and  C_23
REMARK                            x       y       z     vdW  Elec       q    Type
REMARK                         _______ _______ _______ _____ _____    ______ ____
ROOT
ATOM      1  C   UNL     1       1.025  10.163  20.284  0.00  0.00    +0.000 C 
ATOM      2  O   UNL     1       0.814  10.117  21.498  0.00  0.00    +0.000 OA
ATOM      3  N   UNL     1       1.402   9.024  19.591  0.00  0.00    +0.000 N 
ATOM      4  C   UNL     1       1.751   8.926  18.171  0.00  0.00    +0.000 C 
ATOM      5  C   UNL     1       3.017   8.054  17.972  0.00  0.00    +0.000 C 
ATOM      6  N   UNL     1       2.936   6.708  18.593  0.00  0.00    +0.000 NA
ATOM      7  C   UNL     1       2.595   6.882  20.026  0.00  0.00    +0.000 C 
ATOM      8  C   UNL     1       1.336   7.727  20.281  0.00  0.00    +0.000 C 
ENDROOT
BRANCH   1  12
ATOM      9  O   UNL     1      -1.813  13.268  21.124  0.00  0.00    +0.000 OA
ATOM     10  C   UNL     1      -1.104  12.670  20.332  0.00  0.00    +0.000 C 
ATOM     11  C   UNL     1       0.396  12.662  20.359  0.00  0.00    +0.000 C 
ATOM     12  C   UNL     1       0.776  11.454  19.501  0.00  0.00    +0.000 C 
ATOM     13  C   UNL     1      -0.406  11.319  18.540  0.00  0.00    +0.000 C 
ATOM     14  N   UNL     1      -1.506  11.943  19.237  0.00  0.00    +0.000 N 
BRANCH  14  15
ATOM     15  C   UNL     1      -2.892  11.729  18.874  0.00  0.00    +0.000 C 
BRANCH  15  16
ATOM     16  C   UNL     1      -2.963  10.989  17.590  0.00  0.00    +0.000 A 
ATOM     17  C   UNL     1      -2.743   9.671  17.245  0.00  0.00    +0.000 A 
ATOM     18  C   UNL     1      -2.953   9.584  15.848  0.00  0.00    +0.000 A 
ATOM     19  C   UNL     1      -3.299  10.849  15.435  0.00  0.00    +0.000 A 
ATOM     20  O   UNL     1      -3.315  11.709  16.485  0.00  0.00    +0.000 OA
ENDBRANCH  15  16
ENDBRANCH  14  15
ENDBRANCH   1  12
BRANCH   6  21
ATOM     21  C   UNL     1       1.973   5.872  17.856  0.00  0.00    +0.000 C 
BRANCH  21  22
ATOM     22  C   UNL     1       2.165   4.382  17.997  0.00  0.00    +0.000 A 
ATOM     23  C   UNL     1       3.314   3.767  17.477  0.00  0.00    +0.000 A 
ATOM     24  C   UNL     1       3.534   2.403  17.651  0.00  0.00    +0.000 A 
ATOM     25  C   UNL     1       2.603   1.633  18.345  0.00  0.00    +0.000 A 
ATOM     26  C   UNL     1       1.451   2.227  18.860  0.00  0.00    +0.000 A 
ATOM     27  C   UNL     1       1.231   3.595  18.690  0.00  0.00    +0.000 A 
ENDBRANCH  21  22
ENDBRANCH   6  21
TORSDOF 5
ENDMDL
MODEL 5
REMARK VINA RESULT:      -6.9      1.328      1.688
REMARK  Name = 
REMARK  5 active torsions:
REMARK  status: ('A' for Active; 'I' for Inactive)
REMARK    1  A    between atoms: C_4  and  C_5
REMARK    2  A    between atoms: N_10  and  C_11
REMARK    3  A    between atoms: C_11  and  C_12
REMARK    4  A    between atoms: N_21  and  C_22
REMARK    5  A    between atoms: C_22  and  C_23
REMARK                            x       y       z     vdW  Elec       q    Type
REMARK                         _______ _______ _______ _____ _____    ______ ____
ROOT
ATOM      1  C   UNL     1       1.967   6.838  19.749  0.00  0.00    +0.000 C 
ATOM      2  O   UNL     1       2.194   6.045  20.665  0.00  0.00    +0.000 OA
ATOM      3  N   UNL     1       1.591   8.143  20.024  0.00  0.00    +0.000 N 
ATOM      4  C   UNL     1       1.225   9.182  19.058  0.00  0.00    +0.000 C 
ATOM      5  C   UNL     1      -0.035   9.953  19.527  0.00  0.00    +0.000 C 
ATOM      6  N   UNL     1       0.067  10.514  20.898  0.00  0.00    +0.000 NA
ATOM      7  C   UNL     1       0.425   9.411  21.823  0.00  0.00    +0.000 C 
ATOM      8  C   UNL     1       1.680   8.621  21.413  0.00  0.00    +0.000 C 
ENDROOT
BRANCH   1  12
ATOM      9  O   UNL     1       3.053   2.980  18.220  0.00  0.00    +0.000 OA
ATOM     10  C   UNL     1       3.014   4.192  18.098  0.00  0.00    +0.000 C 
ATOM     11  C   UNL     1       1.758   5.001  17.953  0.00  0.00    +0.000 C 
ATOM     12  C   UNL     1       2.193   6.427  18.292  0.00  0.00    +0.000 C 
ATOM     13  C   UNL     1       3.677   6.440  17.921  0.00  0.00    +0.000 C 
ATOM     14  N   UNL     1       4.080   5.056  18.007  0.00  0.00    +0.000 N 
BRANCH  14  15
ATOM     15  C   UNL     1       5.465   4.643  18.097  0.00  0.00    +0.000 C 
BRANCH  15  16
ATOM     16  C   UNL     1       6.070   4.626  16.743  0.00  0.00    +0.000 A 
ATOM     17  C   UNL     1       7.033   5.400  16.127  0.00  0.00    +0.000 A 
ATOM     18  C   UNL     1       7.166   4.899  14.811  0.00  0.00    +0.000 A 
ATOM     19  C   UNL     1       6.287   3.846  14.712  0.00  0.00    +0.000 A 
ATOM     20  O   UNL     1       5.621   3.667  15.881  0.00  0.00    +0.000 OA
ENDBRANCH  15  16
ENDBRANCH  14  15
ENDBRANCH   1  12
BRANCH   6  21
ATOM     21  C   UNL     1       1.028  11.631  20.913  0.00  0.00    +0.000 C 
BRANCH  21  22
ATOM     22  C   UNL     1       0.528  12.926  20.324  0.00  0.00    +0.000 A 
ATOM     23  C   UNL     1      -0.655  13.509  20.802  0.00  0.00    +0.000 A 
ATOM     24  C   UNL     1      -1.098  14.733  20.310  0.00  0.00    +0.000 A 
ATOM     25  C   UNL     1      -0.363  15.393  19.327  0.00  0.00    +0.000 A 
ATOM     26  C   UNL     1       0.811  14.824  18.834  0.00  0.00    +0.000 A 
ATOM     27  C   UNL     1       1.258  13.598  19.329  0.00  0.00    +0.000 A 
ENDBRANCH  21  22
ENDBRANCH   6  21
TORSDOF 5
ENDMDL
MODEL 6
REMARK VINA RESULT:      -6.9      3.297      9.102
REMARK  Name = 
REMARK  5 active torsions:
REMARK  status: ('A' for Active; 'I' for Inactive)
REMARK    1  A    between atoms: C_4  and  C_5
REMARK    2  A    between atoms: N_10  and  C_11
REMARK    3  A    between atoms: C_11  and  C_12
REMARK    4  A    between atoms: N_21  and  C_22
REMARK    5  A    between atoms: C_22  and  C_23
REMARK                            x       y       z     vdW  Elec       q    Type
REMARK                         _______ _______ _______ _____ _____    ______ ____
ROOT
ATOM      1  C   UNL     1       2.339   7.959  18.776  0.00  0.00    +0.000 C 
ATOM      2  O   UNL     1       1.809   7.864  19.885  0.00  0.00    +0.000 OA
ATOM      3  N   UNL     1       3.264   7.017  18.354  0.00  0.00    +0.000 N 
ATOM      4  C   UNL     1       4.027   7.024  17.103  0.00  0.00    +0.000 C 
ATOM      5  C   UNL     1       5.511   6.658  17.360  0.00  0.00    +0.000 C 
ATOM      6  N   UNL     1       5.709   5.385  18.097  0.00  0.00    +0.000 NA
ATOM      7  C   UNL     1       4.924   5.453  19.354  0.00  0.00    +0.000 C 
ATOM      8  C   UNL     1       3.438   5.796  19.156  0.00  0.00    +0.000 C 
ENDROOT
BRANCH   1  12
ATOM      9  O   UNL     1       1.181  11.990  19.677  0.00  0.00    +0.000 OA
ATOM     10  C   UNL     1       1.156  11.024  18.933  0.00  0.00    +0.000 C 
ATOM     11  C   UNL     1       2.344  10.472  18.201  0.00  0.00    +0.000 C 
ATOM     12  C   UNL     1       1.912   9.061  17.803  0.00  0.00    +0.000 C 
ATOM     13  C   UNL     1       0.390   9.174  17.703  0.00  0.00    +0.000 C 
ATOM     14  N   UNL     1       0.057  10.287  18.561  0.00  0.00    +0.000 N 
BRANCH  14  15
ATOM     15  C   UNL     1      -1.282  10.526  19.057  0.00  0.00    +0.000 C 
BRANCH  15  16
ATOM     16  C   UNL     1      -2.243  10.518  17.927  0.00  0.00    +0.000 A 
ATOM     17  C   UNL     1      -3.310   9.706  17.599  0.00  0.00    +0.000 A 
ATOM     18  C   UNL     1      -3.826  10.200  16.378  0.00  0.00    +0.000 A 
ATOM     19  C   UNL     1      -3.050  11.285  16.046  0.00  0.00    +0.000 A 
ATOM     20  O   UNL     1      -2.090  11.491  16.983  0.00  0.00    +0.000 OA
ENDBRANCH  15  16
ENDBRANCH  14  15
ENDBRANCH   1  12
BRANCH   6  21
ATOM     21  C   UNL     1       5.346   4.245  17.237  0.00  0.00    +0.000 C 
BRANCH  21  22
ATOM     22  C   UNL     1       5.833   4.327  15.812  0.00  0.00    +0.000 A 
ATOM     23  C   UNL     1       7.131   4.783  15.533  0.00  0.00    +0.000 A 
ATOM     24  C   UNL     1       7.614   4.808  14.228  0.00  0.00    +0.000 A 
ATOM     25  C   UNL     1       6.803   4.379  13.179  0.00  0.00    +0.000 A 
ATOM     26  C   UNL     1       5.508   3.931  13.437  0.00  0.00    +0.000 A 
ATOM     27  C   UNL     1       5.023   3.902  14.745  0.00  0.00    +0.000 A 
ENDBRANCH  21  22
ENDBRANCH   6  21
TORSDOF 5
ENDMDL
MODEL 7
REMARK VINA RESULT:      -6.9      1.381      1.912
REMARK  Name = 
REMARK  5 active torsions:
REMARK  status: ('A' for Active; 'I' for Inactive)
REMARK    1  A    between atoms: C_4  and  C_5
REMARK    2  A    between atoms: N_10  and  C_11
REMARK    3  A    between atoms: C_11  and  C_12
REMARK    4  A    between atoms: N_21  and  C_22
REMARK    5  A    between atoms: C_22  and  C_23
REMARK                            x       y       z     vdW  Elec       q    Type
REMARK                         _______ _______ _______ _____ _____    ______ ____
ROOT
ATOM      1  C   UNL     1       1.986   6.823  19.689  0.00  0.00    +0.000 C 
ATOM      2  O   UNL     1       2.204   6.024  20.603  0.00  0.00    +0.000 OA
ATOM      3  N   UNL     1       1.638   8.135  19.969  0.00  0.00    +0.000 N 
ATOM      4  C   UNL     1       1.286   9.182  19.007  0.00  0.00    +0.000 C 
ATOM      5  C   UNL     1       0.046   9.978  19.486  0.00  0.00    +0.000 C 
ATOM      6  N   UNL     1       0.168  10.534  20.857  0.00  0.00    +0.000 NA
ATOM      7  C   UNL     1       0.510   9.423  21.777  0.00  0.00    +0.000 C 
ATOM      8  C   UNL     1       1.746   8.609  21.358  0.00  0.00    +0.000 C 
ENDROOT
BRANCH   1  12
ATOM      9  O   UNL     1       3.291   3.031  18.167  0.00  0.00    +0.000 OA
ATOM     10  C   UNL     1       3.163   4.236  18.034  0.00  0.00    +0.000 C 
ATOM     11  C   UNL     1       1.850   4.953  17.920  0.00  0.00    +0.000 C 
ATOM     12  C   UNL     1       2.194   6.410  18.230  0.00  0.00    +0.000 C 
ATOM     13  C   UNL     1       3.660   6.522  17.810  0.00  0.00    +0.000 C 
ATOM     14  N   UNL     1       4.162   5.171  17.898  0.00  0.00    +0.000 N 
BRANCH  14  15
ATOM     15  C   UNL     1       5.575   4.857  17.947  0.00  0.00    +0.000 C 
BRANCH  15  16
ATOM     16  C   UNL     1       6.090   4.659  16.570  0.00  0.00    +0.000 A 
ATOM     17  C   UNL     1       5.729   3.819  15.537  0.00  0.00    +0.000 A 
ATOM     18  C   UNL     1       6.620   4.090  14.472  0.00  0.00    +0.000 A 
ATOM     19  C   UNL     1       7.457   5.085  14.918  0.00  0.00    +0.000 A 
ATOM     20  O   UNL     1       7.140   5.443  16.189  0.00  0.00    +0.000 OA
ENDBRANCH  15  16
ENDBRANCH  14  15
ENDBRANCH   1  12
BRANCH   6  21
ATOM     21  C   UNL     1       1.151  11.632  20.867  0.00  0.00    +0.000 C 
BRANCH  21  22
ATOM     22  C   UNL     1       0.663  12.947  20.312  0.00  0.00    +0.000 A 
ATOM     23  C   UNL     1       1.448  13.661  19.394  0.00  0.00    +0.000 A 
ATOM     24  C   UNL     1       0.986  14.846  18.829  0.00  0.00    +0.000 A 
ATOM     25  C   UNL     1      -0.271  15.337  19.178  0.00  0.00    +0.000 A 
ATOM     26  C   UNL     1      -1.061  14.645  20.095  0.00  0.00    +0.000 A 
ATOM     27  C   UNL     1      -0.600  13.454  20.660  0.00  0.00    +0.000 A 
ENDBRANCH  21  22
ENDBRANCH   6  21
TORSDOF 5
ENDMDL
MODEL 8
REMARK VINA RESULT:      -6.9      1.548      1.869
REMARK  Name = 
REMARK  5 active torsions:
REMARK  status: ('A' for Active; 'I' for Inactive)
REMARK    1  A    between atoms: C_4  and  C_5
REMARK    2  A    between atoms: N_10  and  C_11
REMARK    3  A    between atoms: C_11  and  C_12
REMARK    4  A    between atoms: N_21  and  C_22
REMARK    5  A    between atoms: C_22  and  C_23
REMARK                            x       y       z     vdW  Elec       q    Type
REMARK                         _______ _______ _______ _____ _____    ______ ____
ROOT
ATOM      1  C   UNL     1       1.896   6.553  19.425  0.00  0.00    +0.000 C 
ATOM      2  O   UNL     1       1.941   6.081  20.563  0.00  0.00    +0.000 OA
ATOM      3  N   UNL     1       1.752   7.918  19.233  0.00  0.00    +0.000 N 
ATOM      4  C   UNL     1       1.616   8.623  17.955  0.00  0.00    +0.000 C 
ATOM      5  C   UNL     1       0.500   9.695  18.033  0.00  0.00    +0.000 C 
ATOM      6  N   UNL     1       0.649  10.654  19.156  0.00  0.00    +0.000 NA
ATOM      7  C   UNL     1       0.766   9.876  20.414  0.00  0.00    +0.000 C 
ATOM      8  C   UNL     1       1.872   8.807  20.398  0.00  0.00    +0.000 C 
ENDROOT
BRANCH   1  12
ATOM      9  O   UNL     1       3.667   2.649  19.271  0.00  0.00    +0.000 OA
ATOM     10  C   UNL     1       3.362   3.693  18.721  0.00  0.00    +0.000 C 
ATOM     11  C   UNL     1       1.955   4.157  18.477  0.00  0.00    +0.000 C 
ATOM     12  C   UNL     1       2.099   5.653  18.203  0.00  0.00    +0.000 C 
ATOM     13  C   UNL     1       3.515   5.773  17.638  0.00  0.00    +0.000 C 
ATOM     14  N   UNL     1       4.209   4.621  18.164  0.00  0.00    +0.000 N 
BRANCH  14  15
ATOM     15  C   UNL     1       5.653   4.517  18.193  0.00  0.00    +0.000 C 
BRANCH  15  16
ATOM     16  C   UNL     1       6.185   4.553  16.809  0.00  0.00    +0.000 A 
ATOM     17  C   UNL     1       7.104   5.360  16.170  0.00  0.00    +0.000 A 
ATOM     18  C   UNL     1       7.172   4.905  14.832  0.00  0.00    +0.000 A 
ATOM     19  C   UNL     1       6.303   3.844  14.745  0.00  0.00    +0.000 A 
ATOM     20  O   UNL     1       5.703   3.617  15.941  0.00  0.00    +0.000 OA
ENDBRANCH  15  16
ENDBRANCH  14  15
ENDBRANCH   1  12
BRANCH   6  21
ATOM     21  C   UNL     1       1.795  11.546  18.906  0.00  0.00    +0.000 C 
BRANCH  21  22
ATOM     22  C   UNL     1       1.468  13.016  18.823  0.00  0.00    +0.000 A 
ATOM     23  C   UNL     1       0.155  13.460  19.041  0.00  0.00    +0.000 A 
ATOM     24  C   UNL     1      -0.151  14.818  19.026  0.00  0.00    +0.000 A 
ATOM     25  C   UNL     1       0.855  15.754  18.789  0.00  0.00    +0.000 A 
ATOM     26  C   UNL     1       2.163  15.329  18.562  0.00  0.00    +0.000 A 
ATOM     27  C   UNL     1       2.472  13.968  18.580  0.00  0.00    +0.000 A 
ENDBRANCH  21  22
ENDBRANCH   6  21
TORSDOF 5
ENDMDL
MODEL 9
REMARK VINA RESULT:      -6.9      2.884      8.776
REMARK  Name = 
REMARK  5 active torsions:
REMARK  status: ('A' for Active; 'I' for Inactive)
REMARK    1  A    between atoms: C_4  and  C_5
REMARK    2  A    between atoms: N_10  and  C_11
REMARK    3  A    between atoms: C_11  and  C_12
REMARK    4  A    between atoms: N_21  and  C_22
REMARK    5  A    between atoms: C_22  and  C_23
REMARK                            x       y       z     vdW  Elec       q    Type
REMARK                         _______ _______ _______ _____ _____    ______ ____
ROOT
ATOM      1  C   UNL     1       2.291   7.963  18.765  0.00  0.00    +0.000 C 
ATOM      2  O   UNL     1       1.816   7.874  19.899  0.00  0.00    +0.000 OA
ATOM      3  N   UNL     1       3.234   7.049  18.323  0.00  0.00    +0.000 N 
ATOM      4  C   UNL     1       3.938   7.055  17.038  0.00  0.00    +0.000 C 
ATOM      5  C   UNL     1       5.446   6.756  17.233  0.00  0.00    +0.000 C 
ATOM      6  N   UNL     1       5.730   5.511  17.990  0.00  0.00    +0.000 NA
ATOM      7  C   UNL     1       5.001   5.578  19.279  0.00  0.00    +0.000 C 
ATOM      8  C   UNL     1       3.495   5.856  19.143  0.00  0.00    +0.000 C 
ENDROOT
BRANCH   1  12
ATOM      9  O   UNL     1       1.687  12.151  19.470  0.00  0.00    +0.000 OA
ATOM     10  C   UNL     1       1.430  11.137  18.843  0.00  0.00    +0.000 C 
ATOM     11  C   UNL     1       2.397  10.408  17.956  0.00  0.00    +0.000 C 
ATOM     12  C   UNL     1       1.775   9.022  17.788  0.00  0.00    +0.000 C 
ATOM     13  C   UNL     1       0.278   9.284  17.971  0.00  0.00    +0.000 C 
ATOM     14  N   UNL     1       0.220  10.490  18.762  0.00  0.00    +0.000 N 
BRANCH  14  15
ATOM     15  C   UNL     1      -0.967  10.905  19.479  0.00  0.00    +0.000 C 
BRANCH  15  16
ATOM     16  C   UNL     1      -0.813  10.597  20.922  0.00  0.00    +0.000 A 
ATOM     17  C   UNL     1      -0.306   9.511  21.608  0.00  0.00    +0.000 A 
ATOM     18  C   UNL     1      -0.453   9.805  22.984  0.00  0.00    +0.000 A 
ATOM     19  C   UNL     1      -1.026  11.053  23.049  0.00  0.00    +0.000 A 
ATOM     20  O   UNL     1      -1.243  11.546  21.802  0.00  0.00    +0.000 OA
ENDBRANCH  15  16
ENDBRANCH  14  15
ENDBRANCH   1  12
BRANCH   6  21
ATOM     21  C   UNL     1       5.376   4.336  17.173  0.00  0.00    +0.000 C 
BRANCH  21  22
ATOM     22  C   UNL     1       5.851   4.373  15.742  0.00  0.00    +0.000 A 
ATOM     23  C   UNL     1       7.147   4.817  15.439  0.00  0.00    +0.000 A 
ATOM     24  C   UNL     1       7.620   4.800  14.130  0.00  0.00    +0.000 A 
ATOM     25  C   UNL     1       6.798   4.342  13.101  0.00  0.00    +0.000 A 
ATOM     26  C   UNL     1       5.505   3.906  13.383  0.00  0.00    +0.000 A 
ATOM     27  C   UNL     1       5.030   3.918  14.696  0.00  0.00    +0.000 A 
ENDBRANCH  21  22
ENDBRANCH   6  21
TORSDOF 5
ENDMDL
