MODEL 1
REMARK VINA RESULT:      -7.6      0.000      0.000
REMARK  Name = 
REMARK  12 active torsions:
REMARK  status: ('A' for Active; 'I' for Inactive)
REMARK    1  A    between atoms: C_1  and  C_2
REMARK    2  A    between atoms: C_2  and  C_3
REMARK    3  A    between atoms: C_2  and  C_4
REMARK    4  A    between atoms: C_4  and  O_5
REMARK    5  A    between atoms: C_4  and  C_6
REMARK    6  A    between atoms: C_4  and  C_20
REMARK    7  A    between atoms: C_6  and  O_8
REMARK    8  A    between atoms: O_8  and  C_9
REMARK    9  A    between atoms: C_9  and  C_10
REMARK   10  A    between atoms: C_17  and  O_18
REMARK   11  A    between atoms: C_20  and  C_21
REMARK   12  A    between atoms: C_20  and  O_22
REMARK                            x       y       z     vdW  Elec       q    Type
REMARK                         _______ _______ _______ _____ _____    ______ ____
ROOT
ATOM      1  O   UNL     1       6.554   4.304  18.763  0.00  0.00    +0.000 OA
ENDROOT
BRANCH   1   2
ATOM      2  C   UNL     1       7.375   4.725  17.758  0.00  0.00    +0.000 C 
ATOM      3  O   UNL     1       8.288   4.064  17.280  0.00  0.00    +0.000 OA
BRANCH   2   4
ATOM      4  C   UNL     1       6.968   6.110  17.175  0.00  0.00    +0.000 C 
BRANCH   4   6
ATOM      5  C   UNL     1       5.244   6.235  15.241  0.00  0.00    +0.000 C 
ATOM      6  C   UNL     1       5.463   6.111  16.751  0.00  0.00    +0.000 C 
ATOM      7  C   UNL     1       4.610   7.175  17.465  0.00  0.00    +0.000 C 
ENDBRANCH   4   6
BRANCH   4   8
ATOM      8  O   UNL     1       7.755   6.339  15.976  0.00  0.00    +0.000 OA
ATOM      9  H   UNL     1       7.250   6.980  15.438  0.00  0.00    +0.000 HD
ENDBRANCH   4   8
BRANCH   4  10
ATOM     10  C   UNL     1       7.341   7.254  18.161  0.00  0.00    +0.000 C 
ATOM     11  C   UNL     1       7.959   8.490  17.497  0.00  0.00    +0.000 C 
BRANCH  10  12
ATOM     12  O   UNL     1       8.317   6.777  19.103  0.00  0.00    +0.000 OA
ATOM     13  H   UNL     1       7.829   6.180  19.706  0.00  0.00    +0.000 HD
ENDBRANCH  10  12
ENDBRANCH   4  10
ENDBRANCH   2   4
ENDBRANCH   1   2
BRANCH   1  14
ATOM     14  C   UNL     1       5.287   3.739  18.376  0.00  0.00    +0.000 C 
BRANCH  14  15
ATOM     15  C   UNL     1       4.260   3.656  19.528  0.00  0.00    +0.000 C 
ATOM     16  C   UNL     1       3.971   2.237  19.990  0.00  0.00    +0.000 C 
ATOM     17  C   UNL     1       2.995   1.699  18.959  0.00  0.00    +0.000 C 
ATOM     18  N   UNL     1       2.212   2.891  18.423  0.00  0.00    +0.000 N 
ATOM     19  O   UNL     1       2.239   2.926  17.065  0.00  0.00    +0.000 OA
ATOM     20  C   UNL     1       0.791   2.905  18.928  0.00  0.00    +0.000 C 
ATOM     21  C   UNL     1       0.835   3.621  20.253  0.00  0.00    +0.000 C 
ATOM     22  C   UNL     1       1.875   4.704  20.028  0.00  0.00    +0.000 C 
ATOM     23  C   UNL     1       2.887   4.126  19.022  0.00  0.00    +0.000 C 
BRANCH  22  24
ATOM     24  O   UNL     1       2.439   5.134  21.255  0.00  0.00    +0.000 OA
ATOM     25  H   UNL     1       2.058   4.624  21.990  0.00  0.00    +0.000 HD
ENDBRANCH  22  24
ENDBRANCH  14  15
ENDBRANCH   1  14
TORSDOF 9
ENDMDL
MODEL 2
REMARK VINA RESULT:      -7.5      1.619      2.946
REMARK  Name = 
REMARK  12 active torsions:
REMARK  status: ('A' for Active; 'I' for Inactive)
REMARK    1  A    between atoms: C_1  and  C_2
REMARK    2  A    between atoms: C_2  and  C_3
REMARK    3  A    between atoms: C_2  and  C_4
REMARK    4  A    between atoms: C_4  and  O_5
REMARK    5  A    between atoms: C_4  and  C_6
REMARK    6  A    between atoms: C_4  and  C_20
REMARK    7  A    between atoms: C_6  and  O_8
REMARK    8  A    between atoms: O_8  and  C_9
REMARK    9  A    between atoms: C_9  and  C_10
REMARK   10  A    between atoms: C_17  and  O_18
REMARK   11  A    between atoms: C_20  and  C_21
REMARK   12  A    between atoms: C_20  and  O_22
REMARK                            x       y       z     vdW  Elec       q    Type
REMARK                         _______ _______ _______ _____ _____    ______ ____
ROOT
ATOM      1  O   UNL     1       4.294   5.380  16.610  0.00  0.00    +0.000 OA
ENDROOT
BRANCH   1   2
ATOM      2  C   UNL     1       5.273   6.040  15.926  0.00  0.00    +0.000 C 
ATOM      3  O   UNL     1       5.104   7.074  15.291  0.00  0.00    +0.000 OA
BRANCH   2   4
ATOM      4  C   UNL     1       6.685   5.414  16.121  0.00  0.00    +0.000 C 
BRANCH   4   6
ATOM      5  C   UNL     1       7.574   6.801  18.125  0.00  0.00    +0.000 C 
ATOM      6  C   UNL     1       7.095   5.434  17.630  0.00  0.00    +0.000 C 
ATOM      7  C   UNL     1       8.144   4.374  18.009  0.00  0.00    +0.000 C 
ENDBRANCH   4   6
BRANCH   4   8
ATOM      8  O   UNL     1       7.641   6.237  15.402  0.00  0.00    +0.000 OA
ATOM      9  H   UNL     1       8.273   5.618  14.984  0.00  0.00    +0.000 HD
ENDBRANCH   4   8
BRANCH   4  10
ATOM     10  C   UNL     1       6.757   4.002  15.471  0.00  0.00    +0.000 C 
ATOM     11  C   UNL     1       6.447   3.976  13.971  0.00  0.00    +0.000 C 
BRANCH  10  12
ATOM     12  O   UNL     1       5.790   3.138  16.094  0.00  0.00    +0.000 OA
ATOM     13  H   UNL     1       5.876   2.277  15.637  0.00  0.00    +0.000 HD
ENDBRANCH  10  12
ENDBRANCH   4  10
ENDBRANCH   2   4
ENDBRANCH   1   2
BRANCH   1  14
ATOM     14  C   UNL     1       3.683   6.079  17.711  0.00  0.00    +0.000 C 
BRANCH  14  15
ATOM     15  C   UNL     1       3.498   5.214  18.978  0.00  0.00    +0.000 C 
ATOM     16  C   UNL     1       4.058   3.808  18.847  0.00  0.00    +0.000 C 
ATOM     17  C   UNL     1       2.998   3.053  18.066  0.00  0.00    +0.000 C 
ATOM     18  N   UNL     1       1.660   3.707  18.386  0.00  0.00    +0.000 N 
ATOM     19  O   UNL     1       0.988   4.033  17.251  0.00  0.00    +0.000 OA
ATOM     20  C   UNL     1       0.808   2.841  19.280  0.00  0.00    +0.000 C 
ATOM     21  C   UNL     1       1.225   3.173  20.689  0.00  0.00    +0.000 C 
ATOM     22  C   UNL     1       1.496   4.665  20.629  0.00  0.00    +0.000 C 
ATOM     23  C   UNL     1       2.000   4.955  19.203  0.00  0.00    +0.000 C 
BRANCH  22  24
ATOM     24  O   UNL     1       2.377   5.068  21.663  0.00  0.00    +0.000 OA
ATOM     25  H   UNL     1       2.770   4.285  22.084  0.00  0.00    +0.000 HD
ENDBRANCH  22  24
ENDBRANCH  14  15
ENDBRANCH   1  14
TORSDOF 9
ENDMDL
MODEL 3
REMARK VINA RESULT:      -7.3      1.818      2.708
REMARK  Name = 
REMARK  12 active torsions:
REMARK  status: ('A' for Active; 'I' for Inactive)
REMARK    1  A    between atoms: C_1  and  C_2
REMARK    2  A    between atoms: C_2  and  C_3
REMARK    3  A    between atoms: C_2  and  C_4
REMARK    4  A    between atoms: C_4  and  O_5
REMARK    5  A    between atoms: C_4  and  C_6
REMARK    6  A    between atoms: C_4  and  C_20
REMARK    7  A    between atoms: C_6  and  O_8
REMARK    8  A    between atoms: O_8  and  C_9
REMARK    9  A    between atoms: C_9  and  C_10
REMARK   10  A    between atoms: C_17  and  O_18
REMARK   11  A    between atoms: C_20  and  C_21
REMARK   12  A    between atoms: C_20  and  O_22
REMARK                            x       y       z     vdW  Elec       q    Type
REMARK                         _______ _______ _______ _____ _____    ______ ____
ROOT
ATOM      1  O   UNL     1       4.180   5.126  16.787  0.00  0.00    +0.000 OA
ENDROOT
BRANCH   1   2
ATOM      2  C   UNL     1       5.058   5.729  15.935  0.00  0.00    +0.000 C 
ATOM      3  O   UNL     1       5.014   6.909  15.607  0.00  0.00    +0.000 OA
BRANCH   2   4
ATOM      4  C   UNL     1       6.222   4.794  15.492  0.00  0.00    +0.000 C 
BRANCH   4   6
ATOM      5  C   UNL     1       5.891   3.532  13.250  0.00  0.00    +0.000 C 
ATOM      6  C   UNL     1       6.381   4.809  13.936  0.00  0.00    +0.000 C 
ATOM      7  C   UNL     1       7.810   5.114  13.454  0.00  0.00    +0.000 C 
ENDBRANCH   4   6
BRANCH   4   8
ATOM      8  O   UNL     1       5.877   3.438  15.878  0.00  0.00    +0.000 OA
ATOM      9  H   UNL     1       6.596   3.131  16.465  0.00  0.00    +0.000 HD
ENDBRANCH   4   8
BRANCH   4  10
ATOM     10  C   UNL     1       7.531   5.142  16.258  0.00  0.00    +0.000 C 
ATOM     11  C   UNL     1       7.615   4.554  17.671  0.00  0.00    +0.000 C 
BRANCH  10  12
ATOM     12  O   UNL     1       7.633   6.568  16.411  0.00  0.00    +0.000 OA
ATOM     13  H   UNL     1       8.184   6.707  17.207  0.00  0.00    +0.000 HD
ENDBRANCH  10  12
ENDBRANCH   4  10
ENDBRANCH   2   4
ENDBRANCH   1   2
BRANCH   1  14
ATOM     14  C   UNL     1       4.064   5.687  18.108  0.00  0.00    +0.000 C 
BRANCH  14  15
ATOM     15  C   UNL     1       3.696   4.654  19.197  0.00  0.00    +0.000 C 
ATOM     16  C   UNL     1       4.074   3.226  18.841  0.00  0.00    +0.000 C 
ATOM     17  C   UNL     1       2.969   2.769  17.906  0.00  0.00    +0.000 C 
ATOM     18  N   UNL     1       1.713   3.539  18.292  0.00  0.00    +0.000 N 
ATOM     19  O   UNL     1       1.153   4.142  17.210  0.00  0.00    +0.000 OA
ATOM     20  C   UNL     1       0.706   2.661  18.993  0.00  0.00    +0.000 C 
ATOM     21  C   UNL     1       1.084   2.689  20.450  0.00  0.00    +0.000 C 
ATOM     22  C   UNL     1       1.551   4.118  20.661  0.00  0.00    +0.000 C 
ATOM     23  C   UNL     1       2.167   4.571  19.326  0.00  0.00    +0.000 C 
BRANCH  22  24
ATOM     24  O   UNL     1       2.419   4.213  21.778  0.00  0.00    +0.000 OA
ATOM     25  H   UNL     1       2.667   5.141  21.925  0.00  0.00    +0.000 HD
ENDBRANCH  22  24
ENDBRANCH  14  15
ENDBRANCH   1  14
TORSDOF 9
ENDMDL
MODEL 4
REMARK VINA RESULT:      -7.2      1.190      1.331
REMARK  Name = 
REMARK  12 active torsions:
REMARK  status: ('A' for Active; 'I' for Inactive)
REMARK    1  A    between atoms: C_1  and  C_2
REMARK    2  A    between atoms: C_2  and  C_3
REMARK    3  A    between atoms: C_2  and  C_4
REMARK    4  A    between atoms: C_4  and  O_5
REMARK    5  A    between atoms: C_4  and  C_6
REMARK    6  A    between atoms: C_4  and  C_20
REMARK    7  A    between atoms: C_6  and  O_8
REMARK    8  A    between atoms: O_8  and  C_9
REMARK    9  A    between atoms: C_9  and  C_10
REMARK   10  A    between atoms: C_17  and  O_18
REMARK   11  A    between atoms: C_20  and  C_21
REMARK   12  A    between atoms: C_20  and  O_22
REMARK                            x       y       z     vdW  Elec       q    Type
REMARK                         _______ _______ _______ _____ _____    ______ ____
ROOT
ATOM      1  O   UNL     1       5.975   3.925  17.947  0.00  0.00    +0.000 OA
ENDROOT
BRANCH   1   2
ATOM      2  C   UNL     1       7.118   4.591  17.611  0.00  0.00    +0.000 C 
ATOM      3  O   UNL     1       8.244   4.111  17.655  0.00  0.00    +0.000 OA
BRANCH   2   4
ATOM      4  C   UNL     1       6.852   6.016  17.043  0.00  0.00    +0.000 C 
BRANCH   4   6
ATOM      5  C   UNL     1       5.268   6.340  15.014  0.00  0.00    +0.000 C 
ATOM      6  C   UNL     1       5.380   6.139  16.527  0.00  0.00    +0.000 C 
ATOM      7  C   UNL     1       4.557   7.230  17.235  0.00  0.00    +0.000 C 
ENDBRANCH   4   6
BRANCH   4   8
ATOM      8  O   UNL     1       7.727   6.212  15.902  0.00  0.00    +0.000 OA
ATOM      9  H   UNL     1       8.627   6.331  16.267  0.00  0.00    +0.000 HD
ENDBRANCH   4   8
BRANCH   4  10
ATOM     10  C   UNL     1       7.245   7.106  18.081  0.00  0.00    +0.000 C 
ATOM     11  C   UNL     1       7.931   8.337  17.481  0.00  0.00    +0.000 C 
BRANCH  10  12
ATOM     12  O   UNL     1       8.174   6.553  19.029  0.00  0.00    +0.000 OA
ATOM     13  H   UNL     1       8.676   7.316  19.380  0.00  0.00    +0.000 HD
ENDBRANCH  10  12
ENDBRANCH   4  10
ENDBRANCH   2   4
ENDBRANCH   1   2
BRANCH   1  14
ATOM     14  C   UNL     1       5.356   4.282  19.196  0.00  0.00    +0.000 C 
BRANCH  14  15
ATOM     15  C   UNL     1       4.353   3.230  19.722  0.00  0.00    +0.000 C 
ATOM     16  C   UNL     1       3.713   2.393  18.628  0.00  0.00    +0.000 C 
ATOM     17  C   UNL     1       2.622   3.284  18.065  0.00  0.00    +0.000 C 
ATOM     18  N   UNL     1       2.167   4.199  19.194  0.00  0.00    +0.000 N 
ATOM     19  O   UNL     1       2.189   5.502  18.811  0.00  0.00    +0.000 OA
ATOM     20  C   UNL     1       0.802   3.819  19.713  0.00  0.00    +0.000 C 
ATOM     21  C   UNL     1       1.043   2.764  20.761  0.00  0.00    +0.000 C 
ATOM     22  C   UNL     1       2.324   3.225  21.431  0.00  0.00    +0.000 C 
ATOM     23  C   UNL     1       3.143   3.945  20.344  0.00  0.00    +0.000 C 
BRANCH  22  24
ATOM     24  O   UNL     1       2.992   2.143  22.057  0.00  0.00    +0.000 OA
ATOM     25  H   UNL     1       3.317   2.418  22.932  0.00  0.00    +0.000 HD
ENDBRANCH  22  24
ENDBRANCH  14  15
ENDBRANCH   1  14
TORSDOF 9
ENDMDL
MODEL 5
REMARK VINA RESULT:      -7.1      1.821      3.446
REMARK  Name = 
REMARK  12 active torsions:
REMARK  status: ('A' for Active; 'I' for Inactive)
REMARK    1  A    between atoms: C_1  and  C_2
REMARK    2  A    between atoms: C_2  and  C_3
REMARK    3  A    between atoms: C_2  and  C_4
REMARK    4  A    between atoms: C_4  and  O_5
REMARK    5  A    between atoms: C_4  and  C_6
REMARK    6  A    between atoms: C_4  and  C_20
REMARK    7  A    between atoms: C_6  and  O_8
REMARK    8  A    between atoms: O_8  and  C_9
REMARK    9  A    between atoms: C_9  and  C_10
REMARK   10  A    between atoms: C_17  and  O_18
REMARK   11  A    between atoms: C_20  and  C_21
REMARK   12  A    between atoms: C_20  and  O_22
REMARK                            x       y       z     vdW  Elec       q    Type
REMARK                         _______ _______ _______ _____ _____    ______ ____
ROOT
ATOM      1  O   UNL     1       4.235   5.430  16.546  0.00  0.00    +0.000 OA
ENDROOT
BRANCH   1   2
ATOM      2  C   UNL     1       5.254   6.083  15.916  0.00  0.00    +0.000 C 
ATOM      3  O   UNL     1       5.132   7.129  15.292  0.00  0.00    +0.000 OA
BRANCH   2   4
ATOM      4  C   UNL     1       6.645   5.428  16.162  0.00  0.00    +0.000 C 
BRANCH   4   6
ATOM      5  C   UNL     1       7.635   6.983  17.988  0.00  0.00    +0.000 C 
ATOM      6  C   UNL     1       7.079   5.596  17.656  0.00  0.00    +0.000 C 
ATOM      7  C   UNL     1       8.077   4.531  18.143  0.00  0.00    +0.000 C 
ENDBRANCH   4   6
BRANCH   4   8
ATOM      8  O   UNL     1       7.620   6.131  15.348  0.00  0.00    +0.000 OA
ATOM      9  H   UNL     1       7.682   7.034  15.717  0.00  0.00    +0.000 HD
ENDBRANCH   4   8
BRANCH   4  10
ATOM     10  C   UNL     1       6.655   3.952  15.671  0.00  0.00    +0.000 C 
ATOM     11  C   UNL     1       6.252   3.768  14.204  0.00  0.00    +0.000 C 
BRANCH  10  12
ATOM     12  O   UNL     1       5.716   3.183  16.443  0.00  0.00    +0.000 OA
ATOM     13  H   UNL     1       4.855   3.288  15.988  0.00  0.00    +0.000 HD
ENDBRANCH  10  12
ENDBRANCH   4  10
ENDBRANCH   2   4
ENDBRANCH   1   2
BRANCH   1  14
ATOM     14  C   UNL     1       3.588   6.123  17.629  0.00  0.00    +0.000 C 
BRANCH  14  15
ATOM     15  C   UNL     1       2.451   5.318  18.299  0.00  0.00    +0.000 C 
ATOM     16  C   UNL     1       2.236   5.661  19.763  0.00  0.00    +0.000 C 
ATOM     17  C   UNL     1       3.328   4.899  20.490  0.00  0.00    +0.000 C 
ATOM     18  N   UNL     1       3.637   3.661  19.657  0.00  0.00    +0.000 N 
ATOM     19  O   UNL     1       4.969   3.556  19.409  0.00  0.00    +0.000 OA
ATOM     20  C   UNL     1       3.114   2.402  20.302  0.00  0.00    +0.000 C 
ATOM     21  C   UNL     1       1.686   2.269  19.839  0.00  0.00    +0.000 C 
ATOM     22  C   UNL     1       1.738   2.766  18.406  0.00  0.00    +0.000 C 
ATOM     23  C   UNL     1       2.845   3.834  18.360  0.00  0.00    +0.000 C 
BRANCH  22  24
ATOM     24  O   UNL     1       0.464   3.212  17.973  0.00  0.00    +0.000 OA
ATOM     25  H   UNL     1      -0.136   3.285  18.735  0.00  0.00    +0.000 HD
ENDBRANCH  22  24
ENDBRANCH  14  15
ENDBRANCH   1  14
TORSDOF 9
ENDMDL
MODEL 6
REMARK VINA RESULT:      -7.1      1.820      3.080
REMARK  Name = 
REMARK  12 active torsions:
REMARK  status: ('A' for Active; 'I' for Inactive)
REMARK    1  A    between atoms: C_1  and  C_2
REMARK    2  A    between atoms: C_2  and  C_3
REMARK    3  A    between atoms: C_2  and  C_4
REMARK    4  A    between atoms: C_4  and  O_5
REMARK    5  A    between atoms: C_4  and  C_6
REMARK    6  A    between atoms: C_4  and  C_20
REMARK    7  A    between atoms: C_6  and  O_8
REMARK    8  A    between atoms: O_8  and  C_9
REMARK    9  A    between atoms: C_9  and  C_10
REMARK   10  A    between atoms: C_17  and  O_18
REMARK   11  A    between atoms: C_20  and  C_21
REMARK   12  A    between atoms: C_20  and  O_22
REMARK                            x       y       z     vdW  Elec       q    Type
REMARK                         _______ _______ _______ _____ _____    ______ ____
ROOT
ATOM      1  O   UNL     1       4.670   6.133  18.590  0.00  0.00    +0.000 OA
ENDROOT
BRANCH   1   2
ATOM      2  C   UNL     1       5.714   5.305  18.296  0.00  0.00    +0.000 C 
ATOM      3  O   UNL     1       5.923   4.227  18.836  0.00  0.00    +0.000 OA
BRANCH   2   4
ATOM      4  C   UNL     1       6.575   5.808  17.100  0.00  0.00    +0.000 C 
BRANCH   4   6
ATOM      5  C   UNL     1       8.169   6.368  19.069  0.00  0.00    +0.000 C 
ATOM      6  C   UNL     1       7.795   6.644  17.611  0.00  0.00    +0.000 C 
ATOM      7  C   UNL     1       7.641   8.162  17.417  0.00  0.00    +0.000 C 
ENDBRANCH   4   6
BRANCH   4   8
ATOM      8  O   UNL     1       5.752   6.693  16.296  0.00  0.00    +0.000 OA
ATOM      9  H   UNL     1       4.906   6.790  16.779  0.00  0.00    +0.000 HD
ENDBRANCH   4   8
BRANCH   4  10
ATOM     10  C   UNL     1       6.973   4.625  16.170  0.00  0.00    +0.000 C 
ATOM     11  C   UNL     1       7.125   5.002  14.693  0.00  0.00    +0.000 C 
BRANCH  10  12
ATOM     12  O   UNL     1       5.953   3.612  16.221  0.00  0.00    +0.000 OA
ATOM     13  H   UNL     1       6.331   2.886  16.758  0.00  0.00    +0.000 HD
ENDBRANCH  10  12
ENDBRANCH   4  10
ENDBRANCH   2   4
ENDBRANCH   1   2
BRANCH   1  14
ATOM     14  C   UNL     1       3.853   5.775  19.720  0.00  0.00    +0.000 C 
BRANCH  14  15
ATOM     15  C   UNL     1       2.463   5.217  19.337  0.00  0.00    +0.000 C 
ATOM     16  C   UNL     1       1.509   5.089  20.513  0.00  0.00    +0.000 C 
ATOM     17  C   UNL     1       1.934   3.807  21.203  0.00  0.00    +0.000 C 
ATOM     18  N   UNL     1       2.529   2.902  20.132  0.00  0.00    +0.000 N 
ATOM     19  O   UNL     1       3.758   2.450  20.497  0.00  0.00    +0.000 OA
ATOM     20  C   UNL     1       1.616   1.749  19.796  0.00  0.00    +0.000 C 
ATOM     21  C   UNL     1       0.679   2.266  18.736  0.00  0.00    +0.000 C 
ATOM     22  C   UNL     1       1.563   3.176  17.903  0.00  0.00    +0.000 C 
ATOM     23  C   UNL     1       2.609   3.761  18.869  0.00  0.00    +0.000 C 
BRANCH  22  24
ATOM     24  O   UNL     1       0.793   4.140  17.207  0.00  0.00    +0.000 OA
ATOM     25  H   UNL     1       0.846   4.997  17.664  0.00  0.00    +0.000 HD
ENDBRANCH  22  24
ENDBRANCH  14  15
ENDBRANCH   1  14
TORSDOF 9
ENDMDL
MODEL 7
REMARK VINA RESULT:      -7.0      1.437      2.524
REMARK  Name = 
REMARK  12 active torsions:
REMARK  status: ('A' for Active; 'I' for Inactive)
REMARK    1  A    between atoms: C_1  and  C_2
REMARK    2  A    between atoms: C_2  and  C_3
REMARK    3  A    between atoms: C_2  and  C_4
REMARK    4  A    between atoms: C_4  and  O_5
REMARK    5  A    between atoms: C_4  and  C_6
REMARK    6  A    between atoms: C_4  and  C_20
REMARK    7  A    between atoms: C_6  and  O_8
REMARK    8  A    between atoms: O_8  and  C_9
REMARK    9  A    between atoms: C_9  and  C_10
REMARK   10  A    between atoms: C_17  and  O_18
REMARK   11  A    between atoms: C_20  and  C_21
REMARK   12  A    between atoms: C_20  and  O_22
REMARK                            x       y       z     vdW  Elec       q    Type
REMARK                         _______ _______ _______ _____ _____    ______ ____
ROOT
ATOM      1  O   UNL     1       5.530   4.207  19.173  0.00  0.00    +0.000 OA
ENDROOT
BRANCH   1   2
ATOM      2  C   UNL     1       5.842   4.155  17.846  0.00  0.00    +0.000 C 
ATOM      3  O   UNL     1       5.203   3.539  17.002  0.00  0.00    +0.000 OA
BRANCH   2   4
ATOM      4  C   UNL     1       7.047   5.064  17.463  0.00  0.00    +0.000 C 
BRANCH   4   6
ATOM      5  C   UNL     1       5.339   6.346  15.991  0.00  0.00    +0.000 C 
ATOM      6  C   UNL     1       6.769   5.815  16.120  0.00  0.00    +0.000 C 
ATOM      7  C   UNL     1       7.111   4.999  14.862  0.00  0.00    +0.000 C 
ENDBRANCH   4   6
BRANCH   4   8
ATOM      8  O   UNL     1       8.201   4.210  17.249  0.00  0.00    +0.000 OA
ATOM      9  H   UNL     1       8.984   4.795  17.285  0.00  0.00    +0.000 HD
ENDBRANCH   4   8
BRANCH   4  10
ATOM     10  C   UNL     1       7.422   6.008  18.642  0.00  0.00    +0.000 C 
ATOM     11  C   UNL     1       8.093   7.318  18.218  0.00  0.00    +0.000 C 
BRANCH  10  12
ATOM     12  O   UNL     1       8.356   5.343  19.511  0.00  0.00    +0.000 OA
ATOM     13  H   UNL     1       9.126   5.943  19.576  0.00  0.00    +0.000 HD
ENDBRANCH  10  12
ENDBRANCH   4  10
ENDBRANCH   2   4
ENDBRANCH   1   2
BRANCH   1  14
ATOM     14  C   UNL     1       4.629   5.250  19.590  0.00  0.00    +0.000 C 
BRANCH  14  15
ATOM     15  C   UNL     1       3.161   5.017  19.164  0.00  0.00    +0.000 C 
ATOM     16  C   UNL     1       2.143   5.604  20.126  0.00  0.00    +0.000 C 
ATOM     17  C   UNL     1       2.071   4.594  21.257  0.00  0.00    +0.000 C 
ATOM     18  N   UNL     1       2.401   3.233  20.659  0.00  0.00    +0.000 N 
ATOM     19  O   UNL     1       3.382   2.611  21.364  0.00  0.00    +0.000 OA
ATOM     20  C   UNL     1       1.181   2.352  20.554  0.00  0.00    +0.000 C 
ATOM     21  C   UNL     1       0.541   2.696  19.234  0.00  0.00    +0.000 C 
ATOM     22  C   UNL     1       1.732   2.946  18.325  0.00  0.00    +0.000 C 
ATOM     23  C   UNL     1       2.846   3.514  19.223  0.00  0.00    +0.000 C 
BRANCH  22  24
ATOM     24  O   UNL     1       1.374   3.771  17.229  0.00  0.00    +0.000 OA
ATOM     25  H   UNL     1       2.096   3.784  16.578  0.00  0.00    +0.000 HD
ENDBRANCH  22  24
ENDBRANCH  14  15
ENDBRANCH   1  14
TORSDOF 9
ENDMDL
MODEL 8
REMARK VINA RESULT:      -7.0      1.481      2.380
REMARK  Name = 
REMARK  12 active torsions:
REMARK  status: ('A' for Active; 'I' for Inactive)
REMARK    1  A    between atoms: C_1  and  C_2
REMARK    2  A    between atoms: C_2  and  C_3
REMARK    3  A    between atoms: C_2  and  C_4
REMARK    4  A    between atoms: C_4  and  O_5
REMARK    5  A    between atoms: C_4  and  C_6
REMARK    6  A    between atoms: C_4  and  C_20
REMARK    7  A    between atoms: C_6  and  O_8
REMARK    8  A    between atoms: O_8  and  C_9
REMARK    9  A    between atoms: C_9  and  C_10
REMARK   10  A    between atoms: C_17  and  O_18
REMARK   11  A    between atoms: C_20  and  C_21
REMARK   12  A    between atoms: C_20  and  O_22
REMARK                            x       y       z     vdW  Elec       q    Type
REMARK                         _______ _______ _______ _____ _____    ______ ____
ROOT
ATOM      1  O   UNL     1       5.790   3.615  17.786  0.00  0.00    +0.000 OA
ENDROOT
BRANCH   1   2
ATOM      2  C   UNL     1       6.620   4.414  17.055  0.00  0.00    +0.000 C 
ATOM      3  O   UNL     1       7.843   4.371  17.093  0.00  0.00    +0.000 OA
BRANCH   2   4
ATOM      4  C   UNL     1       5.860   5.332  16.053  0.00  0.00    +0.000 C 
BRANCH   4   6
ATOM      5  C   UNL     1       7.026   7.170  17.464  0.00  0.00    +0.000 C 
ATOM      6  C   UNL     1       5.843   6.811  16.561  0.00  0.00    +0.000 C 
ATOM      7  C   UNL     1       4.538   7.217  17.269  0.00  0.00    +0.000 C 
ENDBRANCH   4   6
BRANCH   4   8
ATOM      8  O   UNL     1       4.481   4.881  15.991  0.00  0.00    +0.000 OA
ATOM      9  H   UNL     1       4.174   5.068  15.081  0.00  0.00    +0.000 HD
ENDBRANCH   4   8
BRANCH   4  10
ATOM     10  C   UNL     1       6.431   5.172  14.615  0.00  0.00    +0.000 C 
ATOM     11  C   UNL     1       6.278   3.767  14.023  0.00  0.00    +0.000 C 
BRANCH  10  12
ATOM     12  O   UNL     1       7.843   5.449  14.626  0.00  0.00    +0.000 OA
ATOM     13  H   UNL     1       8.272   4.614  14.903  0.00  0.00    +0.000 HD
ENDBRANCH  10  12
ENDBRANCH   4  10
ENDBRANCH   2   4
ENDBRANCH   1   2
BRANCH   1  14
ATOM     14  C   UNL     1       5.319   4.141  19.041  0.00  0.00    +0.000 C 
BRANCH  14  15
ATOM     15  C   UNL     1       4.312   3.221  19.768  0.00  0.00    +0.000 C 
ATOM     16  C   UNL     1       3.924   1.986  18.971  0.00  0.00    +0.000 C 
ATOM     17  C   UNL     1       2.890   2.489  17.982  0.00  0.00    +0.000 C 
ATOM     18  N   UNL     1       2.190   3.675  18.634  0.00  0.00    +0.000 N 
ATOM     19  O   UNL     1       2.191   4.759  17.815  0.00  0.00    +0.000 OA
ATOM     20  C   UNL     1       0.784   3.333  19.063  0.00  0.00    +0.000 C 
ATOM     21  C   UNL     1       0.911   2.741  20.443  0.00  0.00    +0.000 C 
ATOM     22  C   UNL     1       2.027   3.557  21.070  0.00  0.00    +0.000 C 
ATOM     23  C   UNL     1       2.970   3.953  19.920  0.00  0.00    +0.000 C 
BRANCH  22  24
ATOM     24  O   UNL     1       2.647   2.846  22.129  0.00  0.00    +0.000 OA
ATOM     25  H   UNL     1       2.986   3.472  22.791  0.00  0.00    +0.000 HD
ENDBRANCH  22  24
ENDBRANCH  14  15
ENDBRANCH   1  14
TORSDOF 9
ENDMDL
MODEL 9
REMARK VINA RESULT:      -6.9      1.754      3.366
REMARK  Name = 
REMARK  12 active torsions:
REMARK  status: ('A' for Active; 'I' for Inactive)
REMARK    1  A    between atoms: C_1  and  C_2
REMARK    2  A    between atoms: C_2  and  C_3
REMARK    3  A    between atoms: C_2  and  C_4
REMARK    4  A    between atoms: C_4  and  O_5
REMARK    5  A    between atoms: C_4  and  C_6
REMARK    6  A    between atoms: C_4  and  C_20
REMARK    7  A    between atoms: C_6  and  O_8
REMARK    8  A    between atoms: O_8  and  C_9
REMARK    9  A    between atoms: C_9  and  C_10
REMARK   10  A    between atoms: C_17  and  O_18
REMARK   11  A    between atoms: C_20  and  C_21
REMARK   12  A    between atoms: C_20  and  O_22
REMARK                            x       y       z     vdW  Elec       q    Type
REMARK                         _______ _______ _______ _____ _____    ______ ____
ROOT
ATOM      1  O   UNL     1       4.693   6.807  17.621  0.00  0.00    +0.000 OA
ENDROOT
BRANCH   1   2
ATOM      2  C   UNL     1       5.391   6.553  16.476  0.00  0.00    +0.000 C 
ATOM      3  O   UNL     1       5.001   6.820  15.347  0.00  0.00    +0.000 OA
BRANCH   2   4
ATOM      4  C   UNL     1       6.816   5.984  16.742  0.00  0.00    +0.000 C 
BRANCH   4   6
ATOM      5  C   UNL     1       8.122   7.389  18.488  0.00  0.00    +0.000 C 
ATOM      6  C   UNL     1       7.219   6.179  18.241  0.00  0.00    +0.000 C 
ATOM      7  C   UNL     1       7.864   4.938  18.884  0.00  0.00    +0.000 C 
ENDBRANCH   4   6
BRANCH   4   8
ATOM      8  O   UNL     1       7.758   6.744  15.940  0.00  0.00    +0.000 OA
ATOM      9  H   UNL     1       8.608   6.264  15.990  0.00  0.00    +0.000 HD
ENDBRANCH   4   8
BRANCH   4  10
ATOM     10  C   UNL     1       6.922   4.511  16.252  0.00  0.00    +0.000 C 
ATOM     11  C   UNL     1       7.100   4.357  14.738  0.00  0.00    +0.000 C 
BRANCH  10  12
ATOM     12  O   UNL     1       5.714   3.806  16.587  0.00  0.00    +0.000 OA
ATOM     13  H   UNL     1       5.801   3.571  17.533  0.00  0.00    +0.000 HD
ENDBRANCH  10  12
ENDBRANCH   4  10
ENDBRANCH   2   4
ENDBRANCH   1   2
BRANCH   1  14
ATOM     14  C   UNL     1       3.393   6.199  17.739  0.00  0.00    +0.000 C 
BRANCH  14  15
ATOM     15  C   UNL     1       3.435   4.694  18.090  0.00  0.00    +0.000 C 
ATOM     16  C   UNL     1       2.117   3.974  17.862  0.00  0.00    +0.000 C 
ATOM     17  C   UNL     1       1.282   4.328  19.078  0.00  0.00    +0.000 C 
ATOM     18  N   UNL     1       2.250   4.565  20.230  0.00  0.00    +0.000 N 
ATOM     19  O   UNL     1       2.014   5.760  20.833  0.00  0.00    +0.000 OA
ATOM     20  C   UNL     1       2.215   3.443  21.237  0.00  0.00    +0.000 C 
ATOM     21  C   UNL     1       3.185   2.408  20.730  0.00  0.00    +0.000 C 
ATOM     22  C   UNL     1       4.303   3.242  20.133  0.00  0.00    +0.000 C 
ATOM     23  C   UNL     1       3.646   4.529  19.604  0.00  0.00    +0.000 C 
BRANCH  22  24
ATOM     24  O   UNL     1       5.030   2.505  19.164  0.00  0.00    +0.000 OA
ATOM     25  H   UNL     1       5.856   2.971  18.947  0.00  0.00    +0.000 HD
ENDBRANCH  22  24
ENDBRANCH  14  15
ENDBRANCH   1  14
TORSDOF 9
ENDMDL
