MODEL 1
REMARK VINA RESULT:      -7.4      0.000      0.000
REMARK  Name = 
REMARK  5 active torsions:
REMARK  status: ('A' for Active; 'I' for Inactive)
REMARK    1  A    between atoms: C_2  and  C_15
REMARK    2  A    between atoms: N_3  and  C_4
REMARK    3  A    between atoms: C_4  and  C_5
REMARK    4  A    between atoms: C_5  and  C_6
REMARK    5  A    between atoms: C_9  and  C_10
REMARK                            x       y       z     vdW  Elec       q    Type
REMARK                         _______ _______ _______ _____ _____    ______ ____
ROOT
ATOM      1  C   UNL     1       6.640   5.401  19.393  0.00  0.00    +0.000 C 
ENDROOT
BRANCH   1   4
ATOM      2  O   UNL     1       5.296   2.991  19.829  0.00  0.00    +0.000 OA
ATOM      3  C   UNL     1       4.698   3.893  19.247  0.00  0.00    +0.000 C 
ATOM      4  N   UNL     1       5.269   5.119  18.970  0.00  0.00    +0.000 N 
ATOM      5  H   UNL     1       4.686   5.898  18.691  0.00  0.00    +0.000 HD
BRANCH   3   6
ATOM      6  C   UNL     1       3.295   3.680  18.852  0.00  0.00    +0.000 A 
ATOM      7  C   UNL     1       2.574   2.642  19.435  0.00  0.00    +0.000 A 
ATOM      8  C   UNL     1       1.280   2.435  19.006  0.00  0.00    +0.000 A 
ATOM      9  N   UNL     1       0.705   3.195  18.052  0.00  0.00    +0.000 NA
ATOM     10  N   UNL     1       1.418   4.201  17.468  0.00  0.00    +0.000 NA
ATOM     11  C   UNL     1       2.689   4.426  17.861  0.00  0.00    +0.000 A 
ENDBRANCH   3   6
ENDBRANCH   1   4
BRANCH   1  12
ATOM     12  C   UNL     1       7.489   6.020  18.281  0.00  0.00    +0.000 C 
BRANCH  12  13
ATOM     13  C   UNL     1       6.881   5.840  16.938  0.00  0.00    +0.000 A 
ATOM     14  N   UNL     1       6.115   6.773  16.359  0.00  0.00    +0.000 NA
ATOM     15  O   UNL     1       5.807   6.220  15.117  0.00  0.00    +0.000 OA
ATOM     16  C   UNL     1       6.426   5.002  15.063  0.00  0.00    +0.000 A 
ATOM     17  N   UNL     1       7.103   4.724  16.167  0.00  0.00    +0.000 NA
BRANCH  16  18
ATOM     18  C   UNL     1       6.234   4.232  13.806  0.00  0.00    +0.000 C 
ATOM     19  F   UNL     1       4.971   4.332  13.309  0.00  0.00    +0.000 F 
ATOM     20  F   UNL     1       7.067   4.650  12.813  0.00  0.00    +0.000 F 
ATOM     21  F   UNL     1       6.473   2.902  13.974  0.00  0.00    +0.000 F 
ENDBRANCH  16  18
ENDBRANCH  12  13
ENDBRANCH   1  12
TORSDOF 5
ENDMDL
MODEL 2
REMARK VINA RESULT:      -7.3      2.062      2.337
REMARK  Name = 
REMARK  5 active torsions:
REMARK  status: ('A' for Active; 'I' for Inactive)
REMARK    1  A    between atoms: C_2  and  C_15
REMARK    2  A    between atoms: N_3  and  C_4
REMARK    3  A    between atoms: C_4  and  C_5
REMARK    4  A    between atoms: C_5  and  C_6
REMARK    5  A    between atoms: C_9  and  C_10
REMARK                            x       y       z     vdW  Elec       q    Type
REMARK                         _______ _______ _______ _____ _____    ______ ____
ROOT
ATOM      1  C   UNL     1       5.659   5.479  17.855  0.00  0.00    +0.000 C 
ENDROOT
BRANCH   1   4
ATOM      2  O   UNL     1       3.034   4.552  17.625  0.00  0.00    +0.000 OA
ATOM      3  C   UNL     1       3.611   4.403  18.700  0.00  0.00    +0.000 C 
ATOM      4  N   UNL     1       4.903   4.832  18.926  0.00  0.00    +0.000 N 
ATOM      5  H   UNL     1       5.411   4.503  19.738  0.00  0.00    +0.000 HD
BRANCH   3   6
ATOM      6  C   UNL     1       2.913   3.706  19.793  0.00  0.00    +0.000 A 
ATOM      7  C   UNL     1       1.535   3.854  19.926  0.00  0.00    +0.000 A 
ATOM      8  C   UNL     1       0.919   3.231  20.991  0.00  0.00    +0.000 A 
ATOM      9  N   UNL     1       1.602   2.497  21.892  0.00  0.00    +0.000 NA
ATOM     10  N   UNL     1       2.954   2.365  21.772  0.00  0.00    +0.000 NA
ATOM     11  C   UNL     1       3.589   2.967  20.745  0.00  0.00    +0.000 A 
ENDBRANCH   3   6
ENDBRANCH   1   4
BRANCH   1  12
ATOM     12  C   UNL     1       6.764   4.588  17.287  0.00  0.00    +0.000 C 
BRANCH  12  13
ATOM     13  C   UNL     1       6.840   4.655  15.805  0.00  0.00    +0.000 A 
ATOM     14  N   UNL     1       7.593   5.553  15.158  0.00  0.00    +0.000 NA
ATOM     15  O   UNL     1       7.407   5.230  13.815  0.00  0.00    +0.000 OA
ATOM     16  C   UNL     1       6.558   4.159  13.780  0.00  0.00    +0.000 A 
ATOM     17  N   UNL     1       6.181   3.767  14.987  0.00  0.00    +0.000 NA
BRANCH  16  18
ATOM     18  C   UNL     1       6.225   3.638  12.428  0.00  0.00    +0.000 C 
ATOM     19  F   UNL     1       4.890   3.666  12.162  0.00  0.00    +0.000 F 
ATOM     20  F   UNL     1       6.825   4.355  11.438  0.00  0.00    +0.000 F 
ATOM     21  F   UNL     1       6.620   2.346  12.262  0.00  0.00    +0.000 F 
ENDBRANCH  16  18
ENDBRANCH  12  13
ENDBRANCH   1  12
TORSDOF 5
ENDMDL
MODEL 3
REMARK VINA RESULT:      -7.2      1.572      1.863
REMARK  Name = 
REMARK  5 active torsions:
REMARK  status: ('A' for Active; 'I' for Inactive)
REMARK    1  A    between atoms: C_2  and  C_15
REMARK    2  A    between atoms: N_3  and  C_4
REMARK    3  A    between atoms: C_4  and  C_5
REMARK    4  A    between atoms: C_5  and  C_6
REMARK    5  A    between atoms: C_9  and  C_10
REMARK                            x       y       z     vdW  Elec       q    Type
REMARK                         _______ _______ _______ _____ _____    ______ ____
ROOT
ATOM      1  C   UNL     1       6.466   5.405  18.501  0.00  0.00    +0.000 C 
ENDROOT
BRANCH   1   4
ATOM      2  O   UNL     1       3.952   6.062  17.477  0.00  0.00    +0.000 OA
ATOM      3  C   UNL     1       4.028   5.139  18.285  0.00  0.00    +0.000 C 
ATOM      4  N   UNL     1       5.216   4.738  18.860  0.00  0.00    +0.000 N 
ATOM      5  H   UNL     1       5.270   3.849  19.344  0.00  0.00    +0.000 HD
BRANCH   3   6
ATOM      6  C   UNL     1       2.805   4.397  18.636  0.00  0.00    +0.000 A 
ATOM      7  C   UNL     1       2.178   4.654  19.852  0.00  0.00    +0.000 A 
ATOM      8  C   UNL     1       1.066   3.906  20.176  0.00  0.00    +0.000 A 
ATOM      9  N   UNL     1       0.577   2.948  19.362  0.00  0.00    +0.000 NA
ATOM     10  N   UNL     1       1.201   2.685  18.178  0.00  0.00    +0.000 NA
ATOM     11  C   UNL     1       2.297   3.394  17.834  0.00  0.00    +0.000 A 
ENDBRANCH   3   6
ENDBRANCH   1   4
BRANCH   1  12
ATOM     12  C   UNL     1       7.388   4.524  17.656  0.00  0.00    +0.000 C 
BRANCH  12  13
ATOM     13  C   UNL     1       7.129   4.668  16.200  0.00  0.00    +0.000 A 
ATOM     14  N   UNL     1       7.559   5.717  15.489  0.00  0.00    +0.000 NA
ATOM     15  O   UNL     1       7.147   5.424  14.190  0.00  0.00    +0.000 OA
ATOM     16  C   UNL     1       6.508   4.216  14.242  0.00  0.00    +0.000 A 
ATOM     17  N   UNL     1       6.473   3.710  15.465  0.00  0.00    +0.000 NA
BRANCH  16  18
ATOM     18  C   UNL     1       5.986   3.701  12.948  0.00  0.00    +0.000 C 
ATOM     19  F   UNL     1       6.121   2.352  12.820  0.00  0.00    +0.000 F 
ATOM     20  F   UNL     1       4.661   3.969  12.784  0.00  0.00    +0.000 F 
ATOM     21  F   UNL     1       6.626   4.252  11.879  0.00  0.00    +0.000 F 
ENDBRANCH  16  18
ENDBRANCH  12  13
ENDBRANCH   1  12
TORSDOF 5
ENDMDL
MODEL 4
REMARK VINA RESULT:      -7.2      1.715      1.879
REMARK  Name = 
REMARK  5 active torsions:
REMARK  status: ('A' for Active; 'I' for Inactive)
REMARK    1  A    between atoms: C_2  and  C_15
REMARK    2  A    between atoms: N_3  and  C_4
REMARK    3  A    between atoms: C_4  and  C_5
REMARK    4  A    between atoms: C_5  and  C_6
REMARK    5  A    between atoms: C_9  and  C_10
REMARK                            x       y       z     vdW  Elec       q    Type
REMARK                         _______ _______ _______ _____ _____    ______ ____
ROOT
ATOM      1  C   UNL     1       7.413   4.737  17.960  0.00  0.00    +0.000 C 
ENDROOT
BRANCH   1   4
ATOM      2  O   UNL     1       5.317   5.443  19.665  0.00  0.00    +0.000 OA
ATOM      3  C   UNL     1       5.232   4.385  19.046  0.00  0.00    +0.000 C 
ATOM      4  N   UNL     1       6.212   3.934  18.186  0.00  0.00    +0.000 N 
ATOM      5  H   UNL     1       6.012   3.181  17.540  0.00  0.00    +0.000 HD
BRANCH   3   6
ATOM      6  C   UNL     1       4.015   3.567  19.196  0.00  0.00    +0.000 A 
ATOM      7  C   UNL     1       3.739   2.579  18.256  0.00  0.00    +0.000 A 
ATOM      8  C   UNL     1       2.567   1.866  18.394  0.00  0.00    +0.000 A 
ATOM      9  N   UNL     1       1.695   2.097  19.396  0.00  0.00    +0.000 NA
ATOM     10  N   UNL     1       1.957   3.077  20.308  0.00  0.00    +0.000 NA
ATOM     11  C   UNL     1       3.093   3.798  20.197  0.00  0.00    +0.000 A 
ENDBRANCH   3   6
ENDBRANCH   1   4
BRANCH   1  12
ATOM     12  C   UNL     1       7.258   5.725  16.803  0.00  0.00    +0.000 C 
BRANCH  12  13
ATOM     13  C   UNL     1       6.674   5.093  15.593  0.00  0.00    +0.000 A 
ATOM     14  N   UNL     1       5.388   4.730  15.514  0.00  0.00    +0.000 NA
ATOM     15  O   UNL     1       5.265   4.236  14.216  0.00  0.00    +0.000 OA
ATOM     16  C   UNL     1       6.495   4.355  13.630  0.00  0.00    +0.000 A 
ATOM     17  N   UNL     1       7.398   4.880  14.443  0.00  0.00    +0.000 NA
BRANCH  16  18
ATOM     18  C   UNL     1       6.591   3.888  12.222  0.00  0.00    +0.000 C 
ATOM     19  F   UNL     1       5.389   3.877  11.583  0.00  0.00    +0.000 F 
ATOM     20  F   UNL     1       7.412   4.675  11.473  0.00  0.00    +0.000 F 
ATOM     21  F   UNL     1       7.084   2.622  12.131  0.00  0.00    +0.000 F 
ENDBRANCH  16  18
ENDBRANCH  12  13
ENDBRANCH   1  12
TORSDOF 5
ENDMDL
MODEL 5
REMARK VINA RESULT:      -7.1      1.140      1.626
REMARK  Name = 
REMARK  5 active torsions:
REMARK  status: ('A' for Active; 'I' for Inactive)
REMARK    1  A    between atoms: C_2  and  C_15
REMARK    2  A    between atoms: N_3  and  C_4
REMARK    3  A    between atoms: C_4  and  C_5
REMARK    4  A    between atoms: C_5  and  C_6
REMARK    5  A    between atoms: C_9  and  C_10
REMARK                            x       y       z     vdW  Elec       q    Type
REMARK                         _______ _______ _______ _____ _____    ______ ____
ROOT
ATOM      1  C   UNL     1       7.252   5.494  19.186  0.00  0.00    +0.000 C 
ENDROOT
BRANCH   1   4
ATOM      2  O   UNL     1       4.533   5.955  19.626  0.00  0.00    +0.000 OA
ATOM      3  C   UNL     1       4.865   4.898  19.096  0.00  0.00    +0.000 C 
ATOM      4  N   UNL     1       6.179   4.563  18.842  0.00  0.00    +0.000 N 
ATOM      5  H   UNL     1       6.395   3.795  18.217  0.00  0.00    +0.000 HD
BRANCH   3   6
ATOM      6  C   UNL     1       3.817   3.950  18.678  0.00  0.00    +0.000 A 
ATOM      7  C   UNL     1       2.664   4.435  18.068  0.00  0.00    +0.000 A 
ATOM      8  C   UNL     1       1.680   3.529  17.736  0.00  0.00    +0.000 A 
ATOM      9  N   UNL     1       1.800   2.208  17.983  0.00  0.00    +0.000 NA
ATOM     10  N   UNL     1       2.923   1.735  18.597  0.00  0.00    +0.000 NA
ATOM     11  C   UNL     1       3.903   2.597  18.941  0.00  0.00    +0.000 A 
ENDBRANCH   3   6
ENDBRANCH   1   4
BRANCH   1  12
ATOM     12  C   UNL     1       7.603   6.446  18.041  0.00  0.00    +0.000 C 
BRANCH  12  13
ATOM     13  C   UNL     1       6.898   6.099  16.780  0.00  0.00    +0.000 A 
ATOM     14  N   UNL     1       5.923   6.856  16.264  0.00  0.00    +0.000 NA
ATOM     15  O   UNL     1       5.588   6.199  15.081  0.00  0.00    +0.000 OA
ATOM     16  C   UNL     1       6.403   5.104  14.994  0.00  0.00    +0.000 A 
ATOM     17  N   UNL     1       7.231   5.001  16.022  0.00  0.00    +0.000 NA
BRANCH  16  18
ATOM     18  C   UNL     1       6.219   4.252  13.790  0.00  0.00    +0.000 C 
ATOM     19  F   UNL     1       7.016   4.623  12.750  0.00  0.00    +0.000 F 
ATOM     20  F   UNL     1       6.501   2.943  14.036  0.00  0.00    +0.000 F 
ATOM     21  F   UNL     1       4.940   4.290  13.322  0.00  0.00    +0.000 F 
ENDBRANCH  16  18
ENDBRANCH  12  13
ENDBRANCH   1  12
TORSDOF 5
ENDMDL
MODEL 6
REMARK VINA RESULT:      -7.1      3.675      6.390
REMARK  Name = 
REMARK  5 active torsions:
REMARK  status: ('A' for Active; 'I' for Inactive)
REMARK    1  A    between atoms: C_2  and  C_15
REMARK    2  A    between atoms: N_3  and  C_4
REMARK    3  A    between atoms: C_4  and  C_5
REMARK    4  A    between atoms: C_5  and  C_6
REMARK    5  A    between atoms: C_9  and  C_10
REMARK                            x       y       z     vdW  Elec       q    Type
REMARK                         _______ _______ _______ _____ _____    ______ ____
ROOT
ATOM      1  C   UNL     1       6.885   4.679  18.352  0.00  0.00    +0.000 C 
ENDROOT
BRANCH   1   4
ATOM      2  O   UNL     1       7.459   6.334  16.177  0.00  0.00    +0.000 OA
ATOM      3  C   UNL     1       7.021   5.209  15.951  0.00  0.00    +0.000 C 
ATOM      4  N   UNL     1       6.694   4.314  16.950  0.00  0.00    +0.000 N 
ATOM      5  H   UNL     1       6.546   3.337  16.726  0.00  0.00    +0.000 HD
BRANCH   3   6
ATOM      6  C   UNL     1       6.864   4.772  14.553  0.00  0.00    +0.000 A 
ATOM      7  C   UNL     1       5.872   3.849  14.236  0.00  0.00    +0.000 A 
ATOM      8  C   UNL     1       5.784   3.419  12.928  0.00  0.00    +0.000 A 
ATOM      9  N   UNL     1       6.620   3.860  11.966  0.00  0.00    +0.000 NA
ATOM     10  N   UNL     1       7.603   4.752  12.281  0.00  0.00    +0.000 NA
ATOM     11  C   UNL     1       7.720   5.187  13.553  0.00  0.00    +0.000 A 
ENDBRANCH   3   6
ENDBRANCH   1   4
BRANCH   1  12
ATOM     12  C   UNL     1       5.659   5.362  18.961  0.00  0.00    +0.000 C 
BRANCH  12  13
ATOM     13  C   UNL     1       4.588   4.395  19.312  0.00  0.00    +0.000 A 
ATOM     14  N   UNL     1       4.832   3.101  19.553  0.00  0.00    +0.000 NA
ATOM     15  O   UNL     1       3.579   2.587  19.884  0.00  0.00    +0.000 OA
ATOM     16  C   UNL     1       2.695   3.628  19.816  0.00  0.00    +0.000 A 
ATOM     17  N   UNL     1       3.274   4.766  19.467  0.00  0.00    +0.000 NA
BRANCH  16  18
ATOM     18  C   UNL     1       1.282   3.302  20.142  0.00  0.00    +0.000 C 
ATOM     19  F   UNL     1       0.563   4.389  20.537  0.00  0.00    +0.000 F 
ATOM     20  F   UNL     1       0.616   2.772  19.079  0.00  0.00    +0.000 F 
ATOM     21  F   UNL     1       1.182   2.392  21.151  0.00  0.00    +0.000 F 
ENDBRANCH  16  18
ENDBRANCH  12  13
ENDBRANCH   1  12
TORSDOF 5
ENDMDL
MODEL 7
REMARK VINA RESULT:      -7.0      1.563      2.012
REMARK  Name = 
REMARK  5 active torsions:
REMARK  status: ('A' for Active; 'I' for Inactive)
REMARK    1  A    between atoms: C_2  and  C_15
REMARK    2  A    between atoms: N_3  and  C_4
REMARK    3  A    between atoms: C_4  and  C_5
REMARK    4  A    between atoms: C_5  and  C_6
REMARK    5  A    between atoms: C_9  and  C_10
REMARK                            x       y       z     vdW  Elec       q    Type
REMARK                         _______ _______ _______ _____ _____    ______ ____
ROOT
ATOM      1  C   UNL     1       5.850   6.665  17.220  0.00  0.00    +0.000 C 
ENDROOT
BRANCH   1   4
ATOM      2  O   UNL     1       5.108   5.433  19.615  0.00  0.00    +0.000 OA
ATOM      3  C   UNL     1       4.409   5.243  18.623  0.00  0.00    +0.000 C 
ATOM      4  N   UNL     1       4.689   5.793  17.388  0.00  0.00    +0.000 N 
ATOM      5  H   UNL     1       3.983   5.792  16.661  0.00  0.00    +0.000 HD
BRANCH   3   6
ATOM      6  C   UNL     1       3.196   4.418  18.752  0.00  0.00    +0.000 A 
ATOM      7  C   UNL     1       3.006   3.663  19.906  0.00  0.00    +0.000 A 
ATOM      8  C   UNL     1       1.886   2.861  19.975  0.00  0.00    +0.000 A 
ATOM      9  N   UNL     1       0.986   2.788  18.973  0.00  0.00    +0.000 NA
ATOM     10  N   UNL     1       1.181   3.516  17.835  0.00  0.00    +0.000 NA
ATOM     11  C   UNL     1       2.271   4.306  17.733  0.00  0.00    +0.000 A 
ENDBRANCH   3   6
ENDBRANCH   1   4
BRANCH   1  12
ATOM     12  C   UNL     1       7.089   5.916  16.726  0.00  0.00    +0.000 C 
BRANCH  12  13
ATOM     13  C   UNL     1       6.780   4.980  15.616  0.00  0.00    +0.000 A 
ATOM     14  N   UNL     1       6.120   3.830  15.801  0.00  0.00    +0.000 NA
ATOM     15  O   UNL     1       6.009   3.304  14.515  0.00  0.00    +0.000 OA
ATOM     16  C   UNL     1       6.612   4.196  13.671  0.00  0.00    +0.000 A 
ATOM     17  N   UNL     1       7.102   5.248  14.307  0.00  0.00    +0.000 NA
BRANCH  16  18
ATOM     18  C   UNL     1       6.602   3.833  12.229  0.00  0.00    +0.000 C 
ATOM     19  F   UNL     1       7.171   2.621  11.983  0.00  0.00    +0.000 F 
ATOM     20  F   UNL     1       5.340   3.771  11.721  0.00  0.00    +0.000 F 
ATOM     21  F   UNL     1       7.281   4.734  11.466  0.00  0.00    +0.000 F 
ENDBRANCH  16  18
ENDBRANCH  12  13
ENDBRANCH   1  12
TORSDOF 5
ENDMDL
MODEL 8
REMARK VINA RESULT:      -7.0      0.948      1.268
REMARK  Name = 
REMARK  5 active torsions:
REMARK  status: ('A' for Active; 'I' for Inactive)
REMARK    1  A    between atoms: C_2  and  C_15
REMARK    2  A    between atoms: N_3  and  C_4
REMARK    3  A    between atoms: C_4  and  C_5
REMARK    4  A    between atoms: C_5  and  C_6
REMARK    5  A    between atoms: C_9  and  C_10
REMARK                            x       y       z     vdW  Elec       q    Type
REMARK                         _______ _______ _______ _____ _____    ______ ____
ROOT
ATOM      1  C   UNL     1       7.250   4.889  18.697  0.00  0.00    +0.000 C 
ENDROOT
BRANCH   1   4
ATOM      2  O   UNL     1       4.788   5.588  19.813  0.00  0.00    +0.000 OA
ATOM      3  C   UNL     1       4.834   4.606  19.077  0.00  0.00    +0.000 C 
ATOM      4  N   UNL     1       5.998   4.165  18.482  0.00  0.00    +0.000 N 
ATOM      5  H   UNL     1       5.958   3.496  17.722  0.00  0.00    +0.000 HD
BRANCH   3   6
ATOM      6  C   UNL     1       3.589   3.876  18.782  0.00  0.00    +0.000 A 
ATOM      7  C   UNL     1       3.292   2.719  19.497  0.00  0.00    +0.000 A 
ATOM      8  C   UNL     1       2.146   2.030  19.163  0.00  0.00    +0.000 A 
ATOM      9  N   UNL     1       1.320   2.437  18.177  0.00  0.00    +0.000 NA
ATOM     10  N   UNL     1       1.620   3.561  17.465  0.00  0.00    +0.000 NA
ATOM     11  C   UNL     1       2.738   4.255  17.763  0.00  0.00    +0.000 A 
ENDBRANCH   3   6
ENDBRANCH   1   4
BRANCH   1  12
ATOM     12  C   UNL     1       7.508   5.959  17.635  0.00  0.00    +0.000 C 
BRANCH  12  13
ATOM     13  C   UNL     1       6.825   5.659  16.351  0.00  0.00    +0.000 A 
ATOM     14  N   UNL     1       5.736   6.318  15.938  0.00  0.00    +0.000 NA
ATOM     15  O   UNL     1       5.466   5.759  14.691  0.00  0.00    +0.000 OA
ATOM     16  C   UNL     1       6.427   4.812  14.466  0.00  0.00    +0.000 A 
ATOM     17  N   UNL     1       7.291   4.715  15.465  0.00  0.00    +0.000 NA
BRANCH  16  18
ATOM     18  C   UNL     1       6.333   4.086  13.172  0.00  0.00    +0.000 C 
ATOM     19  F   UNL     1       7.199   4.559  12.234  0.00  0.00    +0.000 F 
ATOM     20  F   UNL     1       6.605   2.758  13.306  0.00  0.00    +0.000 F 
ATOM     21  F   UNL     1       5.091   4.171  12.622  0.00  0.00    +0.000 F 
ENDBRANCH  16  18
ENDBRANCH  12  13
ENDBRANCH   1  12
TORSDOF 5
ENDMDL
MODEL 9
REMARK VINA RESULT:      -7.0      1.639      1.922
REMARK  Name = 
REMARK  5 active torsions:
REMARK  status: ('A' for Active; 'I' for Inactive)
REMARK    1  A    between atoms: C_2  and  C_15
REMARK    2  A    between atoms: N_3  and  C_4
REMARK    3  A    between atoms: C_4  and  C_5
REMARK    4  A    between atoms: C_5  and  C_6
REMARK    5  A    between atoms: C_9  and  C_10
REMARK                            x       y       z     vdW  Elec       q    Type
REMARK                         _______ _______ _______ _____ _____    ______ ____
ROOT
ATOM      1  C   UNL     1       6.579   5.402  18.392  0.00  0.00    +0.000 C 
ENDROOT
BRANCH   1   4
ATOM      2  O   UNL     1       3.921   6.038  17.814  0.00  0.00    +0.000 OA
ATOM      3  C   UNL     1       4.142   5.109  18.587  0.00  0.00    +0.000 C 
ATOM      4  N   UNL     1       5.414   4.718  18.950  0.00  0.00    +0.000 N 
ATOM      5  H   UNL     1       5.559   3.826  19.409  0.00  0.00    +0.000 HD
BRANCH   3   6
ATOM      6  C   UNL     1       3.004   4.350  19.133  0.00  0.00    +0.000 A 
ATOM      7  C   UNL     1       2.834   3.019  18.765  0.00  0.00    +0.000 A 
ATOM      8  C   UNL     1       1.730   2.350  19.251  0.00  0.00    +0.000 A 
ATOM      9  N   UNL     1       0.825   2.941  20.058  0.00  0.00    +0.000 NA
ATOM     10  N   UNL     1       0.983   4.251  20.405  0.00  0.00    +0.000 NA
ATOM     11  C   UNL     1       2.049   4.936  19.941  0.00  0.00    +0.000 A 
ENDBRANCH   3   6
ENDBRANCH   1   4
BRANCH   1  12
ATOM     12  C   UNL     1       7.452   4.486  17.533  0.00  0.00    +0.000 C 
BRANCH  12  13
ATOM     13  C   UNL     1       7.174   4.636  16.082  0.00  0.00    +0.000 A 
ATOM     14  N   UNL     1       7.593   5.689  15.369  0.00  0.00    +0.000 NA
ATOM     15  O   UNL     1       7.164   5.401  14.075  0.00  0.00    +0.000 OA
ATOM     16  C   UNL     1       6.528   4.191  14.130  0.00  0.00    +0.000 A 
ATOM     17  N   UNL     1       6.510   3.680  15.350  0.00  0.00    +0.000 NA
BRANCH  16  18
ATOM     18  C   UNL     1       5.989   3.682  12.841  0.00  0.00    +0.000 C 
ATOM     19  F   UNL     1       6.643   4.184  11.757  0.00  0.00    +0.000 F 
ATOM     20  F   UNL     1       6.079   2.327  12.744  0.00  0.00    +0.000 F 
ATOM     21  F   UNL     1       4.675   3.994  12.672  0.00  0.00    +0.000 F 
ENDBRANCH  16  18
ENDBRANCH  12  13
ENDBRANCH   1  12
TORSDOF 5
ENDMDL
