MODEL 1
REMARK VINA RESULT:      -7.5      0.000      0.000
REMARK  Name = 
REMARK  9 active torsions:
REMARK  status: ('A' for Active; 'I' for Inactive)
REMARK    1  A    between atoms: C_1  and  C_2
REMARK    2  A    between atoms: C_5  and  C_6
REMARK    3  A    between atoms: C_7  and  C_8
REMARK    4  A    between atoms: C_8  and  S_9
REMARK    5  A    between atoms: S_9  and  C_10
REMARK    6  A    between atoms: C_10  and  C_11
REMARK    7  A    between atoms: C_15  and  C_16
REMARK    8  A    between atoms: N_17  and  C_18
REMARK    9  A    between atoms: C_24  and  C_25
REMARK                            x       y       z     vdW  Elec       q    Type
REMARK                         _______ _______ _______ _____ _____    ______ ____
ROOT
ATOM      1  C   UNL     1       2.088   8.210  18.516  0.00  0.00    +0.000 C 
ATOM      2  O   UNL     1       2.218   8.484  17.317  0.00  0.00    +0.000 OA
ATOM      3  N   UNL     1       1.390   9.062  19.351  0.00  0.00    +0.000 N 
ATOM      4  C   UNL     1       0.827  10.306  18.792  0.00  0.00    +0.000 C 
ATOM      5  C   UNL     1      -0.588  10.598  19.346  0.00  0.00    +0.000 C 
ATOM      6  C   UNL     1      -1.199  11.784  18.600  0.00  0.00    +0.000 C 
ATOM      7  N   UNL     1      -0.561  10.619  20.855  0.00  0.00    +0.000 N 
ATOM      8  C   UNL     1      -0.054   9.310  21.413  0.00  0.00    +0.000 C 
ATOM      9  C   UNL     1       0.066   9.157  22.930  0.00  0.00    +0.000 C 
ATOM     10  C   UNL     1       1.362   9.015  20.818  0.00  0.00    +0.000 C 
ENDROOT
BRANCH   7  11
ATOM     11  C   UNL     1      -0.886  11.725  21.614  0.00  0.00    +0.000 A 
ATOM     12  C   UNL     1      -2.113  11.854  22.282  0.00  0.00    +0.000 A 
ATOM     13  C   UNL     1      -2.445  12.978  23.058  0.00  0.00    +0.000 A 
ATOM     14  C   UNL     1      -1.584  14.064  23.109  0.00  0.00    +0.000 A 
ATOM     15  C   UNL     1      -0.375  13.993  22.436  0.00  0.00    +0.000 A 
ATOM     16  C   UNL     1      -0.019  12.818  21.753  0.00  0.00    +0.000 A 
ENDBRANCH   7  11
BRANCH   1  17
ATOM     17  C   UNL     1       2.644   6.922  19.117  0.00  0.00    +0.000 C 
BRANCH  17  18
ATOM     18  S   UNL     1       3.438   5.811  17.891  0.00  0.00    +0.000 S 
BRANCH  18  19
ATOM     19  C   UNL     1       4.978   6.732  17.543  0.00  0.00    +0.000 C 
BRANCH  19  26
ATOM     20  C   UNL     1       5.642   5.113  14.771  0.00  0.00    +0.000 C 
ATOM     21  C   UNL     1       6.391   5.102  16.050  0.00  0.00    +0.000 A 
ATOM     22  N   UNL     1       7.507   4.371  16.153  0.00  0.00    +0.000 NA
ATOM     23  O   UNL     1       7.969   4.567  17.435  0.00  0.00    +0.000 OA
ATOM     24  C   UNL     1       7.140   5.417  18.096  0.00  0.00    +0.000 A 
ATOM     25  C   UNL     1       7.524   5.728  19.485  0.00  0.00    +0.000 C 
ATOM     26  C   UNL     1       6.104   5.796  17.264  0.00  0.00    +0.000 A 
ENDBRANCH  19  26
ENDBRANCH  18  19
ENDBRANCH  17  18
ENDBRANCH   1  17
TORSDOF 5
ENDMDL
MODEL 2
REMARK VINA RESULT:      -7.4      2.139      2.673
REMARK  Name = 
REMARK  9 active torsions:
REMARK  status: ('A' for Active; 'I' for Inactive)
REMARK    1  A    between atoms: C_1  and  C_2
REMARK    2  A    between atoms: C_5  and  C_6
REMARK    3  A    between atoms: C_7  and  C_8
REMARK    4  A    between atoms: C_8  and  S_9
REMARK    5  A    between atoms: S_9  and  C_10
REMARK    6  A    between atoms: C_10  and  C_11
REMARK    7  A    between atoms: C_15  and  C_16
REMARK    8  A    between atoms: N_17  and  C_18
REMARK    9  A    between atoms: C_24  and  C_25
REMARK                            x       y       z     vdW  Elec       q    Type
REMARK                         _______ _______ _______ _____ _____    ______ ____
ROOT
ATOM      1  C   UNL     1       1.667   8.911  18.680  0.00  0.00    +0.000 C 
ATOM      2  O   UNL     1       1.721   9.250  17.491  0.00  0.00    +0.000 OA
ATOM      3  N   UNL     1       0.974   9.686  19.591  0.00  0.00    +0.000 N 
ATOM      4  C   UNL     1       0.325  10.926  19.125  0.00  0.00    +0.000 C 
ATOM      5  C   UNL     1      -1.072  11.122  19.763  0.00  0.00    +0.000 C 
ATOM      6  C   UNL     1      -1.775  12.311  19.109  0.00  0.00    +0.000 C 
ATOM      7  N   UNL     1      -0.967  11.070  21.267  0.00  0.00    +0.000 N 
ATOM      8  C   UNL     1      -0.371   9.763  21.732  0.00  0.00    +0.000 C 
ATOM      9  C   UNL     1      -0.166   9.541  23.232  0.00  0.00    +0.000 C 
ATOM     10  C   UNL     1       1.024   9.566  21.053  0.00  0.00    +0.000 C 
ENDROOT
BRANCH   7  11
ATOM     11  C   UNL     1      -1.303  12.121  22.097  0.00  0.00    +0.000 A 
ATOM     12  C   UNL     1      -2.535  12.197  22.765  0.00  0.00    +0.000 A 
ATOM     13  C   UNL     1      -2.878  13.264  23.613  0.00  0.00    +0.000 A 
ATOM     14  C   UNL     1      -2.025  14.350  23.742  0.00  0.00    +0.000 A 
ATOM     15  C   UNL     1      -0.810  14.331  23.074  0.00  0.00    +0.000 A 
ATOM     16  C   UNL     1      -0.444  13.207  22.315  0.00  0.00    +0.000 A 
ENDBRANCH   7  11
BRANCH   1  17
ATOM     17  C   UNL     1       2.312   7.624  19.186  0.00  0.00    +0.000 C 
BRANCH  17  18
ATOM     18  S   UNL     1       3.361   6.778  17.940  0.00  0.00    +0.000 S 
BRANCH  18  19
ATOM     19  C   UNL     1       2.579   5.127  17.900  0.00  0.00    +0.000 C 
BRANCH  19  26
ATOM     20  C   UNL     1       1.340   3.249  20.284  0.00  0.00    +0.000 C 
ATOM     21  C   UNL     1       2.747   3.357  19.830  0.00  0.00    +0.000 A 
ATOM     22  N   UNL     1       3.687   2.603  20.411  0.00  0.00    +0.000 NA
ATOM     23  O   UNL     1       4.868   2.920  19.780  0.00  0.00    +0.000 OA
ATOM     24  C   UNL     1       4.638   3.852  18.818  0.00  0.00    +0.000 A 
ATOM     25  C   UNL     1       5.822   4.276  18.048  0.00  0.00    +0.000 C 
ATOM     26  C   UNL     1       3.296   4.179  18.799  0.00  0.00    +0.000 A 
ENDBRANCH  19  26
ENDBRANCH  18  19
ENDBRANCH  17  18
ENDBRANCH   1  17
TORSDOF 5
ENDMDL
MODEL 3
REMARK VINA RESULT:      -7.4      0.401      1.595
REMARK  Name = 
REMARK  9 active torsions:
REMARK  status: ('A' for Active; 'I' for Inactive)
REMARK    1  A    between atoms: C_1  and  C_2
REMARK    2  A    between atoms: C_5  and  C_6
REMARK    3  A    between atoms: C_7  and  C_8
REMARK    4  A    between atoms: C_8  and  S_9
REMARK    5  A    between atoms: S_9  and  C_10
REMARK    6  A    between atoms: C_10  and  C_11
REMARK    7  A    between atoms: C_15  and  C_16
REMARK    8  A    between atoms: N_17  and  C_18
REMARK    9  A    between atoms: C_24  and  C_25
REMARK                            x       y       z     vdW  Elec       q    Type
REMARK                         _______ _______ _______ _____ _____    ______ ____
ROOT
ATOM      1  C   UNL     1       2.150   8.152  18.464  0.00  0.00    +0.000 C 
ATOM      2  O   UNL     1       2.258   8.396  17.256  0.00  0.00    +0.000 OA
ATOM      3  N   UNL     1       1.450   9.015  19.287  0.00  0.00    +0.000 N 
ATOM      4  C   UNL     1       0.859  10.234  18.704  0.00  0.00    +0.000 C 
ATOM      5  C   UNL     1      -0.553  10.519  19.271  0.00  0.00    +0.000 C 
ATOM      6  C   UNL     1      -1.193  11.674  18.503  0.00  0.00    +0.000 C 
ATOM      7  N   UNL     1      -0.503  10.581  20.778  0.00  0.00    +0.000 N 
ATOM      8  C   UNL     1       0.033   9.295  21.363  0.00  0.00    +0.000 C 
ATOM      9  C   UNL     1       0.177   9.184  22.882  0.00  0.00    +0.000 C 
ATOM     10  C   UNL     1       1.444   9.007  20.755  0.00  0.00    +0.000 C 
ENDROOT
BRANCH   7  11
ATOM     11  C   UNL     1      -0.835  11.701  21.513  0.00  0.00    +0.000 A 
ATOM     12  C   UNL     1      -2.076  11.851  22.151  0.00  0.00    +0.000 A 
ATOM     13  C   UNL     1      -2.414  12.990  22.902  0.00  0.00    +0.000 A 
ATOM     14  C   UNL     1      -1.545  14.069  22.956  0.00  0.00    +0.000 A 
ATOM     15  C   UNL     1      -0.321  13.977  22.312  0.00  0.00    +0.000 A 
ATOM     16  C   UNL     1       0.039  12.788  21.655  0.00  0.00    +0.000 A 
ENDBRANCH   7  11
BRANCH   1  17
ATOM     17  C   UNL     1       2.735   6.890  19.090  0.00  0.00    +0.000 C 
BRANCH  17  18
ATOM     18  S   UNL     1       3.525   5.757  17.882  0.00  0.00    +0.000 S 
BRANCH  18  19
ATOM     19  C   UNL     1       5.053   6.681  17.496  0.00  0.00    +0.000 C 
BRANCH  19  26
ATOM     20  C   UNL     1       7.555   5.727  19.388  0.00  0.00    +0.000 C 
ATOM     21  C   UNL     1       7.247   5.331  17.993  0.00  0.00    +0.000 A 
ATOM     22  N   UNL     1       8.043   4.456  17.367  0.00  0.00    +0.000 NA
ATOM     23  O   UNL     1       7.503   4.288  16.112  0.00  0.00    +0.000 OA
ATOM     24  C   UNL     1       6.386   5.050  15.987  0.00  0.00    +0.000 A 
ATOM     25  C   UNL     1       5.694   4.957  14.688  0.00  0.00    +0.000 C 
ATOM     26  C   UNL     1       6.167   5.748  17.159  0.00  0.00    +0.000 A 
ENDBRANCH  19  26
ENDBRANCH  18  19
ENDBRANCH  17  18
ENDBRANCH   1  17
TORSDOF 5
ENDMDL
MODEL 4
REMARK VINA RESULT:      -7.4      2.038      3.174
REMARK  Name = 
REMARK  9 active torsions:
REMARK  status: ('A' for Active; 'I' for Inactive)
REMARK    1  A    between atoms: C_1  and  C_2
REMARK    2  A    between atoms: C_5  and  C_6
REMARK    3  A    between atoms: C_7  and  C_8
REMARK    4  A    between atoms: C_8  and  S_9
REMARK    5  A    between atoms: S_9  and  C_10
REMARK    6  A    between atoms: C_10  and  C_11
REMARK    7  A    between atoms: C_15  and  C_16
REMARK    8  A    between atoms: N_17  and  C_18
REMARK    9  A    between atoms: C_24  and  C_25
REMARK                            x       y       z     vdW  Elec       q    Type
REMARK                         _______ _______ _______ _____ _____    ______ ____
ROOT
ATOM      1  C   UNL     1       2.848   5.682  20.031  0.00  0.00    +0.000 C 
ATOM      2  O   UNL     1       2.550   4.885  20.930  0.00  0.00    +0.000 OA
ATOM      3  N   UNL     1       2.099   6.828  19.844  0.00  0.00    +0.000 N 
ATOM      4  C   UNL     1       0.933   7.070  20.714  0.00  0.00    +0.000 C 
ATOM      5  C   UNL     1       0.829   8.554  21.141  0.00  0.00    +0.000 C 
ATOM      6  C   UNL     1      -0.274   8.714  22.186  0.00  0.00    +0.000 C 
ATOM      7  N   UNL     1       0.817   9.444  19.922  0.00  0.00    +0.000 N 
ATOM      8  C   UNL     1       2.054   9.240  19.080  0.00  0.00    +0.000 C 
ATOM      9  C   UNL     1       2.203  10.043  17.787  0.00  0.00    +0.000 C 
ATOM     10  C   UNL     1       2.161   7.730  18.687  0.00  0.00    +0.000 C 
ENDROOT
BRANCH   7  11
ATOM     11  C   UNL     1      -0.233  10.277  19.589  0.00  0.00    +0.000 A 
ATOM     12  C   UNL     1      -1.197   9.937  18.629  0.00  0.00    +0.000 A 
ATOM     13  C   UNL     1      -2.268  10.782  18.291  0.00  0.00    +0.000 A 
ATOM     14  C   UNL     1      -2.350  12.052  18.843  0.00  0.00    +0.000 A 
ATOM     15  C   UNL     1      -1.398  12.442  19.772  0.00  0.00    +0.000 A 
ATOM     16  C   UNL     1      -0.397  11.541  20.172  0.00  0.00    +0.000 A 
ENDBRANCH   7  11
BRANCH   1  17
ATOM     17  C   UNL     1       4.059   5.466  19.128  0.00  0.00    +0.000 C 
BRANCH  17  18
ATOM     18  S   UNL     1       3.662   4.651  17.533  0.00  0.00    +0.000 S 
BRANCH  18  19
ATOM     19  C   UNL     1       5.217   3.746  17.216  0.00  0.00    +0.000 C 
BRANCH  19  26
ATOM     20  C   UNL     1       5.694   3.862  13.975  0.00  0.00    +0.000 C 
ATOM     21  C   UNL     1       6.372   4.642  15.037  0.00  0.00    +0.000 A 
ATOM     22  N   UNL     1       7.299   5.546  14.700  0.00  0.00    +0.000 NA
ATOM     23  O   UNL     1       7.733   6.099  15.884  0.00  0.00    +0.000 OA
ATOM     24  C   UNL     1       7.065   5.537  16.925  0.00  0.00    +0.000 A 
ATOM     25  C   UNL     1       7.424   6.049  18.260  0.00  0.00    +0.000 C 
ATOM     26  C   UNL     1       6.177   4.591  16.451  0.00  0.00    +0.000 A 
ENDBRANCH  19  26
ENDBRANCH  18  19
ENDBRANCH  17  18
ENDBRANCH   1  17
TORSDOF 5
ENDMDL
MODEL 5
REMARK VINA RESULT:      -7.4      2.135      2.657
REMARK  Name = 
REMARK  9 active torsions:
REMARK  status: ('A' for Active; 'I' for Inactive)
REMARK    1  A    between atoms: C_1  and  C_2
REMARK    2  A    between atoms: C_5  and  C_6
REMARK    3  A    between atoms: C_7  and  C_8
REMARK    4  A    between atoms: C_8  and  S_9
REMARK    5  A    between atoms: S_9  and  C_10
REMARK    6  A    between atoms: C_10  and  C_11
REMARK    7  A    between atoms: C_15  and  C_16
REMARK    8  A    between atoms: N_17  and  C_18
REMARK    9  A    between atoms: C_24  and  C_25
REMARK                            x       y       z     vdW  Elec       q    Type
REMARK                         _______ _______ _______ _____ _____    ______ ____
ROOT
ATOM      1  C   UNL     1       1.634   8.967  18.714  0.00  0.00    +0.000 C 
ATOM      2  O   UNL     1       1.690   9.314  17.528  0.00  0.00    +0.000 OA
ATOM      3  N   UNL     1       0.938   9.734  19.629  0.00  0.00    +0.000 N 
ATOM      4  C   UNL     1       0.289  10.977  19.172  0.00  0.00    +0.000 C 
ATOM      5  C   UNL     1      -1.109  11.166  19.808  0.00  0.00    +0.000 C 
ATOM      6  C   UNL     1      -1.813  12.359  19.162  0.00  0.00    +0.000 C 
ATOM      7  N   UNL     1      -1.007  11.104  21.313  0.00  0.00    +0.000 N 
ATOM      8  C   UNL     1      -0.410   9.793  21.769  0.00  0.00    +0.000 C 
ATOM      9  C   UNL     1      -0.207   9.561  23.267  0.00  0.00    +0.000 C 
ATOM     10  C   UNL     1       0.986   9.604  21.091  0.00  0.00    +0.000 C 
ENDROOT
BRANCH   7  11
ATOM     11  C   UNL     1      -1.346  12.148  22.150  0.00  0.00    +0.000 A 
ATOM     12  C   UNL     1      -2.580  12.218  22.815  0.00  0.00    +0.000 A 
ATOM     13  C   UNL     1      -2.926  13.278  23.670  0.00  0.00    +0.000 A 
ATOM     14  C   UNL     1      -2.074  14.363  23.810  0.00  0.00    +0.000 A 
ATOM     15  C   UNL     1      -0.858  14.351  23.143  0.00  0.00    +0.000 A 
ATOM     16  C   UNL     1      -0.488  13.233  22.377  0.00  0.00    +0.000 A 
ENDBRANCH   7  11
BRANCH   1  17
ATOM     17  C   UNL     1       2.280   7.677  19.211  0.00  0.00    +0.000 C 
BRANCH  17  18
ATOM     18  S   UNL     1       3.316   6.832  17.955  0.00  0.00    +0.000 S 
BRANCH  18  19
ATOM     19  C   UNL     1       2.488   5.205  17.869  0.00  0.00    +0.000 C 
BRANCH  19  26
ATOM     20  C   UNL     1       5.565   4.080  17.762  0.00  0.00    +0.000 C 
ATOM     21  C   UNL     1       4.492   3.747  18.729  0.00  0.00    +0.000 A 
ATOM     22  N   UNL     1       4.749   2.896  19.729  0.00  0.00    +0.000 NA
ATOM     23  O   UNL     1       3.578   2.795  20.446  0.00  0.00    +0.000 OA
ATOM     24  C   UNL     1       2.627   3.587  19.886  0.00  0.00    +0.000 A 
ATOM     25  C   UNL     1       1.318   3.585  20.565  0.00  0.00    +0.000 C 
ATOM     26  C   UNL     1       3.148   4.225  18.777  0.00  0.00    +0.000 A 
ENDBRANCH  19  26
ENDBRANCH  18  19
ENDBRANCH  17  18
ENDBRANCH   1  17
TORSDOF 5
ENDMDL
MODEL 6
REMARK VINA RESULT:      -7.4      2.314      2.968
REMARK  Name = 
REMARK  9 active torsions:
REMARK  status: ('A' for Active; 'I' for Inactive)
REMARK    1  A    between atoms: C_1  and  C_2
REMARK    2  A    between atoms: C_5  and  C_6
REMARK    3  A    between atoms: C_7  and  C_8
REMARK    4  A    between atoms: C_8  and  S_9
REMARK    5  A    between atoms: S_9  and  C_10
REMARK    6  A    between atoms: C_10  and  C_11
REMARK    7  A    between atoms: C_15  and  C_16
REMARK    8  A    between atoms: N_17  and  C_18
REMARK    9  A    between atoms: C_24  and  C_25
REMARK                            x       y       z     vdW  Elec       q    Type
REMARK                         _______ _______ _______ _____ _____    ______ ____
ROOT
ATOM      1  C   UNL     1       1.634   8.982  18.726  0.00  0.00    +0.000 C 
ATOM      2  O   UNL     1       1.713   9.329  17.540  0.00  0.00    +0.000 OA
ATOM      3  N   UNL     1       0.940   9.762  19.631  0.00  0.00    +0.000 N 
ATOM      4  C   UNL     1       0.319  11.017  19.165  0.00  0.00    +0.000 C 
ATOM      5  C   UNL     1      -1.084  11.231  19.781  0.00  0.00    +0.000 C 
ATOM      6  C   UNL     1      -1.756  12.437  19.126  0.00  0.00    +0.000 C 
ATOM      7  N   UNL     1      -1.004  11.167  21.287  0.00  0.00    +0.000 N 
ATOM      8  C   UNL     1      -0.438   9.846  21.751  0.00  0.00    +0.000 C 
ATOM      9  C   UNL     1      -0.260   9.609  23.252  0.00  0.00    +0.000 C 
ATOM     10  C   UNL     1       0.964   9.631  21.093  0.00  0.00    +0.000 C 
ENDROOT
BRANCH   7  11
ATOM     11  C   UNL     1      -1.336  12.217  22.120  0.00  0.00    +0.000 A 
ATOM     12  C   UNL     1      -2.575  12.306  22.771  0.00  0.00    +0.000 A 
ATOM     13  C   UNL     1      -2.914  13.372  23.622  0.00  0.00    +0.000 A 
ATOM     14  C   UNL     1      -2.047  14.444  23.771  0.00  0.00    +0.000 A 
ATOM     15  C   UNL     1      -0.824  14.413  23.118  0.00  0.00    +0.000 A 
ATOM     16  C   UNL     1      -0.464  13.288  22.356  0.00  0.00    +0.000 A 
ENDBRANCH   7  11
BRANCH   1  17
ATOM     17  C   UNL     1       2.250   7.682  19.231  0.00  0.00    +0.000 C 
BRANCH  17  18
ATOM     18  S   UNL     1       3.582   7.021  18.156  0.00  0.00    +0.000 S 
BRANCH  18  19
ATOM     19  C   UNL     1       3.952   5.444  19.001  0.00  0.00    +0.000 C 
BRANCH  19  26
ATOM     20  C   UNL     1       1.174   4.093  20.097  0.00  0.00    +0.000 C 
ATOM     21  C   UNL     1       1.952   3.750  18.883  0.00  0.00    +0.000 A 
ATOM     22  N   UNL     1       1.510   2.783  18.070  0.00  0.00    +0.000 NA
ATOM     23  O   UNL     1       2.429   2.703  17.048  0.00  0.00    +0.000 OA
ATOM     24  C   UNL     1       3.411   3.622  17.240  0.00  0.00    +0.000 A 
ATOM     25  C   UNL     1       4.461   3.656  16.206  0.00  0.00    +0.000 C 
ATOM     26  C   UNL     1       3.167   4.326  18.403  0.00  0.00    +0.000 A 
ENDBRANCH  19  26
ENDBRANCH  18  19
ENDBRANCH  17  18
ENDBRANCH   1  17
TORSDOF 5
ENDMDL
MODEL 7
REMARK VINA RESULT:      -7.4      1.001      1.415
REMARK  Name = 
REMARK  9 active torsions:
REMARK  status: ('A' for Active; 'I' for Inactive)
REMARK    1  A    between atoms: C_1  and  C_2
REMARK    2  A    between atoms: C_5  and  C_6
REMARK    3  A    between atoms: C_7  and  C_8
REMARK    4  A    between atoms: C_8  and  S_9
REMARK    5  A    between atoms: S_9  and  C_10
REMARK    6  A    between atoms: C_10  and  C_11
REMARK    7  A    between atoms: C_15  and  C_16
REMARK    8  A    between atoms: N_17  and  C_18
REMARK    9  A    between atoms: C_24  and  C_25
REMARK                            x       y       z     vdW  Elec       q    Type
REMARK                         _______ _______ _______ _____ _____    ______ ____
ROOT
ATOM      1  C   UNL     1       1.809   8.794  18.604  0.00  0.00    +0.000 C 
ATOM      2  O   UNL     1       1.858   9.108  17.408  0.00  0.00    +0.000 OA
ATOM      3  N   UNL     1       1.095   9.573  19.496  0.00  0.00    +0.000 N 
ATOM      4  C   UNL     1       0.418  10.787  19.001  0.00  0.00    +0.000 C 
ATOM      5  C   UNL     1      -0.984  10.963  19.631  0.00  0.00    +0.000 C 
ATOM      6  C   UNL     1      -1.714  12.120  18.950  0.00  0.00    +0.000 C 
ATOM      7  N   UNL     1      -0.882  10.948  21.137  0.00  0.00    +0.000 N 
ATOM      8  C   UNL     1      -0.257   9.665  21.632  0.00  0.00    +0.000 C 
ATOM      9  C   UNL     1      -0.050   9.482  23.137  0.00  0.00    +0.000 C 
ATOM     10  C   UNL     1       1.144   9.487  20.961  0.00  0.00    +0.000 C 
ENDROOT
BRANCH   7  11
ATOM     11  C   UNL     1      -1.246  12.008  21.943  0.00  0.00    +0.000 A 
ATOM     12  C   UNL     1      -0.414  13.117  22.159  0.00  0.00    +0.000 A 
ATOM     13  C   UNL     1      -0.784  14.199  22.976  0.00  0.00    +0.000 A 
ATOM     14  C   UNL     1      -1.974  14.157  23.688  0.00  0.00    +0.000 A 
ATOM     15  C   UNL     1      -2.811  13.063  23.529  0.00  0.00    +0.000 A 
ATOM     16  C   UNL     1      -2.469  12.043  22.626  0.00  0.00    +0.000 A 
ENDBRANCH   7  11
BRANCH   1  17
ATOM     17  C   UNL     1       2.484   7.535  19.140  0.00  0.00    +0.000 C 
BRANCH  17  18
ATOM     18  S   UNL     1       3.193   6.458  17.835  0.00  0.00    +0.000 S 
BRANCH  18  19
ATOM     19  C   UNL     1       4.823   6.069  18.562  0.00  0.00    +0.000 C 
BRANCH  19  26
ATOM     20  C   UNL     1       4.942   3.594  16.417  0.00  0.00    +0.000 C 
ATOM     21  C   UNL     1       5.872   4.739  16.558  0.00  0.00    +0.000 A 
ATOM     22  N   UNL     1       6.909   4.852  15.721  0.00  0.00    +0.000 NA
ATOM     23  O   UNL     1       7.572   5.999  16.095  0.00  0.00    +0.000 OA
ATOM     24  C   UNL     1       6.933   6.576  17.146  0.00  0.00    +0.000 A 
ATOM     25  C   UNL     1       7.531   7.828  17.645  0.00  0.00    +0.000 C 
ATOM     26  C   UNL     1       5.833   5.816  17.495  0.00  0.00    +0.000 A 
ENDBRANCH  19  26
ENDBRANCH  18  19
ENDBRANCH  17  18
ENDBRANCH   1  17
TORSDOF 5
ENDMDL
MODEL 8
REMARK VINA RESULT:      -7.3      2.225      2.681
REMARK  Name = 
REMARK  9 active torsions:
REMARK  status: ('A' for Active; 'I' for Inactive)
REMARK    1  A    between atoms: C_1  and  C_2
REMARK    2  A    between atoms: C_5  and  C_6
REMARK    3  A    between atoms: C_7  and  C_8
REMARK    4  A    between atoms: C_8  and  S_9
REMARK    5  A    between atoms: S_9  and  C_10
REMARK    6  A    between atoms: C_10  and  C_11
REMARK    7  A    between atoms: C_15  and  C_16
REMARK    8  A    between atoms: N_17  and  C_18
REMARK    9  A    between atoms: C_24  and  C_25
REMARK                            x       y       z     vdW  Elec       q    Type
REMARK                         _______ _______ _______ _____ _____    ______ ____
ROOT
ATOM      1  C   UNL     1       1.683   8.864  18.684  0.00  0.00    +0.000 C 
ATOM      2  O   UNL     1       1.757   9.187  17.492  0.00  0.00    +0.000 OA
ATOM      3  N   UNL     1       0.984   9.656  19.575  0.00  0.00    +0.000 N 
ATOM      4  C   UNL     1       0.352  10.896  19.085  0.00  0.00    +0.000 C 
ATOM      5  C   UNL     1      -1.051  11.111  19.700  0.00  0.00    +0.000 C 
ATOM      6  C   UNL     1      -1.735  12.298  19.021  0.00  0.00    +0.000 C 
ATOM      7  N   UNL     1      -0.968  11.078  21.206  0.00  0.00    +0.000 N 
ATOM      8  C   UNL     1      -0.390   9.772  21.696  0.00  0.00    +0.000 C 
ATOM      9  C   UNL     1      -0.208   9.568  23.201  0.00  0.00    +0.000 C 
ATOM     10  C   UNL     1       1.012   9.555  21.040  0.00  0.00    +0.000 C 
ENDROOT
BRANCH   7  11
ATOM     11  C   UNL     1      -1.307  12.142  22.018  0.00  0.00    +0.000 A 
ATOM     12  C   UNL     1      -0.437  13.214  22.268  0.00  0.00    +0.000 A 
ATOM     13  C   UNL     1      -0.782  14.300  23.091  0.00  0.00    +0.000 A 
ATOM     14  C   UNL     1      -1.988  14.296  23.776  0.00  0.00    +0.000 A 
ATOM     15  C   UNL     1      -2.864  13.239  23.585  0.00  0.00    +0.000 A 
ATOM     16  C   UNL     1      -2.543  12.216  22.676  0.00  0.00    +0.000 A 
ENDBRANCH   7  11
BRANCH   1  17
ATOM     17  C   UNL     1       2.310   7.579  19.215  0.00  0.00    +0.000 C 
BRANCH  17  18
ATOM     18  S   UNL     1       3.462   6.771  18.037  0.00  0.00    +0.000 S 
BRANCH  18  19
ATOM     19  C   UNL     1       4.271   5.552  19.132  0.00  0.00    +0.000 C 
BRANCH  19  26
ATOM     20  C   UNL     1       4.782   3.588  16.558  0.00  0.00    +0.000 C 
ATOM     21  C   UNL     1       3.969   3.330  17.770  0.00  0.00    +0.000 A 
ATOM     22  N   UNL     1       3.347   2.153  17.908  0.00  0.00    +0.000 NA
ATOM     23  O   UNL     1       2.689   2.214  19.115  0.00  0.00    +0.000 OA
ATOM     24  C   UNL     1       2.920   3.416  19.703  0.00  0.00    +0.000 A 
ATOM     25  C   UNL     1       2.282   3.614  21.018  0.00  0.00    +0.000 C 
ATOM     26  C   UNL     1       3.733   4.182  18.890  0.00  0.00    +0.000 A 
ENDBRANCH  19  26
ENDBRANCH  18  19
ENDBRANCH  17  18
ENDBRANCH   1  17
TORSDOF 5
ENDMDL
MODEL 9
REMARK VINA RESULT:      -7.3      1.247      2.630
REMARK  Name = 
REMARK  9 active torsions:
REMARK  status: ('A' for Active; 'I' for Inactive)
REMARK    1  A    between atoms: C_1  and  C_2
REMARK    2  A    between atoms: C_5  and  C_6
REMARK    3  A    between atoms: C_7  and  C_8
REMARK    4  A    between atoms: C_8  and  S_9
REMARK    5  A    between atoms: S_9  and  C_10
REMARK    6  A    between atoms: C_10  and  C_11
REMARK    7  A    between atoms: C_15  and  C_16
REMARK    8  A    between atoms: N_17  and  C_18
REMARK    9  A    between atoms: C_24  and  C_25
REMARK                            x       y       z     vdW  Elec       q    Type
REMARK                         _______ _______ _______ _____ _____    ______ ____
ROOT
ATOM      1  C   UNL     1       2.028   7.467  19.523  0.00  0.00    +0.000 C 
ATOM      2  O   UNL     1       1.932   6.438  20.204  0.00  0.00    +0.000 OA
ATOM      3  N   UNL     1       1.353   8.613  19.900  0.00  0.00    +0.000 N 
ATOM      4  C   UNL     1       0.506   8.579  21.107  0.00  0.00    +0.000 C 
ATOM      5  C   UNL     1       0.649   9.869  21.950  0.00  0.00    +0.000 C 
ATOM      6  C   UNL     1      -0.097   9.704  23.274  0.00  0.00    +0.000 C 
ATOM      7  N   UNL     1       0.365  11.080  21.096  0.00  0.00    +0.000 N 
ATOM      8  C   UNL     1       1.292  11.142  19.905  0.00  0.00    +0.000 C 
ATOM      9  C   UNL     1       1.135  12.294  18.912  0.00  0.00    +0.000 C 
ATOM     10  C   UNL     1       1.159   9.818  19.084  0.00  0.00    +0.000 C 
ENDROOT
BRANCH   7  11
ATOM     11  C   UNL     1      -0.664  11.968  21.340  0.00  0.00    +0.000 A 
ATOM     12  C   UNL     1      -1.904  11.891  20.689  0.00  0.00    +0.000 A 
ATOM     13  C   UNL     1      -2.953  12.792  20.938  0.00  0.00    +0.000 A 
ATOM     14  C   UNL     1      -2.755  13.871  21.786  0.00  0.00    +0.000 A 
ATOM     15  C   UNL     1      -1.532  14.005  22.426  0.00  0.00    +0.000 A 
ATOM     16  C   UNL     1      -0.533  13.033  22.242  0.00  0.00    +0.000 A 
ENDBRANCH   7  11
BRANCH   1  17
ATOM     17  C   UNL     1       2.911   7.537  18.281  0.00  0.00    +0.000 C 
BRANCH  17  18
ATOM     18  S   UNL     1       3.908   6.024  17.991  0.00  0.00    +0.000 S 
BRANCH  18  19
ATOM     19  C   UNL     1       5.453   6.752  17.342  0.00  0.00    +0.000 C 
BRANCH  19  26
ATOM     20  C   UNL     1       7.619   5.675  19.554  0.00  0.00    +0.000 C 
ATOM     21  C   UNL     1       7.437   5.238  18.149  0.00  0.00    +0.000 A 
ATOM     22  N   UNL     1       8.213   4.264  17.657  0.00  0.00    +0.000 NA
ATOM     23  O   UNL     1       7.807   4.083  16.354  0.00  0.00    +0.000 OA
ATOM     24  C   UNL     1       6.789   4.935  16.068  0.00  0.00    +0.000 A 
ATOM     25  C   UNL     1       6.245   4.839  14.701  0.00  0.00    +0.000 C 
ATOM     26  C   UNL     1       6.504   5.707  17.177  0.00  0.00    +0.000 A 
ENDBRANCH  19  26
ENDBRANCH  18  19
ENDBRANCH  17  18
ENDBRANCH   1  17
TORSDOF 5
ENDMDL
