MODEL 1
REMARK VINA RESULT:      -8.4      0.000      0.000
REMARK  Name = 
REMARK  4 active torsions:
REMARK  status: ('A' for Active; 'I' for Inactive)
REMARK    1  A    between atoms: C_1  and  O_2
REMARK    2  A    between atoms: O_2  and  C_3
REMARK    3  A    between atoms: C_6  and  O_7
REMARK    4  A    between atoms: O_7  and  C_8
REMARK                            x       y       z     vdW  Elec       q    Type
REMARK                         _______ _______ _______ _____ _____    ______ ____
ROOT
ATOM      1  C   UNL     1       2.677   7.062  18.760  0.00  0.00    +0.000 A 
ATOM      2  C   UNL     1       2.308   7.877  17.690  0.00  0.00    +0.000 A 
ATOM      3  C   UNL     1       1.377   9.292  17.944  0.00  0.00    +0.000 A 
ATOM      4  C   UNL     1       0.756  10.103  19.030  0.00  0.00    +0.000 A 
ATOM      5  C   UNL     1       1.343   8.947  19.625  0.00  0.00    +0.000 A 
ATOM      6  C   UNL     1       2.127   7.631  19.812  0.00  0.00    +0.000 A 
ATOM      7  C   UNL     1       0.816   8.772  20.882  0.00  0.00    +0.000 C 
ATOM      8  C   UNL     1       0.962   9.040  22.251  0.00  0.00    +0.000 C 
ATOM      9  C   UNL     1       0.226  10.257  21.998  0.00  0.00    +0.000 A 
ATOM     10  N   UNL     1      -0.267  10.497  23.166  0.00  0.00    +0.000 NA
ATOM     11  N   UNL     1      -0.924  11.682  23.324  0.00  0.00    +0.000 NA
ATOM     12  C   UNL     1      -1.099  12.390  22.248  0.00  0.00    +0.000 A 
ATOM     13  C   UNL     1      -0.666  12.071  20.778  0.00  0.00    +0.000 A 
ATOM     14  O   UNL     1      -1.018  12.891  19.945  0.00  0.00    +0.000 OA
ATOM     15  N   UNL     1       0.130  10.889  20.582  0.00  0.00    +0.000 N 
ENDROOT
BRANCH   1  16
ATOM     16  O   UNL     1       3.262   5.886  19.123  0.00  0.00    +0.000 OA
BRANCH  16  20
ATOM     17  C   UNL     1       6.321   4.691  16.638  0.00  0.00    +0.000 A 
ATOM     18  C   UNL     1       6.614   5.269  17.874  0.00  0.00    +0.000 A 
ATOM     19  C   UNL     1       5.611   5.495  18.805  0.00  0.00    +0.000 A 
ATOM     20  C   UNL     1       4.295   5.318  18.428  0.00  0.00    +0.000 A 
ATOM     21  C   UNL     1       3.988   4.625  17.246  0.00  0.00    +0.000 A 
ATOM     22  C   UNL     1       5.007   4.335  16.334  0.00  0.00    +0.000 A 
BRANCH  17  24
ATOM     23  C   UNL     1       7.121   4.810  14.436  0.00  0.00    +0.000 C 
ATOM     24  O   UNL     1       7.391   4.525  15.803  0.00  0.00    +0.000 OA
ENDBRANCH  17  24
ENDBRANCH  16  20
ENDBRANCH   1  16
TORSDOF 3
ENDMDL
MODEL 2
REMARK VINA RESULT:      -8.0      5.759      6.898
REMARK  Name = 
REMARK  4 active torsions:
REMARK  status: ('A' for Active; 'I' for Inactive)
REMARK    1  A    between atoms: C_1  and  O_2
REMARK    2  A    between atoms: O_2  and  C_3
REMARK    3  A    between atoms: C_6  and  O_7
REMARK    4  A    between atoms: O_7  and  C_8
REMARK                            x       y       z     vdW  Elec       q    Type
REMARK                         _______ _______ _______ _____ _____    ______ ____
ROOT
ATOM      1  C   UNL     1       7.059   5.481  16.627  0.00  0.00    +0.000 A 
ATOM      2  C   UNL     1       7.417   5.668  17.962  0.00  0.00    +0.000 A 
ATOM      3  C   UNL     1       6.349   5.231  19.228  0.00  0.00    +0.000 A 
ATOM      4  C   UNL     1       5.013   4.614  19.470  0.00  0.00    +0.000 A 
ATOM      5  C   UNL     1       5.200   4.721  18.059  0.00  0.00    +0.000 A 
ATOM      6  C   UNL     1       5.838   4.990  16.680  0.00  0.00    +0.000 A 
ATOM      7  C   UNL     1       3.982   4.600  17.434  0.00  0.00    +0.000 C 
ATOM      8  C   UNL     1       3.068   3.724  16.828  0.00  0.00    +0.000 C 
ATOM      9  C   UNL     1       2.528   3.519  18.152  0.00  0.00    +0.000 A 
ATOM     10  N   UNL     1       1.322   3.150  17.874  0.00  0.00    +0.000 NA
ATOM     11  N   UNL     1       0.552   2.732  18.918  0.00  0.00    +0.000 NA
ATOM     12  C   UNL     1       1.066   2.870  20.103  0.00  0.00    +0.000 A 
ATOM     13  C   UNL     1       2.457   3.461  20.511  0.00  0.00    +0.000 A 
ATOM     14  O   UNL     1       2.658   3.528  21.713  0.00  0.00    +0.000 OA
ATOM     15  N   UNL     1       3.349   3.808  19.438  0.00  0.00    +0.000 N 
ENDROOT
BRANCH   1  16
ATOM     16  O   UNL     1       7.411   5.705  15.330  0.00  0.00    +0.000 OA
BRANCH  16  20
ATOM     17  C   UNL     1       6.016   3.250  12.332  0.00  0.00    +0.000 A 
ATOM     18  C   UNL     1       5.228   3.489  13.459  0.00  0.00    +0.000 A 
ATOM     19  C   UNL     1       5.589   4.461  14.381  0.00  0.00    +0.000 A 
ATOM     20  C   UNL     1       6.828   5.059  14.274  0.00  0.00    +0.000 A 
ATOM     21  C   UNL     1       7.574   4.927  13.092  0.00  0.00    +0.000 A 
ATOM     22  C   UNL     1       7.178   3.995  12.129  0.00  0.00    +0.000 A 
BRANCH  17  24
ATOM     23  C   UNL     1       6.552   1.319  11.112  0.00  0.00    +0.000 C 
ATOM     24  O   UNL     1       5.562   2.263  11.501  0.00  0.00    +0.000 OA
ENDBRANCH  17  24
ENDBRANCH  16  20
ENDBRANCH   1  16
TORSDOF 3
ENDMDL
MODEL 3
REMARK VINA RESULT:      -8.0      2.187      3.649
REMARK  Name = 
REMARK  4 active torsions:
REMARK  status: ('A' for Active; 'I' for Inactive)
REMARK    1  A    between atoms: C_1  and  O_2
REMARK    2  A    between atoms: O_2  and  C_3
REMARK    3  A    between atoms: C_6  and  O_7
REMARK    4  A    between atoms: O_7  and  C_8
REMARK                            x       y       z     vdW  Elec       q    Type
REMARK                         _______ _______ _______ _____ _____    ______ ____
ROOT
ATOM      1  C   UNL     1       3.521   3.831  18.506  0.00  0.00    +0.000 A 
ATOM      2  C   UNL     1       3.093   3.600  19.814  0.00  0.00    +0.000 A 
ATOM      3  C   UNL     1       2.334   4.838  20.721  0.00  0.00    +0.000 A 
ATOM      4  C   UNL     1       1.869   6.251  20.612  0.00  0.00    +0.000 A 
ATOM      5  C   UNL     1       2.515   5.903  19.387  0.00  0.00    +0.000 A 
ATOM      6  C   UNL     1       3.230   5.096  18.284  0.00  0.00    +0.000 A 
ATOM      7  C   UNL     1       2.835   7.053  18.706  0.00  0.00    +0.000 C 
ATOM      8  C   UNL     1       2.423   7.985  17.742  0.00  0.00    +0.000 C 
ATOM      9  C   UNL     1       1.774   8.684  18.827  0.00  0.00    +0.000 A 
ATOM     10  N   UNL     1       1.727   9.885  18.357  0.00  0.00    +0.000 NA
ATOM     11  N   UNL     1       1.033  10.803  19.088  0.00  0.00    +0.000 NA
ATOM     12  C   UNL     1       0.600  10.407  20.247  0.00  0.00    +0.000 A 
ATOM     13  C   UNL     1       0.768   9.012  20.937  0.00  0.00    +0.000 A 
ATOM     14  O   UNL     1       0.309   8.935  22.066  0.00  0.00    +0.000 OA
ATOM     15  N   UNL     1       1.392   7.978  20.157  0.00  0.00    +0.000 N 
ENDROOT
BRANCH   1  16
ATOM     16  O   UNL     1       4.202   3.319  17.443  0.00  0.00    +0.000 OA
BRANCH  16  20
ATOM     17  C   UNL     1       7.144   4.997  15.099  0.00  0.00    +0.000 A 
ATOM     18  C   UNL     1       5.913   4.656  14.534  0.00  0.00    +0.000 A 
ATOM     19  C   UNL     1       4.848   4.277  15.337  0.00  0.00    +0.000 A 
ATOM     20  C   UNL     1       5.066   4.059  16.682  0.00  0.00    +0.000 A 
ATOM     21  C   UNL     1       6.250   4.512  17.285  0.00  0.00    +0.000 A 
ATOM     22  C   UNL     1       7.304   4.957  16.484  0.00  0.00    +0.000 A 
BRANCH  17  24
ATOM     23  C   UNL     1       7.750   5.194  12.840  0.00  0.00    +0.000 C 
ATOM     24  O   UNL     1       8.119   5.345  14.205  0.00  0.00    +0.000 OA
ENDBRANCH  17  24
ENDBRANCH  16  20
ENDBRANCH   1  16
TORSDOF 3
ENDMDL
MODEL 4
REMARK VINA RESULT:      -7.9      2.052      3.335
REMARK  Name = 
REMARK  4 active torsions:
REMARK  status: ('A' for Active; 'I' for Inactive)
REMARK    1  A    between atoms: C_1  and  O_2
REMARK    2  A    between atoms: O_2  and  C_3
REMARK    3  A    between atoms: C_6  and  O_7
REMARK    4  A    between atoms: O_7  and  C_8
REMARK                            x       y       z     vdW  Elec       q    Type
REMARK                         _______ _______ _______ _____ _____    ______ ____
ROOT
ATOM      1  C   UNL     1       3.165   4.034  18.878  0.00  0.00    +0.000 A 
ATOM      2  C   UNL     1       2.569   3.717  20.098  0.00  0.00    +0.000 A 
ATOM      3  C   UNL     1       1.707   4.900  20.988  0.00  0.00    +0.000 A 
ATOM      4  C   UNL     1       1.271   6.325  20.923  0.00  0.00    +0.000 A 
ATOM      5  C   UNL     1       2.069   6.054  19.770  0.00  0.00    +0.000 A 
ATOM      6  C   UNL     1       2.915   5.316  18.713  0.00  0.00    +0.000 A 
ATOM      7  C   UNL     1       2.483   7.244  19.222  0.00  0.00    +0.000 C 
ATOM      8  C   UNL     1       2.207   8.250  18.283  0.00  0.00    +0.000 C 
ATOM      9  C   UNL     1       1.427   8.880  19.323  0.00  0.00    +0.000 A 
ATOM     10  N   UNL     1       1.451  10.112  18.940  0.00  0.00    +0.000 NA
ATOM     11  N   UNL     1       0.674  10.988  19.640  0.00  0.00    +0.000 NA
ATOM     12  C   UNL     1       0.091  10.518  20.701  0.00  0.00    +0.000 A 
ATOM     13  C   UNL     1       0.158   9.074  21.304  0.00  0.00    +0.000 A 
ATOM     14  O   UNL     1      -0.445   8.924  22.355  0.00  0.00    +0.000 OA
ATOM     15  N   UNL     1       0.870   8.088  20.538  0.00  0.00    +0.000 N 
ENDROOT
BRANCH   1  16
ATOM     16  O   UNL     1       3.976   3.588  17.877  0.00  0.00    +0.000 OA
BRANCH  16  20
ATOM     17  C   UNL     1       6.969   6.186  16.757  0.00  0.00    +0.000 A 
ATOM     18  C   UNL     1       7.075   5.476  17.953  0.00  0.00    +0.000 A 
ATOM     19  C   UNL     1       6.184   4.456  18.252  0.00  0.00    +0.000 A 
ATOM     20  C   UNL     1       5.078   4.274  17.446  0.00  0.00    +0.000 A 
ATOM     21  C   UNL     1       5.020   4.886  16.184  0.00  0.00    +0.000 A 
ATOM     22  C   UNL     1       5.957   5.868  15.851  0.00  0.00    +0.000 A 
BRANCH  17  24
ATOM     23  C   UNL     1       7.856   8.207  17.552  0.00  0.00    +0.000 C 
ATOM     24  O   UNL     1       7.900   7.172  16.578  0.00  0.00    +0.000 OA
ENDBRANCH  17  24
ENDBRANCH  16  20
ENDBRANCH   1  16
TORSDOF 3
ENDMDL
MODEL 5
REMARK VINA RESULT:      -7.9      1.074      1.271
REMARK  Name = 
REMARK  4 active torsions:
REMARK  status: ('A' for Active; 'I' for Inactive)
REMARK    1  A    between atoms: C_1  and  O_2
REMARK    2  A    between atoms: O_2  and  C_3
REMARK    3  A    between atoms: C_6  and  O_7
REMARK    4  A    between atoms: O_7  and  C_8
REMARK                            x       y       z     vdW  Elec       q    Type
REMARK                         _______ _______ _______ _____ _____    ______ ____
ROOT
ATOM      1  C   UNL     1       2.377   7.855  18.565  0.00  0.00    +0.000 A 
ATOM      2  C   UNL     1       1.890   8.721  17.586  0.00  0.00    +0.000 A 
ATOM      3  C   UNL     1       0.818   9.994  17.993  0.00  0.00    +0.000 A 
ATOM      4  C   UNL     1       0.144  10.625  19.163  0.00  0.00    +0.000 A 
ATOM      5  C   UNL     1       0.871   9.490  19.633  0.00  0.00    +0.000 A 
ATOM      6  C   UNL     1       1.798   8.258  19.677  0.00  0.00    +0.000 A 
ATOM      7  C   UNL     1       0.402   9.140  20.876  0.00  0.00    +0.000 C 
ATOM      8  C   UNL     1       0.558   9.293  22.262  0.00  0.00    +0.000 C 
ATOM      9  C   UNL     1      -0.314  10.439  22.141  0.00  0.00    +0.000 A 
ATOM     10  N   UNL     1      -0.796  10.512  23.336  0.00  0.00    +0.000 NA
ATOM     11  N   UNL     1      -1.573  11.596  23.620  0.00  0.00    +0.000 NA
ATOM     12  C   UNL     1      -1.855  12.378  22.621  0.00  0.00    +0.000 A 
ATOM     13  C   UNL     1      -1.432  12.249  21.119  0.00  0.00    +0.000 A 
ATOM     14  O   UNL     1      -1.896  13.100  20.376  0.00  0.00    +0.000 OA
ATOM     15  N   UNL     1      -0.519  11.186  20.795  0.00  0.00    +0.000 N 
ENDROOT
BRANCH   1  16
ATOM     16  O   UNL     1       3.097   6.722  18.802  0.00  0.00    +0.000 OA
BRANCH  16  20
ATOM     17  C   UNL     1       5.201   4.359  16.166  0.00  0.00    +0.000 A 
ATOM     18  C   UNL     1       4.233   3.788  16.994  0.00  0.00    +0.000 A 
ATOM     19  C   UNL     1       3.380   4.586  17.740  0.00  0.00    +0.000 A 
ATOM     20  C   UNL     1       3.618   5.945  17.805  0.00  0.00    +0.000 A 
ATOM     21  C   UNL     1       4.498   6.549  16.892  0.00  0.00    +0.000 A 
ATOM     22  C   UNL     1       5.313   5.747  16.089  0.00  0.00    +0.000 A 
BRANCH  17  24
ATOM     23  C   UNL     1       6.455   3.939  14.228  0.00  0.00    +0.000 C 
ATOM     24  O   UNL     1       5.986   3.470  15.486  0.00  0.00    +0.000 OA
ENDBRANCH  17  24
ENDBRANCH  16  20
ENDBRANCH   1  16
TORSDOF 3
ENDMDL
MODEL 6
REMARK VINA RESULT:      -7.8      5.611      6.769
REMARK  Name = 
REMARK  4 active torsions:
REMARK  status: ('A' for Active; 'I' for Inactive)
REMARK    1  A    between atoms: C_1  and  O_2
REMARK    2  A    between atoms: O_2  and  C_3
REMARK    3  A    between atoms: C_6  and  O_7
REMARK    4  A    between atoms: O_7  and  C_8
REMARK                            x       y       z     vdW  Elec       q    Type
REMARK                         _______ _______ _______ _____ _____    ______ ____
ROOT
ATOM      1  C   UNL     1       7.048   5.639  16.742  0.00  0.00    +0.000 A 
ATOM      2  C   UNL     1       7.347   5.923  18.074  0.00  0.00    +0.000 A 
ATOM      3  C   UNL     1       6.249   5.521  19.326  0.00  0.00    +0.000 A 
ATOM      4  C   UNL     1       4.930   4.865  19.559  0.00  0.00    +0.000 A 
ATOM      5  C   UNL     1       5.167   4.892  18.152  0.00  0.00    +0.000 A 
ATOM      6  C   UNL     1       5.846   5.101  16.782  0.00  0.00    +0.000 A 
ATOM      7  C   UNL     1       3.980   4.683  17.493  0.00  0.00    +0.000 C 
ATOM      8  C   UNL     1       3.125   3.734  16.911  0.00  0.00    +0.000 C 
ATOM      9  C   UNL     1       2.542   3.588  18.225  0.00  0.00    +0.000 A 
ATOM     10  N   UNL     1       1.364   3.154  17.928  0.00  0.00    +0.000 NA
ATOM     11  N   UNL     1       0.570   2.769  18.968  0.00  0.00    +0.000 NA
ATOM     12  C   UNL     1       1.033   3.002  20.160  0.00  0.00    +0.000 A 
ATOM     13  C   UNL     1       2.384   3.674  20.579  0.00  0.00    +0.000 A 
ATOM     14  O   UNL     1       2.536   3.824  21.781  0.00  0.00    +0.000 OA
ATOM     15  N   UNL     1       3.302   3.991  19.519  0.00  0.00    +0.000 N 
ENDROOT
BRANCH   1  16
ATOM     16  O   UNL     1       7.441   5.797  15.447  0.00  0.00    +0.000 OA
BRANCH  16  20
ATOM     17  C   UNL     1       5.993   3.472  12.371  0.00  0.00    +0.000 A 
ATOM     18  C   UNL     1       7.044   4.360  12.137  0.00  0.00    +0.000 A 
ATOM     19  C   UNL     1       7.674   5.003  13.192  0.00  0.00    +0.000 A 
ATOM     20  C   UNL     1       7.134   4.902  14.458  0.00  0.00    +0.000 A 
ATOM     21  C   UNL     1       6.164   3.925  14.733  0.00  0.00    +0.000 A 
ATOM     22  C   UNL     1       5.572   3.227  13.678  0.00  0.00    +0.000 A 
BRANCH  17  24
ATOM     23  C   UNL     1       4.038   3.073  11.136  0.00  0.00    +0.000 C 
ATOM     24  O   UNL     1       5.446   2.907  11.252  0.00  0.00    +0.000 OA
ENDBRANCH  17  24
ENDBRANCH  16  20
ENDBRANCH   1  16
TORSDOF 3
ENDMDL
MODEL 7
REMARK VINA RESULT:      -7.8      3.733      8.316
REMARK  Name = 
REMARK  4 active torsions:
REMARK  status: ('A' for Active; 'I' for Inactive)
REMARK    1  A    between atoms: C_1  and  O_2
REMARK    2  A    between atoms: O_2  and  C_3
REMARK    3  A    between atoms: C_6  and  O_7
REMARK    4  A    between atoms: O_7  and  C_8
REMARK                            x       y       z     vdW  Elec       q    Type
REMARK                         _______ _______ _______ _____ _____    ______ ____
ROOT
ATOM      1  C   UNL     1       1.266   9.509  18.694  0.00  0.00    +0.000 A 
ATOM      2  C   UNL     1       2.269   9.391  17.732  0.00  0.00    +0.000 A 
ATOM      3  C   UNL     1       3.216   7.968  17.621  0.00  0.00    +0.000 A 
ATOM      4  C   UNL     1       3.370   6.616  18.229  0.00  0.00    +0.000 A 
ATOM      5  C   UNL     1       2.347   7.307  18.945  0.00  0.00    +0.000 A 
ATOM      6  C   UNL     1       1.327   8.382  19.373  0.00  0.00    +0.000 A 
ATOM      7  C   UNL     1       2.139   6.678  20.149  0.00  0.00    +0.000 C 
ATOM      8  C   UNL     1       1.394   5.712  20.842  0.00  0.00    +0.000 C 
ATOM      9  C   UNL     1       2.387   4.761  20.398  0.00  0.00    +0.000 A 
ATOM     10  N   UNL     1       2.276   3.846  21.302  0.00  0.00    +0.000 NA
ATOM     11  N   UNL     1       2.993   2.702  21.109  0.00  0.00    +0.000 NA
ATOM     12  C   UNL     1       3.813   2.701  20.101  0.00  0.00    +0.000 A 
ATOM     13  C   UNL     1       4.107   3.841  19.069  0.00  0.00    +0.000 A 
ATOM     14  O   UNL     1       4.981   3.589  18.254  0.00  0.00    +0.000 OA
ATOM     15  N   UNL     1       3.293   5.023  19.164  0.00  0.00    +0.000 N 
ENDROOT
BRANCH   1  16
ATOM     16  O   UNL     1       0.355  10.345  19.267  0.00  0.00    +0.000 OA
BRANCH  16  20
ATOM     17  C   UNL     1      -3.250  11.370  17.560  0.00  0.00    +0.000 A 
ATOM     18  C   UNL     1      -2.459  10.381  16.975  0.00  0.00    +0.000 A 
ATOM     19  C   UNL     1      -1.346   9.883  17.635  0.00  0.00    +0.000 A 
ATOM     20  C   UNL     1      -0.918  10.505  18.790  0.00  0.00    +0.000 A 
ATOM     21  C   UNL     1      -1.760  11.410  19.456  0.00  0.00    +0.000 A 
ATOM     22  C   UNL     1      -2.919  11.864  18.822  0.00  0.00    +0.000 A 
BRANCH  17  24
ATOM     23  C   UNL     1      -5.528  11.936  17.539  0.00  0.00    +0.000 C 
ATOM     24  O   UNL     1      -4.316  11.786  16.810  0.00  0.00    +0.000 OA
ENDBRANCH  17  24
ENDBRANCH  16  20
ENDBRANCH   1  16
TORSDOF 3
ENDMDL
MODEL 8
REMARK VINA RESULT:      -7.8      2.017      3.201
REMARK  Name = 
REMARK  4 active torsions:
REMARK  status: ('A' for Active; 'I' for Inactive)
REMARK    1  A    between atoms: C_1  and  O_2
REMARK    2  A    between atoms: O_2  and  C_3
REMARK    3  A    between atoms: C_6  and  O_7
REMARK    4  A    between atoms: O_7  and  C_8
REMARK                            x       y       z     vdW  Elec       q    Type
REMARK                         _______ _______ _______ _____ _____    ______ ____
ROOT
ATOM      1  C   UNL     1       3.020   4.437  18.165  0.00  0.00    +0.000 A 
ATOM      2  C   UNL     1       2.910   4.186  19.533  0.00  0.00    +0.000 A 
ATOM      3  C   UNL     1       2.406   5.415  20.614  0.00  0.00    +0.000 A 
ATOM      4  C   UNL     1       1.951   6.835  20.640  0.00  0.00    +0.000 A 
ATOM      5  C   UNL     1       2.283   6.503  19.292  0.00  0.00    +0.000 A 
ATOM      6  C   UNL     1       2.704   5.710  18.038  0.00  0.00    +0.000 A 
ATOM      7  C   UNL     1       2.450   7.662  18.573  0.00  0.00    +0.000 C 
ATOM      8  C   UNL     1       1.837   8.617  17.749  0.00  0.00    +0.000 C 
ATOM      9  C   UNL     1       1.474   9.302  18.968  0.00  0.00    +0.000 A 
ATOM     10  N   UNL     1       1.335  10.513  18.541  0.00  0.00    +0.000 NA
ATOM     11  N   UNL     1       0.848  11.425  19.431  0.00  0.00    +0.000 NA
ATOM     12  C   UNL     1       0.696  11.012  20.653  0.00  0.00    +0.000 A 
ATOM     13  C   UNL     1       1.001   9.602  21.261  0.00  0.00    +0.000 A 
ATOM     14  O   UNL     1       0.821   9.509  22.465  0.00  0.00    +0.000 OA
ATOM     15  N   UNL     1       1.407   8.576  20.339  0.00  0.00    +0.000 N 
ENDROOT
BRANCH   1  16
ATOM     16  O   UNL     1       3.422   3.938  16.962  0.00  0.00    +0.000 OA
BRANCH  16  20
ATOM     17  C   UNL     1       6.908   5.036  15.063  0.00  0.00    +0.000 A 
ATOM     18  C   UNL     1       6.674   5.442  16.378  0.00  0.00    +0.000 A 
ATOM     19  C   UNL     1       5.609   4.924  17.099  0.00  0.00    +0.000 A 
ATOM     20  C   UNL     1       4.673   4.146  16.447  0.00  0.00    +0.000 A 
ATOM     21  C   UNL     1       4.953   3.629  15.172  0.00  0.00    +0.000 A 
ATOM     22  C   UNL     1       6.063   4.100  14.467  0.00  0.00    +0.000 A 
BRANCH  17  24
ATOM     23  C   UNL     1       8.075   5.376  13.056  0.00  0.00    +0.000 C 
ATOM     24  O   UNL     1       7.982   5.623  14.454  0.00  0.00    +0.000 OA
ENDBRANCH  17  24
ENDBRANCH  16  20
ENDBRANCH   1  16
TORSDOF 3
ENDMDL
MODEL 9
REMARK VINA RESULT:      -7.8      3.729      8.405
REMARK  Name = 
REMARK  4 active torsions:
REMARK  status: ('A' for Active; 'I' for Inactive)
REMARK    1  A    between atoms: C_1  and  O_2
REMARK    2  A    between atoms: O_2  and  C_3
REMARK    3  A    between atoms: C_6  and  O_7
REMARK    4  A    between atoms: O_7  and  C_8
REMARK                            x       y       z     vdW  Elec       q    Type
REMARK                         _______ _______ _______ _____ _____    ______ ____
ROOT
ATOM      1  C   UNL     1       1.228   9.379  18.814  0.00  0.00    +0.000 A 
ATOM      2  C   UNL     1       2.194   9.367  17.808  0.00  0.00    +0.000 A 
ATOM      3  C   UNL     1       3.200   8.001  17.573  0.00  0.00    +0.000 A 
ATOM      4  C   UNL     1       3.441   6.624  18.090  0.00  0.00    +0.000 A 
ATOM      5  C   UNL     1       2.418   7.221  18.887  0.00  0.00    +0.000 A 
ATOM      6  C   UNL     1       1.370   8.218  19.420  0.00  0.00    +0.000 A 
ATOM      7  C   UNL     1       2.290   6.513  20.057  0.00  0.00    +0.000 C 
ATOM      8  C   UNL     1       1.621   5.472  20.719  0.00  0.00    +0.000 C 
ATOM      9  C   UNL     1       2.636   4.598  20.179  0.00  0.00    +0.000 A 
ATOM     10  N   UNL     1       2.606   3.627  21.029  0.00  0.00    +0.000 NA
ATOM     11  N   UNL     1       3.366   2.532  20.737  0.00  0.00    +0.000 NA
ATOM     12  C   UNL     1       4.142   2.631  19.700  0.00  0.00    +0.000 A 
ATOM     13  C   UNL     1       4.339   3.843  18.729  0.00  0.00    +0.000 A 
ATOM     14  O   UNL     1       5.188   3.682  17.866  0.00  0.00    +0.000 OA
ATOM     15  N   UNL     1       3.476   4.976  18.928  0.00  0.00    +0.000 N 
ENDROOT
BRANCH   1  16
ATOM     16  O   UNL     1       0.304  10.135  19.473  0.00  0.00    +0.000 OA
BRANCH  16  20
ATOM     17  C   UNL     1      -3.369  11.188  17.938  0.00  0.00    +0.000 A 
ATOM     18  C   UNL     1      -2.842  11.888  19.024  0.00  0.00    +0.000 A 
ATOM     19  C   UNL     1      -1.531  11.683  19.428  0.00  0.00    +0.000 A 
ATOM     20  C   UNL     1      -0.811  10.648  18.869  0.00  0.00    +0.000 A 
ATOM     21  C   UNL     1      -1.273  10.020  17.701  0.00  0.00    +0.000 A 
ATOM     22  C   UNL     1      -2.572  10.273  17.251  0.00  0.00    +0.000 A 
BRANCH  17  24
ATOM     23  C   UNL     1      -5.436  11.961  18.736  0.00  0.00    +0.000 C 
ATOM     24  O   UNL     1      -4.674  11.469  17.640  0.00  0.00    +0.000 OA
ENDBRANCH  17  24
ENDBRANCH  16  20
ENDBRANCH   1  16
TORSDOF 3
ENDMDL
