MODEL 1
REMARK VINA RESULT:      -7.8      0.000      0.000
REMARK  Name = 
REMARK  6 active torsions:
REMARK  status: ('A' for Active; 'I' for Inactive)
REMARK    1  A    between atoms: C_1  and  C_2
REMARK    2  A    between atoms: C_2  and  O_3
REMARK    3  A    between atoms: O_3  and  C_4
REMARK    4  A    between atoms: C_4  and  C_6
REMARK    5  A    between atoms: C_9  and  C_10
REMARK    6  A    between atoms: C_17  and  C_18
REMARK                            x       y       z     vdW  Elec       q    Type
REMARK                         _______ _______ _______ _____ _____    ______ ____
ROOT
ATOM      1  C   UNL     1       3.438   4.203  19.691  0.00  0.00    +0.000 A 
ATOM      2  C   UNL     1       2.463   4.681  20.542  0.00  0.00    +0.000 A 
ATOM      3  N   UNL     1       1.967   5.930  20.490  0.00  0.00    +0.000 NA
ATOM      4  C   UNL     1       2.481   6.741  19.548  0.00  0.00    +0.000 A 
ATOM      5  N   UNL     1       3.435   6.366  18.670  0.00  0.00    +0.000 NA
ATOM      6  C   UNL     1       3.916   5.090  18.736  0.00  0.00    +0.000 A 
ENDROOT
BRANCH   4   7
ATOM      7  C   UNL     1       1.916   8.102  19.441  0.00  0.00    +0.000 A 
ATOM      8  C   UNL     1       1.209   8.684  20.514  0.00  0.00    +0.000 A 
ATOM      9  C   UNL     1       0.608   9.941  20.403  0.00  0.00    +0.000 A 
ATOM     10  C   UNL     1       0.709  10.654  19.213  0.00  0.00    +0.000 A 
ATOM     11  C   UNL     1       1.426  10.119  18.146  0.00  0.00    +0.000 A 
ATOM     12  C   UNL     1       2.025   8.860  18.261  0.00  0.00    +0.000 A 
ENDBRANCH   4   7
BRANCH   6  13
ATOM     13  C   UNL     1       4.954   4.784  17.715  0.00  0.00    +0.000 A 
ATOM     14  C   UNL     1       4.588   4.288  16.448  0.00  0.00    +0.000 A 
ATOM     15  C   UNL     1       5.538   4.066  15.442  0.00  0.00    +0.000 A 
ATOM     16  C   UNL     1       6.881   4.338  15.679  0.00  0.00    +0.000 A 
ATOM     17  C   UNL     1       7.280   4.782  16.933  0.00  0.00    +0.000 A 
ATOM     18  C   UNL     1       6.332   4.971  17.945  0.00  0.00    +0.000 A 
ENDBRANCH   6  13
BRANCH   1  19
ATOM     19  C   UNL     1       3.954   2.845  19.907  0.00  0.00    +0.000 C 
ATOM     20  O   UNL     1       5.118   2.580  20.137  0.00  0.00    +0.000 OA
BRANCH  19  21
ATOM     21  O   UNL     1       2.941   1.956  19.762  0.00  0.00    +0.000 OA
BRANCH  21  23
ATOM     22  C   UNL     1       0.798   2.202  18.601  0.00  0.00    +0.000 C 
ATOM     23  C   UNL     1       2.293   1.967  18.478  0.00  0.00    +0.000 C 
ENDBRANCH  21  23
ENDBRANCH  19  21
ENDBRANCH   1  19
TORSDOF 5
ENDMDL
MODEL 2
REMARK VINA RESULT:      -7.8      0.418      1.051
REMARK  Name = 
REMARK  6 active torsions:
REMARK  status: ('A' for Active; 'I' for Inactive)
REMARK    1  A    between atoms: C_1  and  C_2
REMARK    2  A    between atoms: C_2  and  O_3
REMARK    3  A    between atoms: O_3  and  C_4
REMARK    4  A    between atoms: C_4  and  C_6
REMARK    5  A    between atoms: C_9  and  C_10
REMARK    6  A    between atoms: C_17  and  C_18
REMARK                            x       y       z     vdW  Elec       q    Type
REMARK                         _______ _______ _______ _____ _____    ______ ____
ROOT
ATOM      1  C   UNL     1       3.396   4.456  19.657  0.00  0.00    +0.000 A 
ATOM      2  C   UNL     1       2.435   4.850  20.564  0.00  0.00    +0.000 A 
ATOM      3  N   UNL     1       1.879   6.074  20.587  0.00  0.00    +0.000 NA
ATOM      4  C   UNL     1       2.315   6.948  19.662  0.00  0.00    +0.000 A 
ATOM      5  N   UNL     1       3.249   6.657  18.732  0.00  0.00    +0.000 NA
ATOM      6  C   UNL     1       3.791   5.404  18.723  0.00  0.00    +0.000 A 
ENDROOT
BRANCH   4   7
ATOM      7  C   UNL     1       1.683   8.283  19.637  0.00  0.00    +0.000 A 
ATOM      8  C   UNL     1       1.043   8.808  20.779  0.00  0.00    +0.000 A 
ATOM      9  C   UNL     1       0.379  10.038  20.750  0.00  0.00    +0.000 A 
ATOM     10  C   UNL     1       0.347  10.780  19.574  0.00  0.00    +0.000 A 
ATOM     11  C   UNL     1       0.995  10.303  18.439  0.00  0.00    +0.000 A 
ATOM     12  C   UNL     1       1.658   9.071  18.471  0.00  0.00    +0.000 A 
ENDBRANCH   4   7
BRANCH   6  13
ATOM     13  C   UNL     1       4.800   5.192  17.651  0.00  0.00    +0.000 A 
ATOM     14  C   UNL     1       6.051   5.839  17.707  0.00  0.00    +0.000 A 
ATOM     15  C   UNL     1       7.049   5.597  16.753  0.00  0.00    +0.000 A 
ATOM     16  C   UNL     1       6.820   4.697  15.718  0.00  0.00    +0.000 A 
ATOM     17  C   UNL     1       5.581   4.079  15.608  0.00  0.00    +0.000 A 
ATOM     18  C   UNL     1       4.576   4.349  16.545  0.00  0.00    +0.000 A 
ENDBRANCH   6  13
BRANCH   1  19
ATOM     19  C   UNL     1       3.983   3.117  19.792  0.00  0.00    +0.000 C 
ATOM     20  O   UNL     1       5.176   2.894  19.865  0.00  0.00    +0.000 OA
BRANCH  19  21
ATOM     21  O   UNL     1       2.992   2.193  19.776  0.00  0.00    +0.000 OA
BRANCH  21  23
ATOM     22  C   UNL     1       0.816   2.232  18.652  0.00  0.00    +0.000 C 
ATOM     23  C   UNL     1       2.316   2.038  18.517  0.00  0.00    +0.000 C 
ENDBRANCH  21  23
ENDBRANCH  19  21
ENDBRANCH   1  19
TORSDOF 5
ENDMDL
MODEL 3
REMARK VINA RESULT:      -7.8      0.468      1.459
REMARK  Name = 
REMARK  6 active torsions:
REMARK  status: ('A' for Active; 'I' for Inactive)
REMARK    1  A    between atoms: C_1  and  C_2
REMARK    2  A    between atoms: C_2  and  O_3
REMARK    3  A    between atoms: O_3  and  C_4
REMARK    4  A    between atoms: C_4  and  C_6
REMARK    5  A    between atoms: C_9  and  C_10
REMARK    6  A    between atoms: C_17  and  C_18
REMARK                            x       y       z     vdW  Elec       q    Type
REMARK                         _______ _______ _______ _____ _____    ______ ____
ROOT
ATOM      1  C   UNL     1       3.415   4.499  19.625  0.00  0.00    +0.000 A 
ATOM      2  C   UNL     1       2.464   4.882  20.548  0.00  0.00    +0.000 A 
ATOM      3  N   UNL     1       1.894   6.099  20.579  0.00  0.00    +0.000 NA
ATOM      4  C   UNL     1       2.304   6.977  19.646  0.00  0.00    +0.000 A 
ATOM      5  N   UNL     1       3.226   6.697  18.701  0.00  0.00    +0.000 NA
ATOM      6  C   UNL     1       3.783   5.451  18.684  0.00  0.00    +0.000 A 
ENDROOT
BRANCH   4   7
ATOM      7  C   UNL     1       1.655   8.304  19.631  0.00  0.00    +0.000 A 
ATOM      8  C   UNL     1       1.660   9.106  18.471  0.00  0.00    +0.000 A 
ATOM      9  C   UNL     1       1.113  10.393  18.463  0.00  0.00    +0.000 A 
ATOM     10  C   UNL     1       0.536  10.906  19.619  0.00  0.00    +0.000 A 
ATOM     11  C   UNL     1       0.487  10.127  20.772  0.00  0.00    +0.000 A 
ATOM     12  C   UNL     1       1.037   8.841  20.776  0.00  0.00    +0.000 A 
ENDBRANCH   4   7
BRANCH   6  13
ATOM     13  C   UNL     1       4.777   5.250  17.595  0.00  0.00    +0.000 A 
ATOM     14  C   UNL     1       6.000   5.949  17.605  0.00  0.00    +0.000 A 
ATOM     15  C   UNL     1       6.987   5.721  16.636  0.00  0.00    +0.000 A 
ATOM     16  C   UNL     1       6.773   4.784  15.631  0.00  0.00    +0.000 A 
ATOM     17  C   UNL     1       5.559   4.113  15.566  0.00  0.00    +0.000 A 
ATOM     18  C   UNL     1       4.564   4.368  16.517  0.00  0.00    +0.000 A 
ENDBRANCH   6  13
BRANCH   1  19
ATOM     19  C   UNL     1       4.021   3.167  19.751  0.00  0.00    +0.000 C 
ATOM     20  O   UNL     1       5.218   2.958  19.804  0.00  0.00    +0.000 OA
BRANCH  19  21
ATOM     21  O   UNL     1       3.040   2.231  19.753  0.00  0.00    +0.000 OA
BRANCH  21  23
ATOM     22  C   UNL     1       0.857   2.226  18.642  0.00  0.00    +0.000 C 
ATOM     23  C   UNL     1       2.359   2.052  18.500  0.00  0.00    +0.000 C 
ENDBRANCH  21  23
ENDBRANCH  19  21
ENDBRANCH   1  19
TORSDOF 5
ENDMDL
MODEL 4
REMARK VINA RESULT:      -7.7      0.456      1.101
REMARK  Name = 
REMARK  6 active torsions:
REMARK  status: ('A' for Active; 'I' for Inactive)
REMARK    1  A    between atoms: C_1  and  C_2
REMARK    2  A    between atoms: C_2  and  O_3
REMARK    3  A    between atoms: O_3  and  C_4
REMARK    4  A    between atoms: C_4  and  C_6
REMARK    5  A    between atoms: C_9  and  C_10
REMARK    6  A    between atoms: C_17  and  C_18
REMARK                            x       y       z     vdW  Elec       q    Type
REMARK                         _______ _______ _______ _____ _____    ______ ____
ROOT
ATOM      1  C   UNL     1       3.405   4.492  19.649  0.00  0.00    +0.000 A 
ATOM      2  C   UNL     1       2.447   4.883  20.561  0.00  0.00    +0.000 A 
ATOM      3  N   UNL     1       1.881   6.102  20.580  0.00  0.00    +0.000 NA
ATOM      4  C   UNL     1       2.304   6.975  19.647  0.00  0.00    +0.000 A 
ATOM      5  N   UNL     1       3.235   6.686  18.713  0.00  0.00    +0.000 NA
ATOM      6  C   UNL     1       3.787   5.438  18.708  0.00  0.00    +0.000 A 
ENDROOT
BRANCH   4   7
ATOM      7  C   UNL     1       1.660   8.304  19.619  0.00  0.00    +0.000 A 
ATOM      8  C   UNL     1       1.698   9.109  18.462  0.00  0.00    +0.000 A 
ATOM      9  C   UNL     1       1.156  10.398  18.444  0.00  0.00    +0.000 A 
ATOM     10  C   UNL     1       0.550  10.909  19.587  0.00  0.00    +0.000 A 
ATOM     11  C   UNL     1       0.469  10.128  20.735  0.00  0.00    +0.000 A 
ATOM     12  C   UNL     1       1.015   8.840  20.750  0.00  0.00    +0.000 A 
ENDBRANCH   4   7
BRANCH   6  13
ATOM     13  C   UNL     1       4.792   5.229  17.630  0.00  0.00    +0.000 A 
ATOM     14  C   UNL     1       4.485   4.429  16.512  0.00  0.00    +0.000 A 
ATOM     15  C   UNL     1       5.382   4.279  15.446  0.00  0.00    +0.000 A 
ATOM     16  C   UNL     1       6.610   4.929  15.471  0.00  0.00    +0.000 A 
ATOM     17  C   UNL     1       6.962   5.687  16.581  0.00  0.00    +0.000 A 
ATOM     18  C   UNL     1       6.076   5.807  17.658  0.00  0.00    +0.000 A 
ENDBRANCH   6  13
BRANCH   1  19
ATOM     19  C   UNL     1       4.005   3.158  19.788  0.00  0.00    +0.000 C 
ATOM     20  O   UNL     1       5.201   2.945  19.841  0.00  0.00    +0.000 OA
BRANCH  19  21
ATOM     21  O   UNL     1       3.021   2.227  19.800  0.00  0.00    +0.000 OA
BRANCH  21  23
ATOM     22  C   UNL     1       0.868   2.250  18.632  0.00  0.00    +0.000 C 
ATOM     23  C   UNL     1       2.365   2.010  18.539  0.00  0.00    +0.000 C 
ENDBRANCH  21  23
ENDBRANCH  19  21
ENDBRANCH   1  19
TORSDOF 5
ENDMDL
MODEL 5
REMARK VINA RESULT:      -7.7      3.748      5.495
REMARK  Name = 
REMARK  6 active torsions:
REMARK  status: ('A' for Active; 'I' for Inactive)
REMARK    1  A    between atoms: C_1  and  C_2
REMARK    2  A    between atoms: C_2  and  O_3
REMARK    3  A    between atoms: O_3  and  C_4
REMARK    4  A    between atoms: C_4  and  C_6
REMARK    5  A    between atoms: C_9  and  C_10
REMARK    6  A    between atoms: C_17  and  C_18
REMARK                            x       y       z     vdW  Elec       q    Type
REMARK                         _______ _______ _______ _____ _____    ______ ____
ROOT
ATOM      1  C   UNL     1       5.666   4.378  16.335  0.00  0.00    +0.000 A 
ATOM      2  C   UNL     1       4.740   3.362  16.225  0.00  0.00    +0.000 A 
ATOM      3  N   UNL     1       3.888   3.011  17.204  0.00  0.00    +0.000 NA
ATOM      4  C   UNL     1       3.976   3.707  18.353  0.00  0.00    +0.000 A 
ATOM      5  N   UNL     1       4.848   4.717  18.557  0.00  0.00    +0.000 NA
ATOM      6  C   UNL     1       5.696   5.060  17.543  0.00  0.00    +0.000 A 
ENDROOT
BRANCH   4   7
ATOM      7  C   UNL     1       3.017   3.371  19.425  0.00  0.00    +0.000 A 
ATOM      8  C   UNL     1       1.656   3.729  19.324  0.00  0.00    +0.000 A 
ATOM      9  C   UNL     1       0.752   3.482  20.361  0.00  0.00    +0.000 A 
ATOM     10  C   UNL     1       1.188   2.858  21.526  0.00  0.00    +0.000 A 
ATOM     11  C   UNL     1       2.517   2.465  21.642  0.00  0.00    +0.000 A 
ATOM     12  C   UNL     1       3.420   2.715  20.603  0.00  0.00    +0.000 A 
ENDBRANCH   4   7
BRANCH   6  13
ATOM     13  C   UNL     1       6.603   6.192  17.875  0.00  0.00    +0.000 A 
ATOM     14  C   UNL     1       7.602   6.044  18.857  0.00  0.00    +0.000 A 
ATOM     15  C   UNL     1       8.520   7.066  19.134  0.00  0.00    +0.000 A 
ATOM     16  C   UNL     1       8.461   8.265  18.431  0.00  0.00    +0.000 A 
ATOM     17  C   UNL     1       7.458   8.459  17.490  0.00  0.00    +0.000 A 
ATOM     18  C   UNL     1       6.524   7.447  17.240  0.00  0.00    +0.000 A 
ENDBRANCH   6  13
BRANCH   1  19
ATOM     19  C   UNL     1       6.596   4.605  15.221  0.00  0.00    +0.000 C 
ATOM     20  O   UNL     1       7.791   4.788  15.350  0.00  0.00    +0.000 OA
BRANCH  19  21
ATOM     21  O   UNL     1       5.901   4.622  14.058  0.00  0.00    +0.000 OA
BRANCH  21  23
ATOM     22  C   UNL     1       5.537   3.090  12.181  0.00  0.00    +0.000 C 
ATOM     23  C   UNL     1       6.527   3.941  12.958  0.00  0.00    +0.000 C 
ENDBRANCH  21  23
ENDBRANCH  19  21
ENDBRANCH   1  19
TORSDOF 5
ENDMDL
MODEL 6
REMARK VINA RESULT:      -7.7      3.706      5.428
REMARK  Name = 
REMARK  6 active torsions:
REMARK  status: ('A' for Active; 'I' for Inactive)
REMARK    1  A    between atoms: C_1  and  C_2
REMARK    2  A    between atoms: C_2  and  O_3
REMARK    3  A    between atoms: O_3  and  C_4
REMARK    4  A    between atoms: C_4  and  C_6
REMARK    5  A    between atoms: C_9  and  C_10
REMARK    6  A    between atoms: C_17  and  C_18
REMARK                            x       y       z     vdW  Elec       q    Type
REMARK                         _______ _______ _______ _____ _____    ______ ____
ROOT
ATOM      1  C   UNL     1       5.665   4.392  16.278  0.00  0.00    +0.000 A 
ATOM      2  C   UNL     1       4.699   3.413  16.183  0.00  0.00    +0.000 A 
ATOM      3  N   UNL     1       3.855   3.090  17.179  0.00  0.00    +0.000 NA
ATOM      4  C   UNL     1       3.993   3.776  18.328  0.00  0.00    +0.000 A 
ATOM      5  N   UNL     1       4.907   4.751  18.518  0.00  0.00    +0.000 NA
ATOM      6  C   UNL     1       5.746   5.067  17.488  0.00  0.00    +0.000 A 
ENDROOT
BRANCH   4   7
ATOM      7  C   UNL     1       3.045   3.472  19.419  0.00  0.00    +0.000 A 
ATOM      8  C   UNL     1       1.726   3.972  19.399  0.00  0.00    +0.000 A 
ATOM      9  C   UNL     1       0.840   3.752  20.458  0.00  0.00    +0.000 A 
ATOM     10  C   UNL     1       1.251   3.014  21.563  0.00  0.00    +0.000 A 
ATOM     11  C   UNL     1       2.536   2.482  21.598  0.00  0.00    +0.000 A 
ATOM     12  C   UNL     1       3.421   2.705  20.537  0.00  0.00    +0.000 A 
ENDBRANCH   4   7
BRANCH   6  13
ATOM     13  C   UNL     1       6.702   6.162  17.805  0.00  0.00    +0.000 A 
ATOM     14  C   UNL     1       6.616   7.402  17.141  0.00  0.00    +0.000 A 
ATOM     15  C   UNL     1       7.452   8.476  17.475  0.00  0.00    +0.000 A 
ATOM     16  C   UNL     1       8.396   8.336  18.486  0.00  0.00    +0.000 A 
ATOM     17  C   UNL     1       8.539   7.112  19.127  0.00  0.00    +0.000 A 
ATOM     18  C   UNL     1       7.723   6.032  18.767  0.00  0.00    +0.000 A 
ENDBRANCH   6  13
BRANCH   1  19
ATOM     19  C   UNL     1       6.579   4.589  15.145  0.00  0.00    +0.000 C 
ATOM     20  O   UNL     1       7.774   4.787  15.253  0.00  0.00    +0.000 OA
BRANCH  19  21
ATOM     21  O   UNL     1       5.870   4.560  13.991  0.00  0.00    +0.000 OA
BRANCH  21  23
ATOM     22  C   UNL     1       5.622   3.036  12.090  0.00  0.00    +0.000 C 
ATOM     23  C   UNL     1       6.541   3.958  12.872  0.00  0.00    +0.000 C 
ENDBRANCH  21  23
ENDBRANCH  19  21
ENDBRANCH   1  19
TORSDOF 5
ENDMDL
MODEL 7
REMARK VINA RESULT:      -7.7      3.673      5.454
REMARK  Name = 
REMARK  6 active torsions:
REMARK  status: ('A' for Active; 'I' for Inactive)
REMARK    1  A    between atoms: C_1  and  C_2
REMARK    2  A    between atoms: C_2  and  O_3
REMARK    3  A    between atoms: O_3  and  C_4
REMARK    4  A    between atoms: C_4  and  C_6
REMARK    5  A    between atoms: C_9  and  C_10
REMARK    6  A    between atoms: C_17  and  C_18
REMARK                            x       y       z     vdW  Elec       q    Type
REMARK                         _______ _______ _______ _____ _____    ______ ____
ROOT
ATOM      1  C   UNL     1       5.652   4.380  16.387  0.00  0.00    +0.000 A 
ATOM      2  C   UNL     1       4.731   3.356  16.315  0.00  0.00    +0.000 A 
ATOM      3  N   UNL     1       3.879   3.041  17.307  0.00  0.00    +0.000 NA
ATOM      4  C   UNL     1       3.961   3.783  18.426  0.00  0.00    +0.000 A 
ATOM      5  N   UNL     1       4.827   4.805  18.591  0.00  0.00    +0.000 NA
ATOM      6  C   UNL     1       5.675   5.111  17.566  0.00  0.00    +0.000 A 
ENDROOT
BRANCH   4   7
ATOM      7  C   UNL     1       3.001   3.486  19.509  0.00  0.00    +0.000 A 
ATOM      8  C   UNL     1       3.383   2.727  20.635  0.00  0.00    +0.000 A 
ATOM      9  C   UNL     1       2.467   2.378  21.631  0.00  0.00    +0.000 A 
ATOM     10  C   UNL     1       1.142   2.791  21.530  0.00  0.00    +0.000 A 
ATOM     11  C   UNL     1       0.742   3.567  20.447  0.00  0.00    +0.000 A 
ATOM     12  C   UNL     1       1.661   3.913  19.450  0.00  0.00    +0.000 A 
ENDBRANCH   4   7
BRANCH   6  13
ATOM     13  C   UNL     1       6.576   6.260  17.853  0.00  0.00    +0.000 A 
ATOM     14  C   UNL     1       7.620   6.134  18.791  0.00  0.00    +0.000 A 
ATOM     15  C   UNL     1       8.531   7.173  19.023  0.00  0.00    +0.000 A 
ATOM     16  C   UNL     1       8.421   8.368  18.319  0.00  0.00    +0.000 A 
ATOM     17  C   UNL     1       7.374   8.540  17.423  0.00  0.00    +0.000 A 
ATOM     18  C   UNL     1       6.447   7.511  17.218  0.00  0.00    +0.000 A 
ENDBRANCH   6  13
BRANCH   1  19
ATOM     19  C   UNL     1       6.583   4.567  15.266  0.00  0.00    +0.000 C 
ATOM     20  O   UNL     1       7.776   4.768  15.390  0.00  0.00    +0.000 OA
BRANCH  19  21
ATOM     21  O   UNL     1       5.892   4.524  14.101  0.00  0.00    +0.000 OA
BRANCH  21  23
ATOM     22  C   UNL     1       5.663   3.105  12.118  0.00  0.00    +0.000 C 
ATOM     23  C   UNL     1       6.590   3.931  12.993  0.00  0.00    +0.000 C 
ENDBRANCH  21  23
ENDBRANCH  19  21
ENDBRANCH   1  19
TORSDOF 5
ENDMDL
MODEL 8
REMARK VINA RESULT:      -7.5      2.014      3.841
REMARK  Name = 
REMARK  6 active torsions:
REMARK  status: ('A' for Active; 'I' for Inactive)
REMARK    1  A    between atoms: C_1  and  C_2
REMARK    2  A    between atoms: C_2  and  O_3
REMARK    3  A    between atoms: O_3  and  C_4
REMARK    4  A    between atoms: C_4  and  C_6
REMARK    5  A    between atoms: C_9  and  C_10
REMARK    6  A    between atoms: C_17  and  C_18
REMARK                            x       y       z     vdW  Elec       q    Type
REMARK                         _______ _______ _______ _____ _____    ______ ____
ROOT
ATOM      1  C   UNL     1       4.585   6.096  16.935  0.00  0.00    +0.000 A 
ATOM      2  C   UNL     1       4.507   7.453  16.699  0.00  0.00    +0.000 A 
ATOM      3  N   UNL     1       3.592   8.262  17.262  0.00  0.00    +0.000 NA
ATOM      4  C   UNL     1       2.707   7.680  18.092  0.00  0.00    +0.000 A 
ATOM      5  N   UNL     1       2.704   6.363  18.386  0.00  0.00    +0.000 NA
ATOM      6  C   UNL     1       3.649   5.564  17.810  0.00  0.00    +0.000 A 
ENDROOT
BRANCH   4   7
ATOM      7  C   UNL     1       1.724   8.558  18.759  0.00  0.00    +0.000 A 
ATOM      8  C   UNL     1       1.465   8.446  20.141  0.00  0.00    +0.000 A 
ATOM      9  C   UNL     1       0.486   9.220  20.771  0.00  0.00    +0.000 A 
ATOM     10  C   UNL     1      -0.253  10.137  20.032  0.00  0.00    +0.000 A 
ATOM     11  C   UNL     1      -0.000  10.293  18.672  0.00  0.00    +0.000 A 
ATOM     12  C   UNL     1       0.979   9.515  18.045  0.00  0.00    +0.000 A 
ENDBRANCH   4   7
BRANCH   6  13
ATOM     13  C   UNL     1       3.557   4.135  18.214  0.00  0.00    +0.000 A 
ATOM     14  C   UNL     1       2.747   3.237  17.490  0.00  0.00    +0.000 A 
ATOM     15  C   UNL     1       2.703   1.871  17.799  0.00  0.00    +0.000 A 
ATOM     16  C   UNL     1       3.473   1.368  18.842  0.00  0.00    +0.000 A 
ATOM     17  C   UNL     1       4.245   2.234  19.605  0.00  0.00    +0.000 A 
ATOM     18  C   UNL     1       4.260   3.603  19.313  0.00  0.00    +0.000 A 
ENDBRANCH   6  13
BRANCH   1  19
ATOM     19  C   UNL     1       5.580   5.310  16.192  0.00  0.00    +0.000 C 
ATOM     20  O   UNL     1       5.307   4.467  15.359  0.00  0.00    +0.000 OA
BRANCH  19  21
ATOM     21  O   UNL     1       6.822   5.647  16.619  0.00  0.00    +0.000 OA
BRANCH  21  23
ATOM     22  C   UNL     1       7.704   5.643  18.904  0.00  0.00    +0.000 C 
ATOM     23  C   UNL     1       7.352   4.826  17.673  0.00  0.00    +0.000 C 
ENDBRANCH  21  23
ENDBRANCH  19  21
ENDBRANCH   1  19
TORSDOF 5
ENDMDL
MODEL 9
REMARK VINA RESULT:      -7.5      1.774      4.402
REMARK  Name = 
REMARK  6 active torsions:
REMARK  status: ('A' for Active; 'I' for Inactive)
REMARK    1  A    between atoms: C_1  and  C_2
REMARK    2  A    between atoms: C_2  and  O_3
REMARK    3  A    between atoms: O_3  and  C_4
REMARK    4  A    between atoms: C_4  and  C_6
REMARK    5  A    between atoms: C_9  and  C_10
REMARK    6  A    between atoms: C_17  and  C_18
REMARK                            x       y       z     vdW  Elec       q    Type
REMARK                         _______ _______ _______ _____ _____    ______ ____
ROOT
ATOM      1  C   UNL     1       3.897   5.956  17.714  0.00  0.00    +0.000 A 
ATOM      2  C   UNL     1       4.221   7.134  17.075  0.00  0.00    +0.000 A 
ATOM      3  N   UNL     1       3.541   8.284  17.226  0.00  0.00    +0.000 NA
ATOM      4  C   UNL     1       2.478   8.247  18.052  0.00  0.00    +0.000 A 
ATOM      5  N   UNL     1       2.083   7.145  18.722  0.00  0.00    +0.000 NA
ATOM      6  C   UNL     1       2.796   5.992  18.559  0.00  0.00    +0.000 A 
ENDROOT
BRANCH   4   7
ATOM      7  C   UNL     1       1.746   9.511  18.271  0.00  0.00    +0.000 A 
ATOM      8  C   UNL     1       2.372  10.760  18.077  0.00  0.00    +0.000 A 
ATOM      9  C   UNL     1       1.714  11.963  18.350  0.00  0.00    +0.000 A 
ATOM     10  C   UNL     1       0.404  11.945  18.816  0.00  0.00    +0.000 A 
ATOM     11  C   UNL     1      -0.252  10.730  18.988  0.00  0.00    +0.000 A 
ATOM     12  C   UNL     1       0.411   9.528  18.715  0.00  0.00    +0.000 A 
ENDBRANCH   4   7
BRANCH   6  13
ATOM     13  C   UNL     1       2.278   4.846  19.354  0.00  0.00    +0.000 A 
ATOM     14  C   UNL     1       2.618   4.707  20.714  0.00  0.00    +0.000 A 
ATOM     15  C   UNL     1       2.082   3.683  21.506  0.00  0.00    +0.000 A 
ATOM     16  C   UNL     1       1.188   2.771  20.955  0.00  0.00    +0.000 A 
ATOM     17  C   UNL     1       0.869   2.853  19.606  0.00  0.00    +0.000 A 
ATOM     18  C   UNL     1       1.433   3.858  18.811  0.00  0.00    +0.000 A 
ENDBRANCH   6  13
BRANCH   1  19
ATOM     19  C   UNL     1       4.670   4.748  17.397  0.00  0.00    +0.000 C 
ATOM     20  O   UNL     1       4.428   4.000  16.470  0.00  0.00    +0.000 OA
BRANCH  19  21
ATOM     21  O   UNL     1       5.648   4.590  18.323  0.00  0.00    +0.000 OA
BRANCH  21  23
ATOM     22  C   UNL     1       7.709   5.859  18.699  0.00  0.00    +0.000 C 
ATOM     23  C   UNL     1       6.985   4.827  17.852  0.00  0.00    +0.000 C 
ENDBRANCH  21  23
ENDBRANCH  19  21
ENDBRANCH   1  19
TORSDOF 5
ENDMDL
