MODEL 1
REMARK VINA RESULT:      -7.1      0.000      0.000
REMARK  Name = 
REMARK  5 active torsions:
REMARK  status: ('A' for Active; 'I' for Inactive)
REMARK    1  A    between atoms: C_2  and  C_3
REMARK    2  A    between atoms: C_3  and  O_4
REMARK    3  A    between atoms: O_4  and  C_5
REMARK    4  A    between atoms: C_5  and  C_7
REMARK    5  A    between atoms: N_11  and  C_12
REMARK                            x       y       z     vdW  Elec       q    Type
REMARK                         _______ _______ _______ _____ _____    ______ ____
ROOT
ATOM      1  O   UNL     1       6.744   5.193  19.775  0.00  0.00    +0.000 OA
ATOM      2  C   UNL     1       6.372   4.897  18.644  0.00  0.00    +0.000 C 
ATOM      3  N   UNL     1       5.048   4.717  18.244  0.00  0.00    +0.000 N 
ATOM      4  H   UNL     1       4.890   4.304  17.335  0.00  0.00    +0.000 HD
ENDROOT
BRANCH   3   5
ATOM      5  C   UNL     1       3.906   4.956  19.040  0.00  0.00    +0.000 A 
ATOM      6  C   UNL     1       3.253   6.192  19.088  0.00  0.00    +0.000 A 
ATOM      7  C   UNL     1       2.161   6.393  19.938  0.00  0.00    +0.000 A 
ATOM      8  C   UNL     1       1.705   5.355  20.743  0.00  0.00    +0.000 A 
ATOM      9  C   UNL     1       2.323   4.110  20.668  0.00  0.00    +0.000 A 
ATOM     10 CL   UNL     1       1.753   2.818  21.654  0.00  0.00    +0.000 Cl
ATOM     11  C   UNL     1       3.410   3.900  19.812  0.00  0.00    +0.000 A 
ENDBRANCH   3   5
BRANCH   2  12
ATOM     12  C   UNL     1       7.388   4.635  17.524  0.00  0.00    +0.000 C 
BRANCH  12  13
ATOM     13  O   UNL     1       7.461   5.721  16.595  0.00  0.00    +0.000 OA
BRANCH  13  14
ATOM     14  C   UNL     1       6.519   5.666  15.607  0.00  0.00    +0.000 C 
ATOM     15  O   UNL     1       5.562   6.438  15.558  0.00  0.00    +0.000 OA
BRANCH  14  16
ATOM     16  C   UNL     1       6.790   4.500  14.622  0.00  0.00    +0.000 C 
ATOM     17  C   UNL     1       5.553   3.910  13.892  0.00  0.00    +0.000 C 
ATOM     18  C   UNL     1       6.449   3.721  12.656  0.00  0.00    +0.000 C 
ATOM     19  C   UNL     1       7.337   4.851  13.211  0.00  0.00    +0.000 C 
ENDBRANCH  14  16
ENDBRANCH  13  14
ENDBRANCH  12  13
ENDBRANCH   2  12
TORSDOF 5
ENDMDL
MODEL 2
REMARK VINA RESULT:      -7.1      2.975      6.467
REMARK  Name = 
REMARK  5 active torsions:
REMARK  status: ('A' for Active; 'I' for Inactive)
REMARK    1  A    between atoms: C_2  and  C_3
REMARK    2  A    between atoms: C_3  and  O_4
REMARK    3  A    between atoms: O_4  and  C_5
REMARK    4  A    between atoms: C_5  and  C_7
REMARK    5  A    between atoms: N_11  and  C_12
REMARK                            x       y       z     vdW  Elec       q    Type
REMARK                         _______ _______ _______ _____ _____    ______ ____
ROOT
ATOM      1  O   UNL     1       7.938   4.385  17.053  0.00  0.00    +0.000 OA
ATOM      2  C   UNL     1       6.817   4.881  16.984  0.00  0.00    +0.000 C 
ATOM      3  N   UNL     1       6.130   5.175  15.807  0.00  0.00    +0.000 N 
ATOM      4  H   UNL     1       5.295   5.740  15.886  0.00  0.00    +0.000 HD
ENDROOT
BRANCH   3   5
ATOM      5  C   UNL     1       6.556   4.850  14.500  0.00  0.00    +0.000 A 
ATOM      6  C   UNL     1       7.606   5.509  13.852  0.00  0.00    +0.000 A 
ATOM      7  C   UNL     1       7.950   5.188  12.535  0.00  0.00    +0.000 A 
ATOM      8  C   UNL     1       7.251   4.197  11.855  0.00  0.00    +0.000 A 
ATOM      9  C   UNL     1       6.234   3.507  12.509  0.00  0.00    +0.000 A 
ATOM     10 CL   UNL     1       5.375   2.269  11.675  0.00  0.00    +0.000 Cl
ATOM     11  C   UNL     1       5.892   3.817  13.830  0.00  0.00    +0.000 A 
ENDBRANCH   3   5
BRANCH   2  12
ATOM     12  C   UNL     1       6.056   5.287  18.253  0.00  0.00    +0.000 C 
BRANCH  12  13
ATOM     13  O   UNL     1       6.005   4.230  19.215  0.00  0.00    +0.000 OA
BRANCH  13  14
ATOM     14  C   UNL     1       4.821   3.546  19.221  0.00  0.00    +0.000 C 
ATOM     15  O   UNL     1       4.688   2.454  19.774  0.00  0.00    +0.000 OA
BRANCH  14  16
ATOM     16  C   UNL     1       3.726   4.291  18.417  0.00  0.00    +0.000 C 
ATOM     17  C   UNL     1       2.928   3.444  17.388  0.00  0.00    +0.000 C 
ATOM     18  C   UNL     1       1.688   4.277  17.758  0.00  0.00    +0.000 C 
ATOM     19  C   UNL     1       2.364   4.556  19.113  0.00  0.00    +0.000 C 
ENDBRANCH  14  16
ENDBRANCH  13  14
ENDBRANCH  12  13
ENDBRANCH   2  12
TORSDOF 5
ENDMDL
MODEL 3
REMARK VINA RESULT:      -6.9      1.736      2.445
REMARK  Name = 
REMARK  5 active torsions:
REMARK  status: ('A' for Active; 'I' for Inactive)
REMARK    1  A    between atoms: C_2  and  C_3
REMARK    2  A    between atoms: C_3  and  O_4
REMARK    3  A    between atoms: O_4  and  C_5
REMARK    4  A    between atoms: C_5  and  C_7
REMARK    5  A    between atoms: N_11  and  C_12
REMARK                            x       y       z     vdW  Elec       q    Type
REMARK                         _______ _______ _______ _____ _____    ______ ____
ROOT
ATOM      1  O   UNL     1       4.617   6.054  19.494  0.00  0.00    +0.000 OA
ATOM      2  C   UNL     1       5.510   5.255  19.232  0.00  0.00    +0.000 C 
ATOM      3  N   UNL     1       5.350   3.880  19.072  0.00  0.00    +0.000 N 
ATOM      4  H   UNL     1       6.189   3.316  19.034  0.00  0.00    +0.000 HD
ENDROOT
BRANCH   3   5
ATOM      5  C   UNL     1       4.119   3.187  19.072  0.00  0.00    +0.000 A 
ATOM      6  C   UNL     1       3.600   2.552  17.939  0.00  0.00    +0.000 A 
ATOM      7  C   UNL     1       2.348   1.929  17.976  0.00  0.00    +0.000 A 
ATOM      8  C   UNL     1       1.607   1.928  19.152  0.00  0.00    +0.000 A 
ATOM      9  C   UNL     1       2.137   2.520  20.295  0.00  0.00    +0.000 A 
ATOM     10 CL   UNL     1       1.227   2.509  21.757  0.00  0.00    +0.000 Cl
ATOM     11  C   UNL     1       3.393   3.136  20.266  0.00  0.00    +0.000 A 
ENDBRANCH   3   5
BRANCH   2  12
ATOM     12  C   UNL     1       6.967   5.720  19.100  0.00  0.00    +0.000 C 
BRANCH  12  13
ATOM     13  O   UNL     1       7.317   6.026  17.747  0.00  0.00    +0.000 OA
BRANCH  13  14
ATOM     14  C   UNL     1       7.451   4.925  16.948  0.00  0.00    +0.000 C 
ATOM     15  O   UNL     1       8.258   4.026  17.186  0.00  0.00    +0.000 OA
BRANCH  14  16
ATOM     16  C   UNL     1       6.511   4.994  15.718  0.00  0.00    +0.000 C 
ATOM     17  C   UNL     1       7.191   4.906  14.324  0.00  0.00    +0.000 C 
ATOM     18  C   UNL     1       5.968   4.103  13.847  0.00  0.00    +0.000 C 
ATOM     19  C   UNL     1       5.740   3.707  15.318  0.00  0.00    +0.000 C 
ENDBRANCH  14  16
ENDBRANCH  13  14
ENDBRANCH  12  13
ENDBRANCH   2  12
TORSDOF 5
ENDMDL
MODEL 4
REMARK VINA RESULT:      -6.8      1.614      2.229
REMARK  Name = 
REMARK  5 active torsions:
REMARK  status: ('A' for Active; 'I' for Inactive)
REMARK    1  A    between atoms: C_2  and  C_3
REMARK    2  A    between atoms: C_3  and  O_4
REMARK    3  A    between atoms: O_4  and  C_5
REMARK    4  A    between atoms: C_5  and  C_7
REMARK    5  A    between atoms: N_11  and  C_12
REMARK                            x       y       z     vdW  Elec       q    Type
REMARK                         _______ _______ _______ _____ _____    ______ ____
ROOT
ATOM      1  O   UNL     1       6.240   4.092  17.746  0.00  0.00    +0.000 OA
ATOM      2  C   UNL     1       5.492   4.902  17.207  0.00  0.00    +0.000 C 
ATOM      3  N   UNL     1       4.098   4.872  17.247  0.00  0.00    +0.000 N 
ATOM      4  H   UNL     1       3.603   5.491  16.618  0.00  0.00    +0.000 HD
ENDROOT
BRANCH   3   5
ATOM      5  C   UNL     1       3.313   3.976  18.006  0.00  0.00    +0.000 A 
ATOM      6  C   UNL     1       2.643   2.884  17.444  0.00  0.00    +0.000 A 
ATOM      7  C   UNL     1       1.831   2.060  18.230  0.00  0.00    +0.000 A 
ATOM      8  C   UNL     1       1.688   2.317  19.589  0.00  0.00    +0.000 A 
ATOM      9  C   UNL     1       2.386   3.376  20.162  0.00  0.00    +0.000 A 
ATOM     10 CL   UNL     1       2.221   3.689  21.848  0.00  0.00    +0.000 Cl
ATOM     11  C   UNL     1       3.208   4.197  19.383  0.00  0.00    +0.000 A 
ENDBRANCH   3   5
BRANCH   2  12
ATOM     12  C   UNL     1       6.054   6.048  16.356  0.00  0.00    +0.000 C 
BRANCH  12  13
ATOM     13  O   UNL     1       5.861   5.828  14.956  0.00  0.00    +0.000 OA
BRANCH  13  14
ATOM     14  C   UNL     1       6.884   5.146  14.358  0.00  0.00    +0.000 C 
ATOM     15  O   UNL     1       8.045   5.553  14.361  0.00  0.00    +0.000 OA
BRANCH  14  16
ATOM     16  C   UNL     1       6.379   3.858  13.658  0.00  0.00    +0.000 C 
ATOM     17  C   UNL     1       4.920   3.888  13.127  0.00  0.00    +0.000 C 
ATOM     18  C   UNL     1       5.402   3.041  11.936  0.00  0.00    +0.000 C 
ATOM     19  C   UNL     1       6.810   3.613  12.187  0.00  0.00    +0.000 C 
ENDBRANCH  14  16
ENDBRANCH  13  14
ENDBRANCH  12  13
ENDBRANCH   2  12
TORSDOF 5
ENDMDL
MODEL 5
REMARK VINA RESULT:      -6.7      1.397      1.945
REMARK  Name = 
REMARK  5 active torsions:
REMARK  status: ('A' for Active; 'I' for Inactive)
REMARK    1  A    between atoms: C_2  and  C_3
REMARK    2  A    between atoms: C_3  and  O_4
REMARK    3  A    between atoms: O_4  and  C_5
REMARK    4  A    between atoms: C_5  and  C_7
REMARK    5  A    between atoms: N_11  and  C_12
REMARK                            x       y       z     vdW  Elec       q    Type
REMARK                         _______ _______ _______ _____ _____    ______ ____
ROOT
ATOM      1  O   UNL     1       6.861   4.214  18.595  0.00  0.00    +0.000 OA
ATOM      2  C   UNL     1       6.263   5.051  17.926  0.00  0.00    +0.000 C 
ATOM      3  N   UNL     1       4.908   5.011  17.597  0.00  0.00    +0.000 N 
ATOM      4  H   UNL     1       4.582   5.664  16.897  0.00  0.00    +0.000 HD
ENDROOT
BRANCH   3   5
ATOM      5  C   UNL     1       3.972   4.066  18.070  0.00  0.00    +0.000 A 
ATOM      6  C   UNL     1       3.952   2.732  17.648  0.00  0.00    +0.000 A 
ATOM      7  C   UNL     1       2.967   1.850  18.103  0.00  0.00    +0.000 A 
ATOM      8  C   UNL     1       1.995   2.293  18.994  0.00  0.00    +0.000 A 
ATOM      9  C   UNL     1       2.035   3.607  19.452  0.00  0.00    +0.000 A 
ATOM     10 CL   UNL     1       0.841   4.155  20.565  0.00  0.00    +0.000 Cl
ATOM     11  C   UNL     1       3.024   4.491  19.007  0.00  0.00    +0.000 A 
ENDBRANCH   3   5
BRANCH   2  12
ATOM     12  C   UNL     1       7.003   6.250  17.319  0.00  0.00    +0.000 C 
BRANCH  12  13
ATOM     13  O   UNL     1       7.482   5.980  15.999  0.00  0.00    +0.000 OA
BRANCH  13  14
ATOM     14  C   UNL     1       6.489   5.766  15.084  0.00  0.00    +0.000 C 
ATOM     15  O   UNL     1       5.486   6.475  15.014  0.00  0.00    +0.000 OA
BRANCH  14  16
ATOM     16  C   UNL     1       6.774   4.515  14.214  0.00  0.00    +0.000 C 
ATOM     17  C   UNL     1       5.540   3.826  13.571  0.00  0.00    +0.000 C 
ATOM     18  C   UNL     1       6.419   3.537  12.341  0.00  0.00    +0.000 C 
ATOM     19  C   UNL     1       7.287   4.738  12.765  0.00  0.00    +0.000 C 
ENDBRANCH  14  16
ENDBRANCH  13  14
ENDBRANCH  12  13
ENDBRANCH   2  12
TORSDOF 5
ENDMDL
MODEL 6
REMARK VINA RESULT:      -6.7      1.142      1.348
REMARK  Name = 
REMARK  5 active torsions:
REMARK  status: ('A' for Active; 'I' for Inactive)
REMARK    1  A    between atoms: C_2  and  C_3
REMARK    2  A    between atoms: C_3  and  O_4
REMARK    3  A    between atoms: O_4  and  C_5
REMARK    4  A    between atoms: C_5  and  C_7
REMARK    5  A    between atoms: N_11  and  C_12
REMARK                            x       y       z     vdW  Elec       q    Type
REMARK                         _______ _______ _______ _____ _____    ______ ____
ROOT
ATOM      1  O   UNL     1       6.364   4.758  18.978  0.00  0.00    +0.000 OA
ATOM      2  C   UNL     1       5.887   5.179  17.929  0.00  0.00    +0.000 C 
ATOM      3  N   UNL     1       4.531   5.370  17.671  0.00  0.00    +0.000 N 
ATOM      4  H   UNL     1       4.262   5.552  16.713  0.00  0.00    +0.000 HD
ENDROOT
BRANCH   3   5
ATOM      5  C   UNL     1       3.484   5.219  18.607  0.00  0.00    +0.000 A 
ATOM      6  C   UNL     1       2.975   6.281  19.363  0.00  0.00    +0.000 A 
ATOM      7  C   UNL     1       1.978   6.067  20.319  0.00  0.00    +0.000 A 
ATOM      8  C   UNL     1       1.471   4.789  20.522  0.00  0.00    +0.000 A 
ATOM      9  C   UNL     1       1.942   3.735  19.743  0.00  0.00    +0.000 A 
ATOM     10 CL   UNL     1       1.308   2.152  19.984  0.00  0.00    +0.000 Cl
ATOM     11  C   UNL     1       2.933   3.945  18.779  0.00  0.00    +0.000 A 
ENDBRANCH   3   5
BRANCH   2  12
ATOM     12  C   UNL     1       6.788   5.503  16.729  0.00  0.00    +0.000 C 
BRANCH  12  13
ATOM     13  O   UNL     1       6.124   5.290  15.480  0.00  0.00    +0.000 OA
BRANCH  13  14
ATOM     14  C   UNL     1       6.968   4.970  14.454  0.00  0.00    +0.000 C 
ATOM     15  O   UNL     1       7.990   5.611  14.209  0.00  0.00    +0.000 OA
BRANCH  14  16
ATOM     16  C   UNL     1       6.444   3.760  13.640  0.00  0.00    +0.000 C 
ATOM     17  C   UNL     1       4.967   3.833  13.166  0.00  0.00    +0.000 C 
ATOM     18  C   UNL     1       5.410   3.120  11.876  0.00  0.00    +0.000 C 
ATOM     19  C   UNL     1       6.823   3.674  12.136  0.00  0.00    +0.000 C 
ENDBRANCH  14  16
ENDBRANCH  13  14
ENDBRANCH  12  13
ENDBRANCH   2  12
TORSDOF 5
ENDMDL
MODEL 7
REMARK VINA RESULT:      -6.6      1.455      1.670
REMARK  Name = 
REMARK  5 active torsions:
REMARK  status: ('A' for Active; 'I' for Inactive)
REMARK    1  A    between atoms: C_2  and  C_3
REMARK    2  A    between atoms: C_3  and  O_4
REMARK    3  A    between atoms: O_4  and  C_5
REMARK    4  A    between atoms: C_5  and  C_7
REMARK    5  A    between atoms: N_11  and  C_12
REMARK                            x       y       z     vdW  Elec       q    Type
REMARK                         _______ _______ _______ _____ _____    ______ ____
ROOT
ATOM      1  O   UNL     1       6.254   4.780  19.081  0.00  0.00    +0.000 OA
ATOM      2  C   UNL     1       5.829   5.327  18.068  0.00  0.00    +0.000 C 
ATOM      3  N   UNL     1       4.485   5.505  17.743  0.00  0.00    +0.000 N 
ATOM      4  H   UNL     1       4.272   5.809  16.802  0.00  0.00    +0.000 HD
ENDROOT
BRANCH   3   5
ATOM      5  C   UNL     1       3.386   5.189  18.573  0.00  0.00    +0.000 A 
ATOM      6  C   UNL     1       3.023   5.957  19.685  0.00  0.00    +0.000 A 
ATOM      7  C   UNL     1       1.962   5.569  20.508  0.00  0.00    +0.000 A 
ATOM      8  C   UNL     1       1.247   4.412  20.222  0.00  0.00    +0.000 A 
ATOM      9  C   UNL     1       1.575   3.666  19.093  0.00  0.00    +0.000 A 
ATOM     10 CL   UNL     1       0.683   2.239  18.729  0.00  0.00    +0.000 Cl
ATOM     11  C   UNL     1       2.630   4.056  18.260  0.00  0.00    +0.000 A 
ENDBRANCH   3   5
BRANCH   2  12
ATOM     12  C   UNL     1       6.792   5.845  16.991  0.00  0.00    +0.000 C 
BRANCH  12  13
ATOM     13  O   UNL     1       7.340   4.787  16.200  0.00  0.00    +0.000 OA
BRANCH  13  14
ATOM     14  C   UNL     1       6.414   4.123  15.446  0.00  0.00    +0.000 C 
ATOM     15  O   UNL     1       5.736   3.197  15.889  0.00  0.00    +0.000 OA
BRANCH  14  16
ATOM     16  C   UNL     1       6.378   4.653  13.989  0.00  0.00    +0.000 C 
ATOM     17  C   UNL     1       7.746   5.029  13.358  0.00  0.00    +0.000 C 
ATOM     18  C   UNL     1       7.207   4.491  12.021  0.00  0.00    +0.000 C 
ATOM     19  C   UNL     1       6.239   3.618  12.841  0.00  0.00    +0.000 C 
ENDBRANCH  14  16
ENDBRANCH  13  14
ENDBRANCH  12  13
ENDBRANCH   2  12
TORSDOF 5
ENDMDL
MODEL 8
REMARK VINA RESULT:      -6.5      3.280      6.109
REMARK  Name = 
REMARK  5 active torsions:
REMARK  status: ('A' for Active; 'I' for Inactive)
REMARK    1  A    between atoms: C_2  and  C_3
REMARK    2  A    between atoms: C_3  and  O_4
REMARK    3  A    between atoms: O_4  and  C_5
REMARK    4  A    between atoms: C_5  and  C_7
REMARK    5  A    between atoms: N_11  and  C_12
REMARK                            x       y       z     vdW  Elec       q    Type
REMARK                         _______ _______ _______ _____ _____    ______ ____
ROOT
ATOM      1  O   UNL     1       5.689   4.227  19.683  0.00  0.00    +0.000 OA
ATOM      2  C   UNL     1       4.973   3.349  19.212  0.00  0.00    +0.000 C 
ATOM      3  N   UNL     1       4.545   3.273  17.887  0.00  0.00    +0.000 N 
ATOM      4  H   UNL     1       3.819   2.602  17.672  0.00  0.00    +0.000 HD
ENDROOT
BRANCH   3   5
ATOM      5  C   UNL     1       4.952   4.126  16.838  0.00  0.00    +0.000 A 
ATOM      6  C   UNL     1       4.869   5.521  16.911  0.00  0.00    +0.000 A 
ATOM      7  C   UNL     1       5.232   6.318  15.821  0.00  0.00    +0.000 A 
ATOM      8  C   UNL     1       5.689   5.728  14.649  0.00  0.00    +0.000 A 
ATOM      9  C   UNL     1       5.816   4.343  14.584  0.00  0.00    +0.000 A 
ATOM     10 CL   UNL     1       6.395   3.609  13.138  0.00  0.00    +0.000 Cl
ATOM     11  C   UNL     1       5.464   3.541  15.675  0.00  0.00    +0.000 A 
ENDBRANCH   3   5
BRANCH   2  12
ATOM     12  C   UNL     1       4.417   2.227  20.099  0.00  0.00    +0.000 C 
BRANCH  12  13
ATOM     13  O   UNL     1       2.997   2.093  19.976  0.00  0.00    +0.000 OA
BRANCH  13  14
ATOM     14  C   UNL     1       2.291   2.977  20.743  0.00  0.00    +0.000 C 
ATOM     15  O   UNL     1       2.312   2.954  21.973  0.00  0.00    +0.000 OA
BRANCH  14  16
ATOM     16  C   UNL     1       1.450   3.945  19.871  0.00  0.00    +0.000 C 
ATOM     17  C   UNL     1       2.139   5.273  19.454  0.00  0.00    +0.000 C 
ATOM     18  C   UNL     1       1.404   5.158  18.107  0.00  0.00    +0.000 C 
ATOM     19  C   UNL     1       1.330   3.640  18.354  0.00  0.00    +0.000 C 
ENDBRANCH  14  16
ENDBRANCH  13  14
ENDBRANCH  12  13
ENDBRANCH   2  12
TORSDOF 5
ENDMDL
MODEL 9
REMARK VINA RESULT:      -6.5      1.681      2.298
REMARK  Name = 
REMARK  5 active torsions:
REMARK  status: ('A' for Active; 'I' for Inactive)
REMARK    1  A    between atoms: C_2  and  C_3
REMARK    2  A    between atoms: C_3  and  O_4
REMARK    3  A    between atoms: O_4  and  C_5
REMARK    4  A    between atoms: C_5  and  C_7
REMARK    5  A    between atoms: N_11  and  C_12
REMARK                            x       y       z     vdW  Elec       q    Type
REMARK                         _______ _______ _______ _____ _____    ______ ____
ROOT
ATOM      1  O   UNL     1       3.568   7.098  17.948  0.00  0.00    +0.000 OA
ATOM      2  C   UNL     1       4.142   6.264  17.253  0.00  0.00    +0.000 C 
ATOM      3  N   UNL     1       3.936   4.886  17.301  0.00  0.00    +0.000 N 
ATOM      4  H   UNL     1       4.596   4.302  16.805  0.00  0.00    +0.000 HD
ENDROOT
BRANCH   3   5
ATOM      5  C   UNL     1       2.956   4.224  18.072  0.00  0.00    +0.000 A 
ATOM      6  C   UNL     1       1.644   4.022  17.630  0.00  0.00    +0.000 A 
ATOM      7  C   UNL     1       0.695   3.412  18.457  0.00  0.00    +0.000 A 
ATOM      8  C   UNL     1       1.052   2.990  19.733  0.00  0.00    +0.000 A 
ATOM      9  C   UNL     1       2.367   3.149  20.163  0.00  0.00    +0.000 A 
ATOM     10 CL   UNL     1       2.816   2.616  21.737  0.00  0.00    +0.000 Cl
ATOM     11  C   UNL     1       3.323   3.750  19.336  0.00  0.00    +0.000 A 
ENDBRANCH   3   5
BRANCH   2  12
ATOM     12  C   UNL     1       5.228   6.685  16.255  0.00  0.00    +0.000 C 
BRANCH  12  13
ATOM     13  O   UNL     1       6.539   6.313  16.691  0.00  0.00    +0.000 OA
BRANCH  13  14
ATOM     14  C   UNL     1       7.038   5.209  16.058  0.00  0.00    +0.000 C 
ATOM     15  O   UNL     1       7.888   4.479  16.567  0.00  0.00    +0.000 OA
BRANCH  14  16
ATOM     16  C   UNL     1       6.439   5.044  14.638  0.00  0.00    +0.000 C 
ATOM     17  C   UNL     1       7.455   4.923  13.470  0.00  0.00    +0.000 C 
ATOM     18  C   UNL     1       6.484   3.928  12.811  0.00  0.00    +0.000 C 
ATOM     19  C   UNL     1       5.933   3.637  14.219  0.00  0.00    +0.000 C 
ENDBRANCH  14  16
ENDBRANCH  13  14
ENDBRANCH  12  13
ENDBRANCH   2  12
TORSDOF 5
ENDMDL
