MODEL 1
REMARK VINA RESULT:      -7.2      0.000      0.000
REMARK  Name = 
REMARK  6 active torsions:
REMARK  status: ('A' for Active; 'I' for Inactive)
REMARK    1  A    between atoms: C_1  and  C_2
REMARK    2  A    between atoms: C_2  and  N_3
REMARK    3  A    between atoms: N_3  and  C_4
REMARK    4  A    between atoms: C_4  and  C_5
REMARK    5  A    between atoms: C_5  and  N_6
REMARK    6  A    between atoms: N_6  and  C_7
REMARK                            x       y       z     vdW  Elec       q    Type
REMARK                         _______ _______ _______ _____ _____    ______ ____
ROOT
ATOM      1  C   UNL     1       3.248   5.850  18.271  0.00  0.00    +0.000 A 
ATOM      2  C   UNL     1       4.188   5.502  17.228  0.00  0.00    +0.000 A 
ATOM      3  C   UNL     1       4.853   6.414  16.358  0.00  0.00    +0.000 A 
ATOM      4  C   UNL     1       5.647   6.031  15.296  0.00  0.00    +0.000 A 
ATOM      5  C   UNL     1       5.887   4.710  15.120  0.00  0.00    +0.000 A 
ATOM      6  C   UNL     1       5.314   3.786  16.000  0.00  0.00    +0.000 A 
ATOM      7  C   UNL     1       4.460   4.160  17.029  0.00  0.00    +0.000 A 
ATOM      8  N   UNL     1       3.951   3.171  17.780  0.00  0.00    +0.000 NA
ATOM      9  C   UNL     1       3.077   3.464  18.737  0.00  0.00    +0.000 A 
ATOM     10  C   UNL     1       2.573   2.394  19.462  0.00  0.00    +0.000 A 
ATOM     11  C   UNL     1       1.598   2.551  20.444  0.00  0.00    +0.000 A 
ATOM     12  C   UNL     1       1.107   3.823  20.708  0.00  0.00    +0.000 A 
ATOM     13  C   UNL     1       1.628   4.921  20.012  0.00  0.00    +0.000 A 
ATOM     14  C   UNL     1       2.638   4.781  19.018  0.00  0.00    +0.000 A 
ENDROOT
BRANCH   1  15
ATOM     15  N   UNL     1       2.957   7.200  18.632  0.00  0.00    +0.000 N 
ATOM     16  H   UNL     1       2.749   7.250  19.636  0.00  0.00    +0.000 HD
BRANCH  15  17
ATOM     17  C   UNL     1       2.018   8.000  17.857  0.00  0.00    +0.000 C 
BRANCH  17  18
ATOM     18  C   UNL     1       1.882   9.419  18.352  0.00  0.00    +0.000 C 
BRANCH  18  19
ATOM     19  N   UNL     1       0.760  10.112  17.714  0.00  0.00    +0.000 NA
ATOM     20  H   UNL     1       1.053  11.060  17.448  0.00  0.00    +0.000 HD
BRANCH  19  22
ATOM     21  C   UNL     1      -1.672  10.188  17.818  0.00  0.00    +0.000 C 
ATOM     22  C   UNL     1      -0.381  10.212  18.619  0.00  0.00    +0.000 C 
ENDBRANCH  19  22
ENDBRANCH  18  19
ENDBRANCH  17  18
ENDBRANCH  15  17
ENDBRANCH   1  15
TORSDOF 5
ENDMDL
MODEL 2
REMARK VINA RESULT:      -7.2      1.969      5.952
REMARK  Name = 
REMARK  6 active torsions:
REMARK  status: ('A' for Active; 'I' for Inactive)
REMARK    1  A    between atoms: C_1  and  C_2
REMARK    2  A    between atoms: C_2  and  N_3
REMARK    3  A    between atoms: N_3  and  C_4
REMARK    4  A    between atoms: C_4  and  C_5
REMARK    5  A    between atoms: C_5  and  N_6
REMARK    6  A    between atoms: N_6  and  C_7
REMARK                            x       y       z     vdW  Elec       q    Type
REMARK                         _______ _______ _______ _____ _____    ______ ____
ROOT
ATOM      1  C   UNL     1       3.392   5.892  18.372  0.00  0.00    +0.000 A 
ATOM      2  C   UNL     1       3.202   4.836  19.341  0.00  0.00    +0.000 A 
ATOM      3  C   UNL     1       3.771   3.530  19.284  0.00  0.00    +0.000 A 
ATOM      4  C   UNL     1       3.465   2.513  20.165  0.00  0.00    +0.000 A 
ATOM      5  C   UNL     1       2.645   2.792  21.205  0.00  0.00    +0.000 A 
ATOM      6  C   UNL     1       2.125   4.084  21.341  0.00  0.00    +0.000 A 
ATOM      7  C   UNL     1       2.375   5.093  20.420  0.00  0.00    +0.000 A 
ATOM      8  N   UNL     1       1.787   6.278  20.649  0.00  0.00    +0.000 NA
ATOM      9  C   UNL     1       1.937   7.261  19.768  0.00  0.00    +0.000 A 
ATOM     10  C   UNL     1       1.287   8.452  20.055  0.00  0.00    +0.000 A 
ATOM     11  C   UNL     1       1.301   9.539  19.183  0.00  0.00    +0.000 A 
ATOM     12  C   UNL     1       1.987   9.428  17.981  0.00  0.00    +0.000 A 
ATOM     13  C   UNL     1       2.680   8.246  17.688  0.00  0.00    +0.000 A 
ATOM     14  C   UNL     1       2.692   7.133  18.576  0.00  0.00    +0.000 A 
ENDROOT
BRANCH   1  15
ATOM     15  N   UNL     1       4.292   5.779  17.269  0.00  0.00    +0.000 N 
ATOM     16  H   UNL     1       4.202   4.849  16.846  0.00  0.00    +0.000 HD
BRANCH  15  17
ATOM     17  C   UNL     1       5.690   6.169  17.399  0.00  0.00    +0.000 C 
BRANCH  17  18
ATOM     18  C   UNL     1       6.639   4.996  17.465  0.00  0.00    +0.000 C 
BRANCH  18  19
ATOM     19  N   UNL     1       6.373   4.023  16.402  0.00  0.00    +0.000 NA
ATOM     20  H   UNL     1       6.824   3.130  16.638  0.00  0.00    +0.000 HD
BRANCH  19  22
ATOM     21  C   UNL     1       5.995   4.001  13.996  0.00  0.00    +0.000 C 
ATOM     22  C   UNL     1       6.895   4.486  15.121  0.00  0.00    +0.000 C 
ENDBRANCH  19  22
ENDBRANCH  18  19
ENDBRANCH  17  18
ENDBRANCH  15  17
ENDBRANCH   1  15
TORSDOF 5
ENDMDL
MODEL 3
REMARK VINA RESULT:      -7.2      2.146      5.911
REMARK  Name = 
REMARK  6 active torsions:
REMARK  status: ('A' for Active; 'I' for Inactive)
REMARK    1  A    between atoms: C_1  and  C_2
REMARK    2  A    between atoms: C_2  and  N_3
REMARK    3  A    between atoms: N_3  and  C_4
REMARK    4  A    between atoms: C_4  and  C_5
REMARK    5  A    between atoms: C_5  and  N_6
REMARK    6  A    between atoms: N_6  and  C_7
REMARK                            x       y       z     vdW  Elec       q    Type
REMARK                         _______ _______ _______ _____ _____    ______ ____
ROOT
ATOM      1  C   UNL     1       4.680   4.494  18.362  0.00  0.00    +0.000 A 
ATOM      2  C   UNL     1       3.804   5.538  18.845  0.00  0.00    +0.000 A 
ATOM      3  C   UNL     1       3.135   5.559  20.104  0.00  0.00    +0.000 A 
ATOM      4  C   UNL     1       2.211   6.514  20.474  0.00  0.00    +0.000 A 
ATOM      5  C   UNL     1       1.988   7.550  19.631  0.00  0.00    +0.000 A 
ATOM      6  C   UNL     1       2.681   7.607  18.417  0.00  0.00    +0.000 A 
ATOM      7  C   UNL     1       3.562   6.613  18.009  0.00  0.00    +0.000 A 
ATOM      8  N   UNL     1       4.137   6.773  16.806  0.00  0.00    +0.000 NA
ATOM      9  C   UNL     1       4.937   5.823  16.336  0.00  0.00    +0.000 A 
ATOM     10  C   UNL     1       5.481   6.042  15.078  0.00  0.00    +0.000 A 
ATOM     11  C   UNL     1       6.279   5.096  14.436  0.00  0.00    +0.000 A 
ATOM     12  C   UNL     1       6.539   3.890  15.074  0.00  0.00    +0.000 A 
ATOM     13  C   UNL     1       6.028   3.665  16.359  0.00  0.00    +0.000 A 
ATOM     14  C   UNL     1       5.227   4.627  17.037  0.00  0.00    +0.000 A 
ENDROOT
BRANCH   1  15
ATOM     15  N   UNL     1       5.078   3.383  19.166  0.00  0.00    +0.000 N 
ATOM     16  H   UNL     1       5.923   2.957  18.770  0.00  0.00    +0.000 HD
BRANCH  15  17
ATOM     17  C   UNL     1       4.115   2.368  19.574  0.00  0.00    +0.000 C 
BRANCH  17  18
ATOM     18  C   UNL     1       3.481   1.639  18.414  0.00  0.00    +0.000 C 
BRANCH  18  19
ATOM     19  N   UNL     1       2.036   1.486  18.595  0.00  0.00    +0.000 NA
ATOM     20  H   UNL     1       1.670   0.848  17.877  0.00  0.00    +0.000 HD
BRANCH  19  22
ATOM     21  C   UNL     1       0.589   3.063  19.756  0.00  0.00    +0.000 C 
ATOM     22  C   UNL     1       1.350   2.767  18.473  0.00  0.00    +0.000 C 
ENDBRANCH  19  22
ENDBRANCH  18  19
ENDBRANCH  17  18
ENDBRANCH  15  17
ENDBRANCH   1  15
TORSDOF 5
ENDMDL
MODEL 4
REMARK VINA RESULT:      -7.1      1.446      4.238
REMARK  Name = 
REMARK  6 active torsions:
REMARK  status: ('A' for Active; 'I' for Inactive)
REMARK    1  A    between atoms: C_1  and  C_2
REMARK    2  A    between atoms: C_2  and  N_3
REMARK    3  A    between atoms: N_3  and  C_4
REMARK    4  A    between atoms: C_4  and  C_5
REMARK    5  A    between atoms: C_5  and  N_6
REMARK    6  A    between atoms: N_6  and  C_7
REMARK                            x       y       z     vdW  Elec       q    Type
REMARK                         _______ _______ _______ _____ _____    ______ ____
ROOT
ATOM      1  C   UNL     1       3.255   5.742  18.552  0.00  0.00    +0.000 A 
ATOM      2  C   UNL     1       2.820   4.659  19.404  0.00  0.00    +0.000 A 
ATOM      3  C   UNL     1       1.510   4.488  19.943  0.00  0.00    +0.000 A 
ATOM      4  C   UNL     1       1.170   3.507  20.851  0.00  0.00    +0.000 A 
ATOM      5  C   UNL     1       2.109   2.591  21.188  0.00  0.00    +0.000 A 
ATOM      6  C   UNL     1       3.385   2.679  20.622  0.00  0.00    +0.000 A 
ATOM      7  C   UNL     1       3.754   3.703  19.759  0.00  0.00    +0.000 A 
ATOM      8  N   UNL     1       5.021   3.689  19.314  0.00  0.00    +0.000 NA
ATOM      9  C   UNL     1       5.449   4.679  18.538  0.00  0.00    +0.000 A 
ATOM     10  C   UNL     1       6.773   4.615  18.130  0.00  0.00    +0.000 A 
ATOM     11  C   UNL     1       7.370   5.623  17.375  0.00  0.00    +0.000 A 
ATOM     12  C   UNL     1       6.617   6.733  17.019  0.00  0.00    +0.000 A 
ATOM     13  C   UNL     1       5.268   6.800  17.390  0.00  0.00    +0.000 A 
ATOM     14  C   UNL     1       4.637   5.772  18.145  0.00  0.00    +0.000 A 
ENDROOT
BRANCH   1  15
ATOM     15  N   UNL     1       2.364   6.735  18.044  0.00  0.00    +0.000 N 
ATOM     16  H   UNL     1       2.566   6.903  17.052  0.00  0.00    +0.000 HD
BRANCH  15  17
ATOM     17  C   UNL     1       2.148   7.987  18.758  0.00  0.00    +0.000 C 
BRANCH  17  18
ATOM     18  C   UNL     1       2.133   9.199  17.859  0.00  0.00    +0.000 C 
BRANCH  18  19
ATOM     19  N   UNL     1       0.813   9.833  17.826  0.00  0.00    +0.000 NA
ATOM     20  H   UNL     1       0.738  10.416  16.982  0.00  0.00    +0.000 HD
BRANCH  19  22
ATOM     21  C   UNL     1      -0.785  10.430  19.564  0.00  0.00    +0.000 C 
ATOM     22  C   UNL     1       0.604  10.677  18.997  0.00  0.00    +0.000 C 
ENDBRANCH  19  22
ENDBRANCH  18  19
ENDBRANCH  17  18
ENDBRANCH  15  17
ENDBRANCH   1  15
TORSDOF 5
ENDMDL
MODEL 5
REMARK VINA RESULT:      -7.1      0.234      4.068
REMARK  Name = 
REMARK  6 active torsions:
REMARK  status: ('A' for Active; 'I' for Inactive)
REMARK    1  A    between atoms: C_1  and  C_2
REMARK    2  A    between atoms: C_2  and  N_3
REMARK    3  A    between atoms: N_3  and  C_4
REMARK    4  A    between atoms: C_4  and  C_5
REMARK    5  A    between atoms: C_5  and  N_6
REMARK    6  A    between atoms: N_6  and  C_7
REMARK                            x       y       z     vdW  Elec       q    Type
REMARK                         _______ _______ _______ _____ _____    ______ ____
ROOT
ATOM      1  C   UNL     1       3.300   5.816  18.295  0.00  0.00    +0.000 A 
ATOM      2  C   UNL     1       2.628   4.723  18.962  0.00  0.00    +0.000 A 
ATOM      3  C   UNL     1       1.726   4.836  20.060  0.00  0.00    +0.000 A 
ATOM      4  C   UNL     1       1.203   3.759  20.746  0.00  0.00    +0.000 A 
ATOM      5  C   UNL     1       1.488   2.514  20.297  0.00  0.00    +0.000 A 
ATOM      6  C   UNL     1       2.309   2.361  19.174  0.00  0.00    +0.000 A 
ATOM      7  C   UNL     1       2.893   3.439  18.521  0.00  0.00    +0.000 A 
ATOM      8  N   UNL     1       3.687   3.152  17.477  0.00  0.00    +0.000 NA
ATOM      9  C   UNL     1       4.325   4.138  16.854  0.00  0.00    +0.000 A 
ATOM     10  C   UNL     1       5.146   3.771  15.798  0.00  0.00    +0.000 A 
ATOM     11  C   UNL     1       5.926   4.694  15.105  0.00  0.00    +0.000 A 
ATOM     12  C   UNL     1       5.886   6.029  15.484  0.00  0.00    +0.000 A 
ATOM     13  C   UNL     1       5.036   6.426  16.525  0.00  0.00    +0.000 A 
ATOM     14  C   UNL     1       4.218   5.499  17.231  0.00  0.00    +0.000 A 
ENDROOT
BRANCH   1  15
ATOM     15  N   UNL     1       3.039   7.186  18.597  0.00  0.00    +0.000 N 
ATOM     16  H   UNL     1       2.910   7.297  19.609  0.00  0.00    +0.000 HD
BRANCH  15  17
ATOM     17  C   UNL     1       2.041   7.943  17.852  0.00  0.00    +0.000 C 
BRANCH  17  18
ATOM     18  C   UNL     1       1.579   9.193  18.561  0.00  0.00    +0.000 C 
BRANCH  18  19
ATOM     19  N   UNL     1       0.600   9.937  17.765  0.00  0.00    +0.000 NA
ATOM     20  H   UNL     1       1.025  10.813  17.435  0.00  0.00    +0.000 HD
BRANCH  19  22
ATOM     21  C   UNL     1      -1.824  10.154  17.684  0.00  0.00    +0.000 C 
ATOM     22  C   UNL     1      -0.583  10.261  18.555  0.00  0.00    +0.000 C 
ENDBRANCH  19  22
ENDBRANCH  18  19
ENDBRANCH  17  18
ENDBRANCH  15  17
ENDBRANCH   1  15
TORSDOF 5
ENDMDL
MODEL 6
REMARK VINA RESULT:      -7.1      0.972      1.270
REMARK  Name = 
REMARK  6 active torsions:
REMARK  status: ('A' for Active; 'I' for Inactive)
REMARK    1  A    between atoms: C_1  and  C_2
REMARK    2  A    between atoms: C_2  and  N_3
REMARK    3  A    between atoms: N_3  and  C_4
REMARK    4  A    between atoms: C_4  and  C_5
REMARK    5  A    between atoms: C_5  and  N_6
REMARK    6  A    between atoms: N_6  and  C_7
REMARK                            x       y       z     vdW  Elec       q    Type
REMARK                         _______ _______ _______ _____ _____    ______ ____
ROOT
ATOM      1  C   UNL     1       3.289   5.790  18.223  0.00  0.00    +0.000 A 
ATOM      2  C   UNL     1       4.236   5.417  17.196  0.00  0.00    +0.000 A 
ATOM      3  C   UNL     1       4.932   6.310  16.330  0.00  0.00    +0.000 A 
ATOM      4  C   UNL     1       5.733   5.904  15.282  0.00  0.00    +0.000 A 
ATOM      5  C   UNL     1       5.949   4.578  15.117  0.00  0.00    +0.000 A 
ATOM      6  C   UNL     1       5.346   3.671  15.995  0.00  0.00    +0.000 A 
ATOM      7  C   UNL     1       4.485   4.069  17.009  0.00  0.00    +0.000 A 
ATOM      8  N   UNL     1       3.945   3.095  17.759  0.00  0.00    +0.000 NA
ATOM      9  C   UNL     1       3.064   3.411  18.702  0.00  0.00    +0.000 A 
ATOM     10  C   UNL     1       2.530   2.356  19.426  0.00  0.00    +0.000 A 
ATOM     11  C   UNL     1       1.544   2.538  20.394  0.00  0.00    +0.000 A 
ATOM     12  C   UNL     1       1.075   3.821  20.642  0.00  0.00    +0.000 A 
ATOM     13  C   UNL     1       1.627   4.905  19.947  0.00  0.00    +0.000 A 
ATOM     14  C   UNL     1       2.648   4.738  18.969  0.00  0.00    +0.000 A 
ENDROOT
BRANCH   1  15
ATOM     15  N   UNL     1       3.020   7.148  18.573  0.00  0.00    +0.000 N 
ATOM     16  H   UNL     1       2.686   7.194  19.542  0.00  0.00    +0.000 HD
BRANCH  15  17
ATOM     17  C   UNL     1       2.229   8.006  17.699  0.00  0.00    +0.000 C 
BRANCH  17  18
ATOM     18  C   UNL     1       1.610   9.184  18.412  0.00  0.00    +0.000 C 
BRANCH  18  19
ATOM     19  N   UNL     1       1.879  10.443  17.713  0.00  0.00    +0.000 NA
ATOM     20  H   UNL     1       2.858  10.455  17.400  0.00  0.00    +0.000 HD
BRANCH  19  22
ATOM     21  C   UNL     1       2.555  12.738  18.165  0.00  0.00    +0.000 C 
ATOM     22  C   UNL     1       1.653  11.589  18.586  0.00  0.00    +0.000 C 
ENDBRANCH  19  22
ENDBRANCH  18  19
ENDBRANCH  17  18
ENDBRANCH  15  17
ENDBRANCH   1  15
TORSDOF 5
ENDMDL
MODEL 7
REMARK VINA RESULT:      -7.1      1.532      1.755
REMARK  Name = 
REMARK  6 active torsions:
REMARK  status: ('A' for Active; 'I' for Inactive)
REMARK    1  A    between atoms: C_1  and  C_2
REMARK    2  A    between atoms: C_2  and  N_3
REMARK    3  A    between atoms: N_3  and  C_4
REMARK    4  A    between atoms: C_4  and  C_5
REMARK    5  A    between atoms: C_5  and  N_6
REMARK    6  A    between atoms: N_6  and  C_7
REMARK                            x       y       z     vdW  Elec       q    Type
REMARK                         _______ _______ _______ _____ _____    ______ ____
ROOT
ATOM      1  C   UNL     1       3.174   5.893  18.608  0.00  0.00    +0.000 A 
ATOM      2  C   UNL     1       4.040   5.684  17.468  0.00  0.00    +0.000 A 
ATOM      3  C   UNL     1       4.700   6.700  16.717  0.00  0.00    +0.000 A 
ATOM      4  C   UNL     1       5.417   6.465  15.562  0.00  0.00    +0.000 A 
ATOM      5  C   UNL     1       5.585   5.183  15.162  0.00  0.00    +0.000 A 
ATOM      6  C   UNL     1       5.017   4.150  15.915  0.00  0.00    +0.000 A 
ATOM      7  C   UNL     1       4.238   4.384  17.041  0.00  0.00    +0.000 A 
ATOM      8  N   UNL     1       3.724   3.305  17.653  0.00  0.00    +0.000 NA
ATOM      9  C   UNL     1       2.917   3.471  18.695  0.00  0.00    +0.000 A 
ATOM     10  C   UNL     1       2.403   2.317  19.269  0.00  0.00    +0.000 A 
ATOM     11  C   UNL     1       1.490   2.349  20.320  0.00  0.00    +0.000 A 
ATOM     12  C   UNL     1       1.074   3.579  20.813  0.00  0.00    +0.000 A 
ATOM     13  C   UNL     1       1.608   4.756  20.272  0.00  0.00    +0.000 A 
ATOM     14  C   UNL     1       2.556   4.741  19.210  0.00  0.00    +0.000 A 
ENDROOT
BRANCH   1  15
ATOM     15  N   UNL     1       2.967   7.177  19.198  0.00  0.00    +0.000 N 
ATOM     16  H   UNL     1       2.856   7.075  20.213  0.00  0.00    +0.000 HD
BRANCH  15  17
ATOM     17  C   UNL     1       1.987   8.106  18.650  0.00  0.00    +0.000 C 
BRANCH  17  18
ATOM     18  C   UNL     1       1.334   8.978  19.694  0.00  0.00    +0.000 C 
BRANCH  18  19
ATOM     19  N   UNL     1       1.207   8.284  20.978  0.00  0.00    +0.000 NA
ATOM     20  H   UNL     1       0.332   7.743  20.986  0.00  0.00    +0.000 HD
BRANCH  19  22
ATOM     21  C   UNL     1      -0.211   9.266  22.698  0.00  0.00    +0.000 C 
ATOM     22  C   UNL     1       1.181   9.230  22.089  0.00  0.00    +0.000 C 
ENDBRANCH  19  22
ENDBRANCH  18  19
ENDBRANCH  17  18
ENDBRANCH  15  17
ENDBRANCH   1  15
TORSDOF 5
ENDMDL
MODEL 8
REMARK VINA RESULT:      -7.1      4.034      6.911
REMARK  Name = 
REMARK  6 active torsions:
REMARK  status: ('A' for Active; 'I' for Inactive)
REMARK    1  A    between atoms: C_1  and  C_2
REMARK    2  A    between atoms: C_2  and  N_3
REMARK    3  A    between atoms: N_3  and  C_4
REMARK    4  A    between atoms: C_4  and  C_5
REMARK    5  A    between atoms: C_5  and  N_6
REMARK    6  A    between atoms: N_6  and  C_7
REMARK                            x       y       z     vdW  Elec       q    Type
REMARK                         _______ _______ _______ _____ _____    ______ ____
ROOT
ATOM      1  C   UNL     1       5.098   4.521  16.758  0.00  0.00    +0.000 A 
ATOM      2  C   UNL     1       4.289   3.633  17.564  0.00  0.00    +0.000 A 
ATOM      3  C   UNL     1       3.225   2.808  17.094  0.00  0.00    +0.000 A 
ATOM      4  C   UNL     1       2.399   2.069  17.917  0.00  0.00    +0.000 A 
ATOM      5  C   UNL     1       2.666   2.051  19.244  0.00  0.00    +0.000 A 
ATOM      6  C   UNL     1       3.750   2.787  19.735  0.00  0.00    +0.000 A 
ATOM      7  C   UNL     1       4.544   3.586  18.922  0.00  0.00    +0.000 A 
ATOM      8  N   UNL     1       5.530   4.267  19.526  0.00  0.00    +0.000 NA
ATOM      9  C   UNL     1       6.281   5.098  18.810  0.00  0.00    +0.000 A 
ATOM     10  C   UNL     1       7.268   5.786  19.498  0.00  0.00    +0.000 A 
ATOM     11  C   UNL     1       8.078   6.740  18.885  0.00  0.00    +0.000 A 
ATOM     12  C   UNL     1       7.891   7.016  17.537  0.00  0.00    +0.000 A 
ATOM     13  C   UNL     1       6.923   6.306  16.816  0.00  0.00    +0.000 A 
ATOM     14  C   UNL     1       6.100   5.315  17.422  0.00  0.00    +0.000 A 
ENDROOT
BRANCH   1  15
ATOM     15  N   UNL     1       4.994   4.588  15.336  0.00  0.00    +0.000 N 
ATOM     16  H   UNL     1       4.046   4.319  15.048  0.00  0.00    +0.000 HD
BRANCH  15  17
ATOM     17  C   UNL     1       6.001   3.976  14.479  0.00  0.00    +0.000 C 
BRANCH  17  18
ATOM     18  C   UNL     1       5.584   3.882  13.031  0.00  0.00    +0.000 C 
BRANCH  18  19
ATOM     19  N   UNL     1       6.404   2.919  12.292  0.00  0.00    +0.000 NA
ATOM     20  H   UNL     1       7.061   3.426  11.686  0.00  0.00    +0.000 HD
BRANCH  19  22
ATOM     21  C   UNL     1       6.382   0.836  11.030  0.00  0.00    +0.000 C 
ATOM     22  C   UNL     1       5.576   2.052  11.460  0.00  0.00    +0.000 C 
ENDBRANCH  19  22
ENDBRANCH  18  19
ENDBRANCH  17  18
ENDBRANCH  15  17
ENDBRANCH   1  15
TORSDOF 5
ENDMDL
MODEL 9
REMARK VINA RESULT:      -7.1      1.695      5.133
REMARK  Name = 
REMARK  6 active torsions:
REMARK  status: ('A' for Active; 'I' for Inactive)
REMARK    1  A    between atoms: C_1  and  C_2
REMARK    2  A    between atoms: C_2  and  N_3
REMARK    3  A    between atoms: N_3  and  C_4
REMARK    4  A    between atoms: C_4  and  C_5
REMARK    5  A    between atoms: C_5  and  N_6
REMARK    6  A    between atoms: N_6  and  C_7
REMARK                            x       y       z     vdW  Elec       q    Type
REMARK                         _______ _______ _______ _____ _____    ______ ____
ROOT
ATOM      1  C   UNL     1       2.905   6.292  19.676  0.00  0.00    +0.000 A 
ATOM      2  C   UNL     1       3.825   5.878  18.640  0.00  0.00    +0.000 A 
ATOM      3  C   UNL     1       4.627   4.699  18.650  0.00  0.00    +0.000 A 
ATOM      4  C   UNL     1       5.582   4.405  17.699  0.00  0.00    +0.000 A 
ATOM      5  C   UNL     1       5.707   5.237  16.638  0.00  0.00    +0.000 A 
ATOM      6  C   UNL     1       4.885   6.366  16.552  0.00  0.00    +0.000 A 
ATOM      7  C   UNL     1       3.969   6.704  17.540  0.00  0.00    +0.000 A 
ATOM      8  N   UNL     1       3.266   7.832  17.350  0.00  0.00    +0.000 NA
ATOM      9  C   UNL     1       2.423   8.239  18.293  0.00  0.00    +0.000 A 
ATOM     10  C   UNL     1       1.744   9.423  18.043  0.00  0.00    +0.000 A 
ATOM     11  C   UNL     1       0.885  10.001  18.975  0.00  0.00    +0.000 A 
ATOM     12  C   UNL     1       0.702   9.374  20.201  0.00  0.00    +0.000 A 
ATOM     13  C   UNL     1       1.350   8.160  20.458  0.00  0.00    +0.000 A 
ATOM     14  C   UNL     1       2.216   7.546  19.510  0.00  0.00    +0.000 A 
ENDROOT
BRANCH   1  15
ATOM     15  N   UNL     1       2.602   5.482  20.813  0.00  0.00    +0.000 N 
ATOM     16  H   UNL     1       3.469   5.097  21.201  0.00  0.00    +0.000 HD
BRANCH  15  17
ATOM     17  C   UNL     1       1.553   4.472  20.756  0.00  0.00    +0.000 C 
BRANCH  17  18
ATOM     18  C   UNL     1       2.049   3.072  21.026  0.00  0.00    +0.000 C 
BRANCH  18  19
ATOM     19  N   UNL     1       1.549   2.118  20.034  0.00  0.00    +0.000 NA
ATOM     20  H   UNL     1       2.244   1.373  19.898  0.00  0.00    +0.000 HD
BRANCH  19  22
ATOM     21  C   UNL     1       2.336   2.298  17.736  0.00  0.00    +0.000 C 
ATOM     22  C   UNL     1       1.307   2.769  18.751  0.00  0.00    +0.000 C 
ENDBRANCH  19  22
ENDBRANCH  18  19
ENDBRANCH  17  18
ENDBRANCH  15  17
ENDBRANCH   1  15
TORSDOF 5
ENDMDL
