MODEL 1
REMARK VINA RESULT:      -8.5      0.000      0.000
REMARK  Name = 
REMARK  7 active torsions:
REMARK  status: ('A' for Active; 'I' for Inactive)
REMARK    1  A    between atoms: C_1  and  C_2
REMARK    2  A    between atoms: C_2  and  C_3
REMARK    3  A    between atoms: C_6  and  C_7
REMARK    4  A    between atoms: C_7  and  N_8
REMARK    5  A    between atoms: C_9  and  C_11
REMARK    6  A    between atoms: N_14  and  C_15
REMARK    7  A    between atoms: C_24  and  C_25
REMARK                            x       y       z     vdW  Elec       q    Type
REMARK                         _______ _______ _______ _____ _____    ______ ____
ROOT
ATOM      1  C   UNL     1       0.331  10.056  19.532  0.00  0.00    +0.000 C 
ATOM      2  C   UNL     1       0.388   8.866  20.496  0.00  0.00    +0.000 C 
ATOM      3  C   UNL     1       1.759   8.195  20.491  0.00  0.00    +0.000 C 
ATOM      4  N   UNL     1       2.153   7.862  19.122  0.00  0.00    +0.000 N 
ATOM      5  C   UNL     1       2.218   8.959  18.171  0.00  0.00    +0.000 C 
ATOM      6  C   UNL     1       0.846   9.652  18.136  0.00  0.00    +0.000 C 
ENDROOT
BRANCH   4   7
ATOM      7  C   UNL     1       2.621   6.604  18.791  0.00  0.00    +0.000 A 
ATOM      8  N   UNL     1       1.849   5.590  18.356  0.00  0.00    +0.000 NA
ATOM      9  C   UNL     1       2.412   4.345  18.385  0.00  0.00    +0.000 A 
ATOM     10  C   UNL     1       2.138   3.341  17.462  0.00  0.00    +0.000 A 
ATOM     11  C   UNL     1       2.789   2.103  17.530  0.00  0.00    +0.000 A 
ATOM     12  C   UNL     1       3.568   1.798  18.640  0.00  0.00    +0.000 A 
ATOM     13  C   UNL     1       3.902   2.814  19.524  0.00  0.00    +0.000 A 
ATOM     14  C   UNL     1       3.506   4.109  19.229  0.00  0.00    +0.000 A 
ATOM     15  N   UNL     1       4.290   5.144  19.549  0.00  0.00    +0.000 NA
ATOM     16  C   UNL     1       3.959   6.298  18.893  0.00  0.00    +0.000 A 
BRANCH  16  17
ATOM     17  C   UNL     1       4.603   6.527  17.488  0.00  0.00    +0.000 C 
ATOM     18  F   UNL     1       5.019   5.381  16.857  0.00  0.00    +0.000 F 
ATOM     19  F   UNL     1       3.762   7.131  16.603  0.00  0.00    +0.000 F 
ATOM     20  F   UNL     1       5.730   7.309  17.530  0.00  0.00    +0.000 F 
ENDBRANCH  16  17
ENDBRANCH   4   7
BRANCH   1  22
ATOM     21  N   UNL     1       1.589  12.113  19.135  0.00  0.00    +0.000 N 
ATOM     22  C   UNL     1       1.086  11.258  20.094  0.00  0.00    +0.000 C 
ATOM     23  O   UNL     1       1.262  11.432  21.293  0.00  0.00    +0.000 OA
ATOM     24  H   UNL     1       1.656  11.797  18.178  0.00  0.00    +0.000 HD
BRANCH  21  25
ATOM     25  C   UNL     1       2.373  13.268  19.511  0.00  0.00    +0.000 C 
BRANCH  25  29
ATOM     26  C   UNL     1       0.380  16.882  18.187  0.00  0.00    +0.000 A 
ATOM     27  C   UNL     1       1.777  16.789  18.186  0.00  0.00    +0.000 A 
ATOM     28  C   UNL     1       2.418  15.627  18.632  0.00  0.00    +0.000 A 
ATOM     29  C   UNL     1       1.680  14.548  19.108  0.00  0.00    +0.000 A 
ATOM     30  C   UNL     1       0.275  14.644  19.123  0.00  0.00    +0.000 A 
ATOM     31  C   UNL     1      -0.361  15.798  18.669  0.00  0.00    +0.000 A 
BRANCH  26  33
ATOM     32  C   UNL     1       0.389  18.592  16.367  0.00  0.00    +0.000 C 
ATOM     33  C   UNL     1      -0.307  18.097  17.627  0.00  0.00    +0.000 C 
ENDBRANCH  26  33
ENDBRANCH  25  29
ENDBRANCH  21  25
ENDBRANCH   1  22
TORSDOF 6
ENDMDL
MODEL 2
REMARK VINA RESULT:      -8.3      3.867      9.627
REMARK  Name = 
REMARK  7 active torsions:
REMARK  status: ('A' for Active; 'I' for Inactive)
REMARK    1  A    between atoms: C_1  and  C_2
REMARK    2  A    between atoms: C_2  and  C_3
REMARK    3  A    between atoms: C_6  and  C_7
REMARK    4  A    between atoms: C_7  and  N_8
REMARK    5  A    between atoms: C_9  and  C_11
REMARK    6  A    between atoms: N_14  and  C_15
REMARK    7  A    between atoms: C_24  and  C_25
REMARK                            x       y       z     vdW  Elec       q    Type
REMARK                         _______ _______ _______ _____ _____    ______ ____
ROOT
ATOM      1  C   UNL     1       2.199   5.827  18.996  0.00  0.00    +0.000 C 
ATOM      2  C   UNL     1       1.702   6.910  18.032  0.00  0.00    +0.000 C 
ATOM      3  C   UNL     1       2.004   8.313  18.549  0.00  0.00    +0.000 C 
ATOM      4  N   UNL     1       1.502   8.467  19.915  0.00  0.00    +0.000 N 
ATOM      5  C   UNL     1       2.007   7.535  20.910  0.00  0.00    +0.000 C 
ATOM      6  C   UNL     1       1.707   6.106  20.430  0.00  0.00    +0.000 C 
ENDROOT
BRANCH   4   7
ATOM      7  C   UNL     1       0.735   9.555  20.285  0.00  0.00    +0.000 A 
ATOM      8  N   UNL     1      -0.200  10.133  19.506  0.00  0.00    +0.000 NA
ATOM      9  C   UNL     1      -0.627  11.373  19.890  0.00  0.00    +0.000 A 
ATOM     10  C   UNL     1      -1.921  11.848  19.700  0.00  0.00    +0.000 A 
ATOM     11  C   UNL     1      -2.297  13.115  20.162  0.00  0.00    +0.000 A 
ATOM     12  C   UNL     1      -1.326  13.989  20.638  0.00  0.00    +0.000 A 
ATOM     13  C   UNL     1      -0.053  13.499  20.895  0.00  0.00    +0.000 A 
ATOM     14  C   UNL     1       0.182  12.142  20.736  0.00  0.00    +0.000 A 
ATOM     15  N   UNL     1       1.026  11.503  21.554  0.00  0.00    +0.000 NA
ATOM     16  C   UNL     1       0.888  10.143  21.520  0.00  0.00    +0.000 A 
BRANCH  16  17
ATOM     17  C   UNL     1      -0.172   9.510  22.477  0.00  0.00    +0.000 C 
ATOM     18  F   UNL     1      -0.806   8.401  21.973  0.00  0.00    +0.000 F 
ATOM     19  F   UNL     1       0.352   9.106  23.667  0.00  0.00    +0.000 F 
ATOM     20  F   UNL     1      -1.200  10.364  22.788  0.00  0.00    +0.000 F 
ENDBRANCH  16  17
ENDBRANCH   4   7
BRANCH   1  22
ATOM     21  N   UNL     1       4.273   6.058  17.724  0.00  0.00    +0.000 N 
ATOM     22  C   UNL     1       3.717   5.685  18.931  0.00  0.00    +0.000 C 
ATOM     23  O   UNL     1       4.385   5.243  19.858  0.00  0.00    +0.000 OA
ATOM     24  H   UNL     1       3.676   6.155  16.915  0.00  0.00    +0.000 HD
BRANCH  21  25
ATOM     25  C   UNL     1       5.694   5.930  17.492  0.00  0.00    +0.000 C 
BRANCH  25  29
ATOM     26  C   UNL     1       6.413   4.109  13.626  0.00  0.00    +0.000 A 
ATOM     27  C   UNL     1       5.207   3.902  14.305  0.00  0.00    +0.000 A 
ATOM     28  C   UNL     1       4.986   4.477  15.563  0.00  0.00    +0.000 A 
ATOM     29  C   UNL     1       5.969   5.247  16.173  0.00  0.00    +0.000 A 
ATOM     30  C   UNL     1       7.190   5.446  15.499  0.00  0.00    +0.000 A 
ATOM     31  C   UNL     1       7.403   4.881  14.242  0.00  0.00    +0.000 A 
BRANCH  26  33
ATOM     32  C   UNL     1       5.408   2.754  11.785  0.00  0.00    +0.000 C 
ATOM     33  C   UNL     1       6.615   3.563  12.238  0.00  0.00    +0.000 C 
ENDBRANCH  26  33
ENDBRANCH  25  29
ENDBRANCH  21  25
ENDBRANCH   1  22
TORSDOF 6
ENDMDL
MODEL 3
REMARK VINA RESULT:      -8.3      3.713      8.567
REMARK  Name = 
REMARK  7 active torsions:
REMARK  status: ('A' for Active; 'I' for Inactive)
REMARK    1  A    between atoms: C_1  and  C_2
REMARK    2  A    between atoms: C_2  and  C_3
REMARK    3  A    between atoms: C_6  and  C_7
REMARK    4  A    between atoms: C_7  and  N_8
REMARK    5  A    between atoms: C_9  and  C_11
REMARK    6  A    between atoms: N_14  and  C_15
REMARK    7  A    between atoms: C_24  and  C_25
REMARK                            x       y       z     vdW  Elec       q    Type
REMARK                         _______ _______ _______ _____ _____    ______ ____
ROOT
ATOM      1  C   UNL     1       2.254   5.468  19.001  0.00  0.00    +0.000 C 
ATOM      2  C   UNL     1       1.987   6.612  18.017  0.00  0.00    +0.000 C 
ATOM      3  C   UNL     1       2.309   7.974  18.626  0.00  0.00    +0.000 C 
ATOM      4  N   UNL     1       1.620   8.128  19.908  0.00  0.00    +0.000 N 
ATOM      5  C   UNL     1       1.900   7.134  20.930  0.00  0.00    +0.000 C 
ATOM      6  C   UNL     1       1.573   5.746  20.357  0.00  0.00    +0.000 C 
ENDROOT
BRANCH   4   7
ATOM      7  C   UNL     1       0.886   9.263  20.202  0.00  0.00    +0.000 A 
ATOM      8  N   UNL     1       0.035   9.866  19.350  0.00  0.00    +0.000 NA
ATOM      9  C   UNL     1      -0.352  11.135  19.678  0.00  0.00    +0.000 A 
ATOM     10  C   UNL     1      -1.605  11.668  19.392  0.00  0.00    +0.000 A 
ATOM     11  C   UNL     1      -1.946  12.963  19.800  0.00  0.00    +0.000 A 
ATOM     12  C   UNL     1      -0.965  13.800  20.319  0.00  0.00    +0.000 A 
ATOM     13  C   UNL     1       0.262  13.254  20.672  0.00  0.00    +0.000 A 
ATOM     14  C   UNL     1       0.438  11.884  20.559  0.00  0.00    +0.000 A 
ATOM     15  N   UNL     1       1.193  11.225  21.445  0.00  0.00    +0.000 NA
ATOM     16  C   UNL     1       0.988   9.873  21.431  0.00  0.00    +0.000 A 
BRANCH  16  17
ATOM     17  C   UNL     1      -0.163   9.317  22.329  0.00  0.00    +0.000 C 
ATOM     18  F   UNL     1      -1.165  10.219  22.596  0.00  0.00    +0.000 F 
ATOM     19  F   UNL     1      -0.796   8.239  21.787  0.00  0.00    +0.000 F 
ATOM     20  F   UNL     1       0.262   8.920  23.571  0.00  0.00    +0.000 F 
ENDBRANCH  16  17
ENDBRANCH   4   7
BRANCH   1  22
ATOM     21  N   UNL     1       4.436   5.102  17.963  0.00  0.00    +0.000 N 
ATOM     22  C   UNL     1       3.750   5.211  19.156  0.00  0.00    +0.000 C 
ATOM     23  O   UNL     1       4.293   5.076  20.246  0.00  0.00    +0.000 OA
ATOM     24  H   UNL     1       3.918   4.951  17.109  0.00  0.00    +0.000 HD
BRANCH  21  25
ATOM     25  C   UNL     1       5.851   4.807  17.947  0.00  0.00    +0.000 C 
BRANCH  25  29
ATOM     26  C   UNL     1       8.096   8.512  18.011  0.00  0.00    +0.000 A 
ATOM     27  C   UNL     1       6.994   8.354  17.163  0.00  0.00    +0.000 A 
ATOM     28  C   UNL     1       6.282   7.148  17.131  0.00  0.00    +0.000 A 
ATOM     29  C   UNL     1       6.670   6.075  17.925  0.00  0.00    +0.000 A 
ATOM     30  C   UNL     1       7.787   6.227  18.770  0.00  0.00    +0.000 A 
ATOM     31  C   UNL     1       8.488   7.432  18.807  0.00  0.00    +0.000 A 
BRANCH  26  33
ATOM     32  C   UNL     1       9.242  10.124  19.537  0.00  0.00    +0.000 C 
ATOM     33  C   UNL     1       8.805   9.836  18.107  0.00  0.00    +0.000 C 
ENDBRANCH  26  33
ENDBRANCH  25  29
ENDBRANCH  21  25
ENDBRANCH   1  22
TORSDOF 6
ENDMDL
MODEL 4
REMARK VINA RESULT:      -8.2      0.320      1.194
REMARK  Name = 
REMARK  7 active torsions:
REMARK  status: ('A' for Active; 'I' for Inactive)
REMARK    1  A    between atoms: C_1  and  C_2
REMARK    2  A    between atoms: C_2  and  C_3
REMARK    3  A    between atoms: C_6  and  C_7
REMARK    4  A    between atoms: C_7  and  N_8
REMARK    5  A    between atoms: C_9  and  C_11
REMARK    6  A    between atoms: N_14  and  C_15
REMARK    7  A    between atoms: C_24  and  C_25
REMARK                            x       y       z     vdW  Elec       q    Type
REMARK                         _______ _______ _______ _____ _____    ______ ____
ROOT
ATOM      1  C   UNL     1       0.323  10.124  19.617  0.00  0.00    +0.000 C 
ATOM      2  C   UNL     1       0.401   8.944  20.592  0.00  0.00    +0.000 C 
ATOM      3  C   UNL     1       1.767   8.266  20.557  0.00  0.00    +0.000 C 
ATOM      4  N   UNL     1       2.121   7.916  19.181  0.00  0.00    +0.000 N 
ATOM      5  C   UNL     1       2.166   9.003  18.217  0.00  0.00    +0.000 C 
ATOM      6  C   UNL     1       0.798   9.702  18.212  0.00  0.00    +0.000 C 
ENDROOT
BRANCH   4   7
ATOM      7  C   UNL     1       2.574   6.653  18.850  0.00  0.00    +0.000 A 
ATOM      8  N   UNL     1       1.787   5.642  18.433  0.00  0.00    +0.000 NA
ATOM      9  C   UNL     1       2.340   4.392  18.461  0.00  0.00    +0.000 A 
ATOM     10  C   UNL     1       2.044   3.386  17.547  0.00  0.00    +0.000 A 
ATOM     11  C   UNL     1       2.684   2.143  17.614  0.00  0.00    +0.000 A 
ATOM     12  C   UNL     1       3.477   1.837  18.714  0.00  0.00    +0.000 A 
ATOM     13  C   UNL     1       3.832   2.856  19.587  0.00  0.00    +0.000 A 
ATOM     14  C   UNL     1       3.443   4.152  19.291  0.00  0.00    +0.000 A 
ATOM     15  N   UNL     1       4.241   5.182  19.594  0.00  0.00    +0.000 NA
ATOM     16  C   UNL     1       3.911   6.335  18.935  0.00  0.00    +0.000 A 
BRANCH  16  17
ATOM     17  C   UNL     1       4.537   6.551  17.520  0.00  0.00    +0.000 C 
ATOM     18  F   UNL     1       3.743   7.253  16.646  0.00  0.00    +0.000 F 
ATOM     19  F   UNL     1       5.715   7.234  17.552  0.00  0.00    +0.000 F 
ATOM     20  F   UNL     1       4.799   5.378  16.859  0.00  0.00    +0.000 F 
ENDBRANCH  16  17
ENDBRANCH   4   7
BRANCH   1  22
ATOM     21  N   UNL     1       1.583  12.169  19.164  0.00  0.00    +0.000 N 
ATOM     22  C   UNL     1       1.099  11.327  20.145  0.00  0.00    +0.000 C 
ATOM     23  O   UNL     1       1.307  11.514  21.338  0.00  0.00    +0.000 OA
ATOM     24  H   UNL     1       1.622  11.841  18.209  0.00  0.00    +0.000 HD
BRANCH  21  25
ATOM     25  C   UNL     1       2.382  13.323  19.506  0.00  0.00    +0.000 C 
BRANCH  25  29
ATOM     26  C   UNL     1       0.563  17.041  18.221  0.00  0.00    +0.000 A 
ATOM     27  C   UNL     1      -0.216  16.002  18.743  0.00  0.00    +0.000 A 
ATOM     28  C   UNL     1       0.373  14.795  19.140  0.00  0.00    +0.000 A 
ATOM     29  C   UNL     1       1.742  14.595  19.002  0.00  0.00    +0.000 A 
ATOM     30  C   UNL     1       2.527  15.634  18.464  0.00  0.00    +0.000 A 
ATOM     31  C   UNL     1       1.940  16.838  18.080  0.00  0.00    +0.000 A 
BRANCH  26  33
ATOM     32  C   UNL     1      -1.564  18.345  18.108  0.00  0.00    +0.000 C 
ATOM     33  C   UNL     1      -0.059  18.367  17.877  0.00  0.00    +0.000 C 
ENDBRANCH  26  33
ENDBRANCH  25  29
ENDBRANCH  21  25
ENDBRANCH   1  22
TORSDOF 6
ENDMDL
MODEL 5
REMARK VINA RESULT:      -8.2      3.887      9.631
REMARK  Name = 
REMARK  7 active torsions:
REMARK  status: ('A' for Active; 'I' for Inactive)
REMARK    1  A    between atoms: C_1  and  C_2
REMARK    2  A    between atoms: C_2  and  C_3
REMARK    3  A    between atoms: C_6  and  C_7
REMARK    4  A    between atoms: C_7  and  N_8
REMARK    5  A    between atoms: C_9  and  C_11
REMARK    6  A    between atoms: N_14  and  C_15
REMARK    7  A    between atoms: C_24  and  C_25
REMARK                            x       y       z     vdW  Elec       q    Type
REMARK                         _______ _______ _______ _____ _____    ______ ____
ROOT
ATOM      1  C   UNL     1       2.200   5.641  19.074  0.00  0.00    +0.000 C 
ATOM      2  C   UNL     1       1.707   6.691  18.073  0.00  0.00    +0.000 C 
ATOM      3  C   UNL     1       2.031   8.110  18.530  0.00  0.00    +0.000 C 
ATOM      4  N   UNL     1       1.543   8.324  19.893  0.00  0.00    +0.000 N 
ATOM      5  C   UNL     1       2.045   7.427  20.920  0.00  0.00    +0.000 C 
ATOM      6  C   UNL     1       1.723   5.983  20.500  0.00  0.00    +0.000 C 
ENDROOT
BRANCH   4   7
ATOM      7  C   UNL     1       0.792   9.436  20.226  0.00  0.00    +0.000 A 
ATOM      8  N   UNL     1      -0.114  10.018  19.416  0.00  0.00    +0.000 NA
ATOM      9  C   UNL     1      -0.521  11.275  19.768  0.00  0.00    +0.000 A 
ATOM     10  C   UNL     1      -1.800  11.773  19.542  0.00  0.00    +0.000 A 
ATOM     11  C   UNL     1      -2.159  13.057  19.971  0.00  0.00    +0.000 A 
ATOM     12  C   UNL     1      -1.179  13.918  20.450  0.00  0.00    +0.000 A 
ATOM     13  C   UNL     1       0.078  13.406  20.744  0.00  0.00    +0.000 A 
ATOM     14  C   UNL     1       0.287  12.043  20.616  0.00  0.00    +0.000 A 
ATOM     15  N   UNL     1       1.099  11.402  21.464  0.00  0.00    +0.000 NA
ATOM     16  C   UNL     1       0.932  10.044  21.452  0.00  0.00    +0.000 A 
BRANCH  16  17
ATOM     17  C   UNL     1      -0.161   9.453  22.399  0.00  0.00    +0.000 C 
ATOM     18  F   UNL     1       0.305   9.044  23.624  0.00  0.00    +0.000 F 
ATOM     19  F   UNL     1      -1.163  10.333  22.679  0.00  0.00    +0.000 F 
ATOM     20  F   UNL     1      -0.773   8.336  21.889  0.00  0.00    +0.000 F 
ENDBRANCH  16  17
ENDBRANCH   4   7
BRANCH   1  22
ATOM     21  N   UNL     1       4.243   5.606  17.734  0.00  0.00    +0.000 N 
ATOM     22  C   UNL     1       3.715   5.478  19.002  0.00  0.00    +0.000 C 
ATOM     23  O   UNL     1       4.404   5.220  19.982  0.00  0.00    +0.000 OA
ATOM     24  H   UNL     1       3.626   5.548  16.935  0.00  0.00    +0.000 HD
BRANCH  21  25
ATOM     25  C   UNL     1       5.657   5.424  17.497  0.00  0.00    +0.000 C 
BRANCH  25  29
ATOM     26  C   UNL     1       6.477   4.138  13.441  0.00  0.00    +0.000 A 
ATOM     27  C   UNL     1       7.450   4.806  14.194  0.00  0.00    +0.000 A 
ATOM     28  C   UNL     1       7.175   5.237  15.498  0.00  0.00    +0.000 A 
ATOM     29  C   UNL     1       5.922   5.030  16.064  0.00  0.00    +0.000 A 
ATOM     30  C   UNL     1       4.936   4.370  15.303  0.00  0.00    +0.000 A 
ATOM     31  C   UNL     1       5.216   3.933  14.009  0.00  0.00    +0.000 A 
BRANCH  26  33
ATOM     32  C   UNL     1       5.868   2.460  11.695  0.00  0.00    +0.000 C 
ATOM     33  C   UNL     1       6.803   3.600  12.074  0.00  0.00    +0.000 C 
ENDBRANCH  26  33
ENDBRANCH  25  29
ENDBRANCH  21  25
ENDBRANCH   1  22
TORSDOF 6
ENDMDL
MODEL 6
REMARK VINA RESULT:      -7.8      5.916      7.072
REMARK  Name = 
REMARK  7 active torsions:
REMARK  status: ('A' for Active; 'I' for Inactive)
REMARK    1  A    between atoms: C_1  and  C_2
REMARK    2  A    between atoms: C_2  and  C_3
REMARK    3  A    between atoms: C_6  and  C_7
REMARK    4  A    between atoms: C_7  and  N_8
REMARK    5  A    between atoms: C_9  and  C_11
REMARK    6  A    between atoms: N_14  and  C_15
REMARK    7  A    between atoms: C_24  and  C_25
REMARK                            x       y       z     vdW  Elec       q    Type
REMARK                         _______ _______ _______ _____ _____    ______ ____
ROOT
ATOM      1  C   UNL     1       8.136   7.403  17.665  0.00  0.00    +0.000 C 
ATOM      2  C   UNL     1       6.933   7.148  16.751  0.00  0.00    +0.000 C 
ATOM      3  C   UNL     1       5.622   7.114  17.531  0.00  0.00    +0.000 C 
ATOM      4  N   UNL     1       5.724   6.171  18.645  0.00  0.00    +0.000 N 
ATOM      5  C   UNL     1       6.783   6.407  19.612  0.00  0.00    +0.000 C 
ATOM      6  C   UNL     1       8.125   6.433  18.863  0.00  0.00    +0.000 C 
ENDROOT
BRANCH   4   7
ATOM      7  C   UNL     1       4.751   5.216  18.875  0.00  0.00    +0.000 A 
ATOM      8  N   UNL     1       3.495   5.486  19.281  0.00  0.00    +0.000 NA
ATOM      9  C   UNL     1       2.775   4.429  19.765  0.00  0.00    +0.000 A 
ATOM     10  C   UNL     1       1.399   4.290  19.619  0.00  0.00    +0.000 A 
ATOM     11  C   UNL     1       0.736   3.156  20.104  0.00  0.00    +0.000 A 
ATOM     12  C   UNL     1       1.419   2.253  20.910  0.00  0.00    +0.000 A 
ATOM     13  C   UNL     1       2.801   2.348  20.999  0.00  0.00    +0.000 A 
ATOM     14  C   UNL     1       3.454   3.293  20.225  0.00  0.00    +0.000 A 
ATOM     15  N   UNL     1       4.661   3.030  19.713  0.00  0.00    +0.000 NA
ATOM     16  C   UNL     1       5.017   3.878  18.700  0.00  0.00    +0.000 A 
BRANCH  16  17
ATOM     17  C   UNL     1       4.562   3.492  17.256  0.00  0.00    +0.000 C 
ATOM     18  F   UNL     1       3.775   4.431  16.636  0.00  0.00    +0.000 F 
ATOM     19  F   UNL     1       5.603   3.286  16.401  0.00  0.00    +0.000 F 
ATOM     20  F   UNL     1       3.808   2.347  17.213  0.00  0.00    +0.000 F 
ENDBRANCH  16  17
ENDBRANCH   4   7
BRANCH   1  22
ATOM     21  N   UNL     1       8.985   9.090  19.216  0.00  0.00    +0.000 N 
ATOM     22  C   UNL     1       8.191   8.862  18.111  0.00  0.00    +0.000 C 
ATOM     23  O   UNL     1       7.557   9.751  17.558  0.00  0.00    +0.000 OA
ATOM     24  H   UNL     1       9.265   8.308  19.792  0.00  0.00    +0.000 HD
BRANCH  21  25
ATOM     25  C   UNL     1       9.095  10.413  19.789  0.00  0.00    +0.000 C 
BRANCH  25  29
ATOM     26  C   UNL     1      11.492  13.117  17.398  0.00  0.00    +0.000 A 
ATOM     27  C   UNL     1      10.109  13.294  17.514  0.00  0.00    +0.000 A 
ATOM     28  C   UNL     1       9.335  12.407  18.273  0.00  0.00    +0.000 A 
ATOM     29  C   UNL     1       9.922  11.318  18.907  0.00  0.00    +0.000 A 
ATOM     30  C   UNL     1      11.312  11.129  18.781  0.00  0.00    +0.000 A 
ATOM     31  C   UNL     1      12.082  12.020  18.034  0.00  0.00    +0.000 A 
BRANCH  26  33
ATOM     32  C   UNL     1      12.158  15.519  17.229  0.00  0.00    +0.000 C 
ATOM     33  C   UNL     1      12.333  14.120  16.655  0.00  0.00    +0.000 C 
ENDBRANCH  26  33
ENDBRANCH  25  29
ENDBRANCH  21  25
ENDBRANCH   1  22
TORSDOF 6
ENDMDL
MODEL 7
REMARK VINA RESULT:      -7.7      0.965      1.254
REMARK  Name = 
REMARK  7 active torsions:
REMARK  status: ('A' for Active; 'I' for Inactive)
REMARK    1  A    between atoms: C_1  and  C_2
REMARK    2  A    between atoms: C_2  and  C_3
REMARK    3  A    between atoms: C_6  and  C_7
REMARK    4  A    between atoms: C_7  and  N_8
REMARK    5  A    between atoms: C_9  and  C_11
REMARK    6  A    between atoms: N_14  and  C_15
REMARK    7  A    between atoms: C_24  and  C_25
REMARK                            x       y       z     vdW  Elec       q    Type
REMARK                         _______ _______ _______ _____ _____    ______ ____
ROOT
ATOM      1  C   UNL     1       0.339   9.984  19.488  0.00  0.00    +0.000 C 
ATOM      2  C   UNL     1       0.401   8.812  20.473  0.00  0.00    +0.000 C 
ATOM      3  C   UNL     1       1.775   8.149  20.484  0.00  0.00    +0.000 C 
ATOM      4  N   UNL     1       2.173   7.793  19.122  0.00  0.00    +0.000 N 
ATOM      5  C   UNL     1       2.235   8.873  18.150  0.00  0.00    +0.000 C 
ATOM      6  C   UNL     1       0.859   9.557  18.101  0.00  0.00    +0.000 C 
ENDROOT
BRANCH   4   7
ATOM      7  C   UNL     1       2.650   6.532  18.814  0.00  0.00    +0.000 A 
ATOM      8  N   UNL     1       1.892   5.520  18.351  0.00  0.00    +0.000 NA
ATOM      9  C   UNL     1       2.448   4.272  18.408  0.00  0.00    +0.000 A 
ATOM     10  C   UNL     1       2.208   3.267  17.476  0.00  0.00    +0.000 A 
ATOM     11  C   UNL     1       2.849   2.026  17.576  0.00  0.00    +0.000 A 
ATOM     12  C   UNL     1       3.580   1.721  18.719  0.00  0.00    +0.000 A 
ATOM     13  C   UNL     1       3.881   2.739  19.613  0.00  0.00    +0.000 A 
ATOM     14  C   UNL     1       3.504   4.034  19.297  0.00  0.00    +0.000 A 
ATOM     15  N   UNL     1       4.278   5.067  19.647  0.00  0.00    +0.000 NA
ATOM     16  C   UNL     1       3.981   6.220  18.974  0.00  0.00    +0.000 A 
BRANCH  16  17
ATOM     17  C   UNL     1       4.685   6.442  17.597  0.00  0.00    +0.000 C 
ATOM     18  F   UNL     1       5.624   7.445  17.592  0.00  0.00    +0.000 F 
ATOM     19  F   UNL     1       5.345   5.339  17.146  0.00  0.00    +0.000 F 
ATOM     20  F   UNL     1       3.817   6.797  16.596  0.00  0.00    +0.000 F 
ENDBRANCH  16  17
ENDBRANCH   4   7
BRANCH   1  22
ATOM     21  N   UNL     1       1.602  12.031  19.055  0.00  0.00    +0.000 N 
ATOM     22  C   UNL     1       1.085  11.200  20.029  0.00  0.00    +0.000 C 
ATOM     23  O   UNL     1       1.245  11.405  21.226  0.00  0.00    +0.000 OA
ATOM     24  H   UNL     1       1.682  11.690  18.108  0.00  0.00    +0.000 HD
BRANCH  21  25
ATOM     25  C   UNL     1       2.380  13.196  19.412  0.00  0.00    +0.000 C 
BRANCH  25  29
ATOM     26  C   UNL     1      -0.038  16.778  19.715  0.00  0.00    +0.000 A 
ATOM     27  C   UNL     1       1.012  16.542  20.610  0.00  0.00    +0.000 A 
ATOM     28  C   UNL     1       1.780  15.375  20.520  0.00  0.00    +0.000 A 
ATOM     29  C   UNL     1       1.499  14.414  19.555  0.00  0.00    +0.000 A 
ATOM     30  C   UNL     1       0.433  14.642  18.663  0.00  0.00    +0.000 A 
ATOM     31  C   UNL     1      -0.323  15.810  18.747  0.00  0.00    +0.000 A 
BRANCH  26  33
ATOM     32  C   UNL     1      -2.231  17.884  19.260  0.00  0.00    +0.000 C 
ATOM     33  C   UNL     1      -0.805  18.072  19.759  0.00  0.00    +0.000 C 
ENDBRANCH  26  33
ENDBRANCH  25  29
ENDBRANCH  21  25
ENDBRANCH   1  22
TORSDOF 6
ENDMDL
MODEL 8
REMARK VINA RESULT:      -7.7      0.909      1.507
REMARK  Name = 
REMARK  7 active torsions:
REMARK  status: ('A' for Active; 'I' for Inactive)
REMARK    1  A    between atoms: C_1  and  C_2
REMARK    2  A    between atoms: C_2  and  C_3
REMARK    3  A    between atoms: C_6  and  C_7
REMARK    4  A    between atoms: C_7  and  N_8
REMARK    5  A    between atoms: C_9  and  C_11
REMARK    6  A    between atoms: N_14  and  C_15
REMARK    7  A    between atoms: C_24  and  C_25
REMARK                            x       y       z     vdW  Elec       q    Type
REMARK                         _______ _______ _______ _____ _____    ______ ____
ROOT
ATOM      1  C   UNL     1       0.445  10.019  19.064  0.00  0.00    +0.000 C 
ATOM      2  C   UNL     1       0.663   9.006  20.194  0.00  0.00    +0.000 C 
ATOM      3  C   UNL     1       2.045   8.363  20.123  0.00  0.00    +0.000 C 
ATOM      4  N   UNL     1       2.276   7.812  18.787  0.00  0.00    +0.000 N 
ATOM      5  C   UNL     1       2.185   8.736  17.669  0.00  0.00    +0.000 C 
ATOM      6  C   UNL     1       0.797   9.395  17.699  0.00  0.00    +0.000 C 
ENDROOT
BRANCH   4   7
ATOM      7  C   UNL     1       2.744   6.523  18.607  0.00  0.00    +0.000 A 
ATOM      8  N   UNL     1       2.005   5.500  18.135  0.00  0.00    +0.000 NA
ATOM      9  C   UNL     1       2.516   4.247  18.325  0.00  0.00    +0.000 A 
ATOM     10  C   UNL     1       2.339   3.189  17.439  0.00  0.00    +0.000 A 
ATOM     11  C   UNL     1       2.931   1.943  17.679  0.00  0.00    +0.000 A 
ATOM     12  C   UNL     1       3.538   1.696  18.905  0.00  0.00    +0.000 A 
ATOM     13  C   UNL     1       3.781   2.763  19.759  0.00  0.00    +0.000 A 
ATOM     14  C   UNL     1       3.473   4.043  19.327  0.00  0.00    +0.000 A 
ATOM     15  N   UNL     1       4.240   5.078  19.687  0.00  0.00    +0.000 NA
ATOM     16  C   UNL     1       4.043   6.192  18.916  0.00  0.00    +0.000 A 
BRANCH  16  17
ATOM     17  C   UNL     1       4.883   6.308  17.605  0.00  0.00    +0.000 C 
ATOM     18  F   UNL     1       5.723   7.394  17.559  0.00  0.00    +0.000 F 
ATOM     19  F   UNL     1       5.688   5.231  17.384  0.00  0.00    +0.000 F 
ATOM     20  F   UNL     1       4.113   6.439  16.477  0.00  0.00    +0.000 F 
ENDBRANCH  16  17
ENDBRANCH   4   7
BRANCH   1  22
ATOM     21  N   UNL     1       0.886  11.950  20.495  0.00  0.00    +0.000 N 
ATOM     22  C   UNL     1       1.222  11.307  19.321  0.00  0.00    +0.000 C 
ATOM     23  O   UNL     1       2.048  11.754  18.535  0.00  0.00    +0.000 OA
ATOM     24  H   UNL     1       0.029  11.699  20.967  0.00  0.00    +0.000 HD
BRANCH  21  25
ATOM     25  C   UNL     1       1.498  13.211  20.850  0.00  0.00    +0.000 C 
BRANCH  25  29
ATOM     26  C   UNL     1      -0.106  16.554  18.608  0.00  0.00    +0.000 A 
ATOM     27  C   UNL     1      -0.954  15.667  19.281  0.00  0.00    +0.000 A 
ATOM     28  C   UNL     1      -0.433  14.577  19.990  0.00  0.00    +0.000 A 
ATOM     29  C   UNL     1       0.937  14.340  20.019  0.00  0.00    +0.000 A 
ATOM     30  C   UNL     1       1.792  15.222  19.330  0.00  0.00    +0.000 A 
ATOM     31  C   UNL     1       1.271  16.313  18.634  0.00  0.00    +0.000 A 
BRANCH  26  33
ATOM     32  C   UNL     1      -1.887  18.304  18.650  0.00  0.00    +0.000 C 
ATOM     33  C   UNL     1      -0.661  17.772  17.921  0.00  0.00    +0.000 C 
ENDBRANCH  26  33
ENDBRANCH  25  29
ENDBRANCH  21  25
ENDBRANCH   1  22
TORSDOF 6
ENDMDL
MODEL 9
REMARK VINA RESULT:      -7.7      3.640      9.505
REMARK  Name = 
REMARK  7 active torsions:
REMARK  status: ('A' for Active; 'I' for Inactive)
REMARK    1  A    between atoms: C_1  and  C_2
REMARK    2  A    between atoms: C_2  and  C_3
REMARK    3  A    between atoms: C_6  and  C_7
REMARK    4  A    between atoms: C_7  and  N_8
REMARK    5  A    between atoms: C_9  and  C_11
REMARK    6  A    between atoms: N_14  and  C_15
REMARK    7  A    between atoms: C_24  and  C_25
REMARK                            x       y       z     vdW  Elec       q    Type
REMARK                         _______ _______ _______ _____ _____    ______ ____
ROOT
ATOM      1  C   UNL     1       2.200   5.849  19.040  0.00  0.00    +0.000 C 
ATOM      2  C   UNL     1       1.720   6.763  17.908  0.00  0.00    +0.000 C 
ATOM      3  C   UNL     1       2.036   8.230  18.187  0.00  0.00    +0.000 C 
ATOM      4  N   UNL     1       1.528   8.612  19.506  0.00  0.00    +0.000 N 
ATOM      5  C   UNL     1       2.017   7.852  20.644  0.00  0.00    +0.000 C 
ATOM      6  C   UNL     1       1.703   6.367  20.405  0.00  0.00    +0.000 C 
ENDROOT
BRANCH   4   7
ATOM      7  C   UNL     1       0.772   9.755  19.685  0.00  0.00    +0.000 A 
ATOM      8  N   UNL     1       0.212  10.126  20.852  0.00  0.00    +0.000 NA
ATOM      9  C   UNL     1      -0.755  11.090  20.781  0.00  0.00    +0.000 A 
ATOM     10  C   UNL     1      -0.979  12.046  21.767  0.00  0.00    +0.000 A 
ATOM     11  C   UNL     1      -1.960  13.032  21.603  0.00  0.00    +0.000 A 
ATOM     12  C   UNL     1      -2.852  12.942  20.541  0.00  0.00    +0.000 A 
ATOM     13  C   UNL     1      -2.590  12.038  19.520  0.00  0.00    +0.000 A 
ATOM     14  C   UNL     1      -1.412  11.310  19.564  0.00  0.00    +0.000 A 
ATOM     15  N   UNL     1      -0.765  11.005  18.434  0.00  0.00    +0.000 NA
ATOM     16  C   UNL     1       0.530  10.616  18.639  0.00  0.00    +0.000 A 
BRANCH  16  17
ATOM     17  C   UNL     1       1.612  11.742  18.697  0.00  0.00    +0.000 C 
ATOM     18  F   UNL     1       2.124  11.977  19.949  0.00  0.00    +0.000 F 
ATOM     19  F   UNL     1       2.697  11.485  17.915  0.00  0.00    +0.000 F 
ATOM     20  F   UNL     1       1.141  12.967  18.297  0.00  0.00    +0.000 F 
ENDBRANCH  16  17
ENDBRANCH   4   7
BRANCH   1  22
ATOM     21  N   UNL     1       4.282   5.842  17.762  0.00  0.00    +0.000 N 
ATOM     22  C   UNL     1       3.716   5.682  19.010  0.00  0.00    +0.000 C 
ATOM     23  O   UNL     1       4.374   5.395  20.003  0.00  0.00    +0.000 OA
ATOM     24  H   UNL     1       3.691   5.809  16.944  0.00  0.00    +0.000 HD
BRANCH  21  25
ATOM     25  C   UNL     1       5.703   5.662  17.565  0.00  0.00    +0.000 C 
BRANCH  25  29
ATOM     26  C   UNL     1       6.423   4.045  13.609  0.00  0.00    +0.000 A 
ATOM     27  C   UNL     1       5.350   3.593  14.387  0.00  0.00    +0.000 A 
ATOM     28  C   UNL     1       5.131   4.105  15.672  0.00  0.00    +0.000 A 
ATOM     29  C   UNL     1       5.990   5.056  16.211  0.00  0.00    +0.000 A 
ATOM     30  C   UNL     1       7.079   5.502  15.437  0.00  0.00    +0.000 A 
ATOM     31  C   UNL     1       7.288   4.999  14.154  0.00  0.00    +0.000 A 
BRANCH  26  33
ATOM     32  C   UNL     1       5.360   2.835  11.700  0.00  0.00    +0.000 C 
ATOM     33  C   UNL     1       6.604   3.558  12.197  0.00  0.00    +0.000 C 
ENDBRANCH  26  33
ENDBRANCH  25  29
ENDBRANCH  21  25
ENDBRANCH   1  22
TORSDOF 6
ENDMDL
