MODEL 1
REMARK VINA RESULT:      -7.6      0.000      0.000
REMARK  Name = 
REMARK  4 active torsions:
REMARK  status: ('A' for Active; 'I' for Inactive)
REMARK    1  A    between atoms: C_2  and  C_3
REMARK    2  A    between atoms: C_14  and  O_15
REMARK    3  A    between atoms: O_15  and  C_16
REMARK    4  A    between atoms: C_16  and  C_17
REMARK                            x       y       z     vdW  Elec       q    Type
REMARK                         _______ _______ _______ _____ _____    ______ ____
ROOT
ATOM      1  O   UNL     1       4.213   5.766  16.857  0.00  0.00    +0.000 OA
ATOM      2  C   UNL     1       3.545   5.531  17.863  0.00  0.00    +0.000 C 
ATOM      3  N   UNL     1       2.882   6.538  18.578  0.00  0.00    +0.000 N 
ATOM      4  C   UNL     1       2.362   6.345  19.942  0.00  0.00    +0.000 C 
ATOM      5  C   UNL     1       1.314   7.394  20.402  0.00  0.00    +0.000 C 
ATOM      6  N   UNL     1       1.600   8.747  19.925  0.00  0.00    +0.000 NA
ATOM      7  C   UNL     1       0.549   9.725  20.164  0.00  0.00    +0.000 C 
ATOM      8  C   UNL     1       0.978  10.898  19.268  0.00  0.00    +0.000 C 
ATOM      9  C   UNL     1       1.680  10.212  18.074  0.00  0.00    +0.000 C 
ATOM     10  C   UNL     1       1.768   8.733  18.463  0.00  0.00    +0.000 C 
ATOM     11  C   UNL     1       3.057   7.948  18.169  0.00  0.00    +0.000 C 
ENDROOT
BRANCH   2  12
ATOM     12  C   UNL     1       3.500   4.102  18.284  0.00  0.00    +0.000 A 
ATOM     13  C   UNL     1       2.716   3.210  17.564  0.00  0.00    +0.000 A 
ATOM     14  N   UNL     1       2.764   1.853  17.766  0.00  0.00    +0.000 NA
ATOM     15  C   UNL     1       3.652   1.450  18.689  0.00  0.00    +0.000 A 
ATOM     16  C   UNL     1       4.431   2.339  19.413  0.00  0.00    +0.000 A 
ATOM     17  N   UNL     1       4.371   3.682  19.240  0.00  0.00    +0.000 NA
ENDBRANCH   2  12
BRANCH   8  18
ATOM     18  O   UNL     1      -0.126  11.706  18.836  0.00  0.00    +0.000 OA
BRANCH  18  19
ATOM     19  C   UNL     1      -1.392  11.123  19.186  0.00  0.00    +0.000 C 
BRANCH  19  20
ATOM     20  C   UNL     1      -2.273  10.869  17.981  0.00  0.00    +0.000 A 
ATOM     21  C   UNL     1      -3.519  11.514  17.876  0.00  0.00    +0.000 A 
ATOM     22  C   UNL     1      -4.329  11.337  16.751  0.00  0.00    +0.000 A 
ATOM     23  C   UNL     1      -3.897  10.526  15.702  0.00  0.00    +0.000 A 
ATOM     24  C   UNL     1      -2.655   9.898  15.784  0.00  0.00    +0.000 A 
ATOM     25  C   UNL     1      -1.846  10.073  16.912  0.00  0.00    +0.000 A 
ENDBRANCH  19  20
ENDBRANCH  18  19
ENDBRANCH   8  18
TORSDOF 4
ENDMDL
MODEL 2
REMARK VINA RESULT:      -7.0      3.452      8.789
REMARK  Name = 
REMARK  4 active torsions:
REMARK  status: ('A' for Active; 'I' for Inactive)
REMARK    1  A    between atoms: C_2  and  C_3
REMARK    2  A    between atoms: C_14  and  O_15
REMARK    3  A    between atoms: O_15  and  C_16
REMARK    4  A    between atoms: C_16  and  C_17
REMARK                            x       y       z     vdW  Elec       q    Type
REMARK                         _______ _______ _______ _____ _____    ______ ____
ROOT
ATOM      1  O   UNL     1      -0.483  10.539  23.775  0.00  0.00    +0.000 OA
ATOM      2  C   UNL     1      -0.755  11.136  22.735  0.00  0.00    +0.000 C 
ATOM      3  N   UNL     1      -0.141  10.835  21.511  0.00  0.00    +0.000 N 
ATOM      4  C   UNL     1      -0.197  11.730  20.343  0.00  0.00    +0.000 C 
ATOM      5  C   UNL     1       0.162  11.064  18.986  0.00  0.00    +0.000 C 
ATOM      6  N   UNL     1       1.239  10.079  19.090  0.00  0.00    +0.000 NA
ATOM      7  C   UNL     1       1.478   9.292  17.890  0.00  0.00    +0.000 C 
ATOM      8  C   UNL     1       2.376   8.158  18.410  0.00  0.00    +0.000 C 
ATOM      9  C   UNL     1       1.898   7.948  19.866  0.00  0.00    +0.000 C 
ATOM     10  C   UNL     1       0.907   9.088  20.126  0.00  0.00    +0.000 C 
ATOM     11  C   UNL     1       0.937   9.824  21.475  0.00  0.00    +0.000 C 
ENDROOT
BRANCH   2  12
ATOM     12  C   UNL     1      -1.772  12.218  22.863  0.00  0.00    +0.000 A 
ATOM     13  C   UNL     1      -1.357  13.497  23.211  0.00  0.00    +0.000 A 
ATOM     14  N   UNL     1      -2.195  14.584  23.168  0.00  0.00    +0.000 NA
ATOM     15  C   UNL     1      -3.437  14.323  22.731  0.00  0.00    +0.000 A 
ATOM     16  C   UNL     1      -3.855  13.046  22.388  0.00  0.00    +0.000 A 
ATOM     17  N   UNL     1      -3.043  11.962  22.454  0.00  0.00    +0.000 NA
ENDBRANCH   2  12
BRANCH   8  18
ATOM     18  O   UNL     1       2.262   6.954  17.640  0.00  0.00    +0.000 OA
BRANCH  18  19
ATOM     19  C   UNL     1       3.235   5.971  18.026  0.00  0.00    +0.000 C 
BRANCH  19  20
ATOM     20  C   UNL     1       2.621   4.614  18.300  0.00  0.00    +0.000 A 
ATOM     21  C   UNL     1       1.667   4.472  19.325  0.00  0.00    +0.000 A 
ATOM     22  C   UNL     1       1.047   3.242  19.565  0.00  0.00    +0.000 A 
ATOM     23  C   UNL     1       1.356   2.139  18.771  0.00  0.00    +0.000 A 
ATOM     24  C   UNL     1       2.283   2.272  17.738  0.00  0.00    +0.000 A 
ATOM     25  C   UNL     1       2.906   3.502  17.500  0.00  0.00    +0.000 A 
ENDBRANCH  19  20
ENDBRANCH  18  19
ENDBRANCH   8  18
TORSDOF 4
ENDMDL
MODEL 3
REMARK VINA RESULT:      -7.0      3.424      8.557
REMARK  Name = 
REMARK  4 active torsions:
REMARK  status: ('A' for Active; 'I' for Inactive)
REMARK    1  A    between atoms: C_2  and  C_3
REMARK    2  A    between atoms: C_14  and  O_15
REMARK    3  A    between atoms: O_15  and  C_16
REMARK    4  A    between atoms: C_16  and  C_17
REMARK                            x       y       z     vdW  Elec       q    Type
REMARK                         _______ _______ _______ _____ _____    ______ ____
ROOT
ATOM      1  O   UNL     1       1.519  10.050  18.761  0.00  0.00    +0.000 OA
ATOM      2  C   UNL     1       1.443   9.116  19.557  0.00  0.00    +0.000 C 
ATOM      3  N   UNL     1       1.986   7.851  19.289  0.00  0.00    +0.000 N 
ATOM      4  C   UNL     1       1.631   6.646  20.057  0.00  0.00    +0.000 C 
ATOM      5  C   UNL     1       2.616   5.455  19.905  0.00  0.00    +0.000 C 
ATOM      6  N   UNL     1       3.154   5.316  18.552  0.00  0.00    +0.000 NA
ATOM      7  C   UNL     1       4.225   4.341  18.406  0.00  0.00    +0.000 C 
ATOM      8  C   UNL     1       4.793   4.677  17.018  0.00  0.00    +0.000 C 
ATOM      9  C   UNL     1       4.582   6.204  16.893  0.00  0.00    +0.000 C 
ATOM     10  C   UNL     1       3.751   6.591  18.121  0.00  0.00    +0.000 C 
ATOM     11  C   UNL     1       2.597   7.595  17.967  0.00  0.00    +0.000 C 
ENDROOT
BRANCH   2  12
ATOM     12  C   UNL     1       0.718   9.412  20.825  0.00  0.00    +0.000 A 
ATOM     13  C   UNL     1       1.355   9.182  22.037  0.00  0.00    +0.000 A 
ATOM     14  N   UNL     1       0.835   9.600  23.237  0.00  0.00    +0.000 NA
ATOM     15  C   UNL     1      -0.320  10.279  23.147  0.00  0.00    +0.000 A 
ATOM     16  C   UNL     1      -0.961  10.504  21.939  0.00  0.00    +0.000 A 
ATOM     17  N   UNL     1      -0.469  10.072  20.752  0.00  0.00    +0.000 NA
ENDBRANCH   2  12
BRANCH   8  18
ATOM     18  O   UNL     1       6.175   4.322  16.877  0.00  0.00    +0.000 OA
BRANCH  18  19
ATOM     19  C   UNL     1       6.884   5.238  16.027  0.00  0.00    +0.000 C 
BRANCH  19  20
ATOM     20  C   UNL     1       6.856   4.827  14.570  0.00  0.00    +0.000 A 
ATOM     21  C   UNL     1       7.740   5.430  13.656  0.00  0.00    +0.000 A 
ATOM     22  C   UNL     1       7.770   5.032  12.316  0.00  0.00    +0.000 A 
ATOM     23  C   UNL     1       6.932   4.011  11.873  0.00  0.00    +0.000 A 
ATOM     24  C   UNL     1       6.067   3.390  12.773  0.00  0.00    +0.000 A 
ATOM     25  C   UNL     1       6.034   3.791  14.113  0.00  0.00    +0.000 A 
ENDBRANCH  19  20
ENDBRANCH  18  19
ENDBRANCH   8  18
TORSDOF 4
ENDMDL
MODEL 4
REMARK VINA RESULT:      -6.9      3.450      8.958
REMARK  Name = 
REMARK  4 active torsions:
REMARK  status: ('A' for Active; 'I' for Inactive)
REMARK    1  A    between atoms: C_2  and  C_3
REMARK    2  A    between atoms: C_14  and  O_15
REMARK    3  A    between atoms: O_15  and  C_16
REMARK    4  A    between atoms: C_16  and  C_17
REMARK                            x       y       z     vdW  Elec       q    Type
REMARK                         _______ _______ _______ _____ _____    ______ ____
ROOT
ATOM      1  O   UNL     1      -0.528  10.740  23.574  0.00  0.00    +0.000 OA
ATOM      2  C   UNL     1      -0.649  11.357  22.517  0.00  0.00    +0.000 C 
ATOM      3  N   UNL     1       0.020  10.979  21.344  0.00  0.00    +0.000 N 
ATOM      4  C   UNL     1       0.157  11.867  20.177  0.00  0.00    +0.000 C 
ATOM      5  C   UNL     1       0.542  11.156  18.851  0.00  0.00    +0.000 C 
ATOM      6  N   UNL     1       1.489  10.056  19.036  0.00  0.00    +0.000 NA
ATOM      7  C   UNL     1       1.729   9.238  17.857  0.00  0.00    +0.000 C 
ATOM      8  C   UNL     1       2.450   8.014  18.443  0.00  0.00    +0.000 C 
ATOM      9  C   UNL     1       1.840   7.869  19.857  0.00  0.00    +0.000 C 
ATOM     10  C   UNL     1       0.968   9.115  20.041  0.00  0.00    +0.000 C 
ATOM     11  C   UNL     1       0.976   9.852  21.390  0.00  0.00    +0.000 C 
ENDROOT
BRANCH   2  12
ATOM     12  C   UNL     1      -1.544  12.548  22.568  0.00  0.00    +0.000 A 
ATOM     13  C   UNL     1      -2.880  12.404  22.218  0.00  0.00    +0.000 A 
ATOM     14  N   UNL     1      -3.806  13.398  22.416  0.00  0.00    +0.000 NA
ATOM     15  C   UNL     1      -3.331  14.506  23.006  0.00  0.00    +0.000 A 
ATOM     16  C   UNL     1      -1.997  14.653  23.352  0.00  0.00    +0.000 A 
ATOM     17  N   UNL     1      -1.068  13.689  23.135  0.00  0.00    +0.000 NA
ENDBRANCH   2  12
BRANCH   8  18
ATOM     18  O   UNL     1       2.260   6.825  17.664  0.00  0.00    +0.000 OA
BRANCH  18  19
ATOM     19  C   UNL     1       3.364   5.914  17.791  0.00  0.00    +0.000 C 
BRANCH  19  20
ATOM     20  C   UNL     1       2.920   4.482  18.004  0.00  0.00    +0.000 A 
ATOM     21  C   UNL     1       3.877   3.451  18.045  0.00  0.00    +0.000 A 
ATOM     22  C   UNL     1       3.499   2.128  18.291  0.00  0.00    +0.000 A 
ATOM     23  C   UNL     1       2.159   1.817  18.520  0.00  0.00    +0.000 A 
ATOM     24  C   UNL     1       1.204   2.832  18.503  0.00  0.00    +0.000 A 
ATOM     25  C   UNL     1       1.582   4.156  18.253  0.00  0.00    +0.000 A 
ENDBRANCH  19  20
ENDBRANCH  18  19
ENDBRANCH   8  18
TORSDOF 4
ENDMDL
MODEL 5
REMARK VINA RESULT:      -6.9      3.498      9.010
REMARK  Name = 
REMARK  4 active torsions:
REMARK  status: ('A' for Active; 'I' for Inactive)
REMARK    1  A    between atoms: C_2  and  C_3
REMARK    2  A    between atoms: C_14  and  O_15
REMARK    3  A    between atoms: O_15  and  C_16
REMARK    4  A    between atoms: C_16  and  C_17
REMARK                            x       y       z     vdW  Elec       q    Type
REMARK                         _______ _______ _______ _____ _____    ______ ____
ROOT
ATOM      1  O   UNL     1      -0.821  11.711  23.367  0.00  0.00    +0.000 OA
ATOM      2  C   UNL     1      -1.192  12.031  22.238  0.00  0.00    +0.000 C 
ATOM      3  N   UNL     1      -0.580  11.537  21.077  0.00  0.00    +0.000 N 
ATOM      4  C   UNL     1      -0.775  12.141  19.749  0.00  0.00    +0.000 C 
ATOM      5  C   UNL     1      -0.376  11.237  18.550  0.00  0.00    +0.000 C 
ATOM      6  N   UNL     1       0.814  10.425  18.806  0.00  0.00    +0.000 NA
ATOM      7  C   UNL     1       1.112   9.424  17.793  0.00  0.00    +0.000 C 
ATOM      8  C   UNL     1       2.154   8.540  18.497  0.00  0.00    +0.000 C 
ATOM      9  C   UNL     1       1.745   8.604  19.987  0.00  0.00    +0.000 C 
ATOM     10  C   UNL     1       0.632   9.656  20.047  0.00  0.00    +0.000 C 
ATOM     11  C   UNL     1       0.611  10.669  21.203  0.00  0.00    +0.000 C 
ENDROOT
BRANCH   2  12
ATOM     12  C   UNL     1      -2.327  12.994  22.185  0.00  0.00    +0.000 A 
ATOM     13  C   UNL     1      -3.624  12.519  22.330  0.00  0.00    +0.000 A 
ATOM     14  N   UNL     1      -4.704  13.352  22.480  0.00  0.00    +0.000 NA
ATOM     15  C   UNL     1      -4.409  14.661  22.511  0.00  0.00    +0.000 A 
ATOM     16  C   UNL     1      -3.116  15.138  22.361  0.00  0.00    +0.000 A 
ATOM     17  N   UNL     1      -2.046  14.325  22.184  0.00  0.00    +0.000 NA
ENDBRANCH   2  12
BRANCH   8  18
ATOM     18  O   UNL     1       2.165   7.191  18.011  0.00  0.00    +0.000 OA
BRANCH  18  19
ATOM     19  C   UNL     1       2.917   6.315  18.866  0.00  0.00    +0.000 C 
BRANCH  19  20
ATOM     20  C   UNL     1       2.158   5.054  19.226  0.00  0.00    +0.000 A 
ATOM     21  C   UNL     1       1.765   4.160  18.213  0.00  0.00    +0.000 A 
ATOM     22  C   UNL     1       1.109   2.965  18.523  0.00  0.00    +0.000 A 
ATOM     23  C   UNL     1       0.853   2.635  19.853  0.00  0.00    +0.000 A 
ATOM     24  C   UNL     1       1.257   3.502  20.867  0.00  0.00    +0.000 A 
ATOM     25  C   UNL     1       1.910   4.699  20.557  0.00  0.00    +0.000 A 
ENDBRANCH  19  20
ENDBRANCH  18  19
ENDBRANCH   8  18
TORSDOF 4
ENDMDL
MODEL 6
REMARK VINA RESULT:      -6.9      2.945      4.128
REMARK  Name = 
REMARK  4 active torsions:
REMARK  status: ('A' for Active; 'I' for Inactive)
REMARK    1  A    between atoms: C_2  and  C_3
REMARK    2  A    between atoms: C_14  and  O_15
REMARK    3  A    between atoms: O_15  and  C_16
REMARK    4  A    between atoms: C_16  and  C_17
REMARK                            x       y       z     vdW  Elec       q    Type
REMARK                         _______ _______ _______ _____ _____    ______ ____
ROOT
ATOM      1  O   UNL     1       4.259   4.549  19.425  0.00  0.00    +0.000 OA
ATOM      2  C   UNL     1       4.188   5.458  18.599  0.00  0.00    +0.000 C 
ATOM      3  N   UNL     1       3.262   6.505  18.710  0.00  0.00    +0.000 N 
ATOM      4  C   UNL     1       2.931   7.406  17.594  0.00  0.00    +0.000 C 
ATOM      5  C   UNL     1       2.230   8.730  18.002  0.00  0.00    +0.000 C 
ATOM      6  N   UNL     1       1.280   8.568  19.103  0.00  0.00    +0.000 NA
ATOM      7  C   UNL     1       0.745   9.806  19.649  0.00  0.00    +0.000 C 
ATOM      8  C   UNL     1       0.094   9.337  20.960  0.00  0.00    +0.000 C 
ATOM      9  C   UNL     1       0.983   8.154  21.409  0.00  0.00    +0.000 C 
ATOM     10  C   UNL     1       1.947   7.917  20.242  0.00  0.00    +0.000 C 
ATOM     11  C   UNL     1       2.272   6.479  19.808  0.00  0.00    +0.000 C 
ENDROOT
BRANCH   2  12
ATOM     12  C   UNL     1       5.142   5.364  17.458  0.00  0.00    +0.000 A 
ATOM     13  C   UNL     1       6.386   5.970  17.567  0.00  0.00    +0.000 A 
ATOM     14  N   UNL     1       7.387   5.775  16.648  0.00  0.00    +0.000 NA
ATOM     15  C   UNL     1       7.084   4.926  15.653  0.00  0.00    +0.000 A 
ATOM     16  C   UNL     1       5.840   4.324  15.539  0.00  0.00    +0.000 A 
ATOM     17  N   UNL     1       4.836   4.532  16.427  0.00  0.00    +0.000 NA
ENDBRANCH   2  12
BRANCH   8  18
ATOM     18  O   UNL     1       0.041  10.364  21.959  0.00  0.00    +0.000 OA
BRANCH  18  19
ATOM     19  C   UNL     1      -0.367  11.629  21.412  0.00  0.00    +0.000 C 
BRANCH  19  20
ATOM     20  C   UNL     1      -1.740  12.056  21.884  0.00  0.00    +0.000 A 
ATOM     21  C   UNL     1      -2.097  11.895  23.236  0.00  0.00    +0.000 A 
ATOM     22  C   UNL     1      -3.340  12.328  23.708  0.00  0.00    +0.000 A 
ATOM     23  C   UNL     1      -4.239  12.946  22.840  0.00  0.00    +0.000 A 
ATOM     24  C   UNL     1      -3.889  13.131  21.503  0.00  0.00    +0.000 A 
ATOM     25  C   UNL     1      -2.646  12.694  21.030  0.00  0.00    +0.000 A 
ENDBRANCH  19  20
ENDBRANCH  18  19
ENDBRANCH   8  18
TORSDOF 4
ENDMDL
MODEL 7
REMARK VINA RESULT:      -6.8      3.132      4.501
REMARK  Name = 
REMARK  4 active torsions:
REMARK  status: ('A' for Active; 'I' for Inactive)
REMARK    1  A    between atoms: C_2  and  C_3
REMARK    2  A    between atoms: C_14  and  O_15
REMARK    3  A    between atoms: O_15  and  C_16
REMARK    4  A    between atoms: C_16  and  C_17
REMARK                            x       y       z     vdW  Elec       q    Type
REMARK                         _______ _______ _______ _____ _____    ______ ____
ROOT
ATOM      1  O   UNL     1       4.041   4.916  19.579  0.00  0.00    +0.000 OA
ATOM      2  C   UNL     1       3.982   5.794  18.719  0.00  0.00    +0.000 C 
ATOM      3  N   UNL     1       3.102   6.882  18.813  0.00  0.00    +0.000 N 
ATOM      4  C   UNL     1       2.775   7.751  17.671  0.00  0.00    +0.000 C 
ATOM      5  C   UNL     1       2.140   9.118  18.045  0.00  0.00    +0.000 C 
ATOM      6  N   UNL     1       1.218   9.039  19.178  0.00  0.00    +0.000 NA
ATOM      7  C   UNL     1       0.748  10.319  19.688  0.00  0.00    +0.000 C 
ATOM      8  C   UNL     1       0.119   9.928  21.035  0.00  0.00    +0.000 C 
ATOM      9  C   UNL     1       0.973   8.728  21.506  0.00  0.00    +0.000 C 
ATOM     10  C   UNL     1       1.892   8.407  20.323  0.00  0.00    +0.000 C 
ATOM     11  C   UNL     1       2.145   6.940  19.939  0.00  0.00    +0.000 C 
ENDROOT
BRANCH   2  12
ATOM     12  C   UNL     1       4.897   5.616  17.556  0.00  0.00    +0.000 A 
ATOM     13  C   UNL     1       6.091   6.324  17.523  0.00  0.00    +0.000 A 
ATOM     14  N   UNL     1       7.069   6.081  16.591  0.00  0.00    +0.000 NA
ATOM     15  C   UNL     1       6.800   5.082  15.736  0.00  0.00    +0.000 A 
ATOM     16  C   UNL     1       5.606   4.377  15.764  0.00  0.00    +0.000 A 
ATOM     17  N   UNL     1       4.623   4.629  16.663  0.00  0.00    +0.000 NA
ENDBRANCH   2  12
BRANCH   8  18
ATOM     18  O   UNL     1       0.137  10.996  21.992  0.00  0.00    +0.000 OA
BRANCH  18  19
ATOM     19  C   UNL     1      -0.963  10.916  22.912  0.00  0.00    +0.000 C 
BRANCH  19  20
ATOM     20  C   UNL     1      -1.734  12.215  23.019  0.00  0.00    +0.000 A 
ATOM     21  C   UNL     1      -1.042  13.426  23.209  0.00  0.00    +0.000 A 
ATOM     22  C   UNL     1      -1.725  14.644  23.260  0.00  0.00    +0.000 A 
ATOM     23  C   UNL     1      -3.109  14.674  23.102  0.00  0.00    +0.000 A 
ATOM     24  C   UNL     1      -3.804  13.485  22.891  0.00  0.00    +0.000 A 
ATOM     25  C   UNL     1      -3.121  12.264  22.843  0.00  0.00    +0.000 A 
ENDBRANCH  19  20
ENDBRANCH  18  19
ENDBRANCH   8  18
TORSDOF 4
ENDMDL
MODEL 8
REMARK VINA RESULT:      -6.8      2.899      3.899
REMARK  Name = 
REMARK  4 active torsions:
REMARK  status: ('A' for Active; 'I' for Inactive)
REMARK    1  A    between atoms: C_2  and  C_3
REMARK    2  A    between atoms: C_14  and  O_15
REMARK    3  A    between atoms: O_15  and  C_16
REMARK    4  A    between atoms: C_16  and  C_17
REMARK                            x       y       z     vdW  Elec       q    Type
REMARK                         _______ _______ _______ _____ _____    ______ ____
ROOT
ATOM      1  O   UNL     1       3.377   4.625  20.147  0.00  0.00    +0.000 OA
ATOM      2  C   UNL     1       3.479   5.490  19.279  0.00  0.00    +0.000 C 
ATOM      3  N   UNL     1       2.735   6.678  19.309  0.00  0.00    +0.000 N 
ATOM      4  C   UNL     1       2.588   7.564  18.142  0.00  0.00    +0.000 C 
ATOM      5  C   UNL     1       2.102   9.003  18.465  0.00  0.00    +0.000 C 
ATOM      6  N   UNL     1       1.109   9.054  19.538  0.00  0.00    +0.000 NA
ATOM      7  C   UNL     1       0.769  10.388  20.008  0.00  0.00    +0.000 C 
ATOM      8  C   UNL     1       0.015  10.098  21.315  0.00  0.00    +0.000 C 
ATOM      9  C   UNL     1       0.684   8.810  21.849  0.00  0.00    +0.000 C 
ATOM     10  C   UNL     1       1.629   8.361  20.728  0.00  0.00    +0.000 C 
ATOM     11  C   UNL     1       1.724   6.869  20.372  0.00  0.00    +0.000 C 
ENDROOT
BRANCH   2  12
ATOM     12  C   UNL     1       4.436   5.185  18.178  0.00  0.00    +0.000 A 
ATOM     13  C   UNL     1       5.780   5.488  18.349  0.00  0.00    +0.000 A 
ATOM     14  N   UNL     1       6.749   5.073  17.469  0.00  0.00    +0.000 NA
ATOM     15  C   UNL     1       6.304   4.321  16.451  0.00  0.00    +0.000 A 
ATOM     16  C   UNL     1       4.962   4.022  16.275  0.00  0.00    +0.000 A 
ATOM     17  N   UNL     1       3.994   4.450  17.122  0.00  0.00    +0.000 NA
ENDBRANCH   2  12
BRANCH   8  18
ATOM     18  O   UNL     1       0.104  11.170  22.263  0.00  0.00    +0.000 OA
BRANCH  18  19
ATOM     19  C   UNL     1      -0.381  12.410  21.724  0.00  0.00    +0.000 C 
BRANCH  19  20
ATOM     20  C   UNL     1      -1.866  12.606  21.949  0.00  0.00    +0.000 A 
ATOM     21  C   UNL     1      -2.707  12.898  20.859  0.00  0.00    +0.000 A 
ATOM     22  C   UNL     1      -4.087  13.033  21.031  0.00  0.00    +0.000 A 
ATOM     23  C   UNL     1      -4.653  12.859  22.293  0.00  0.00    +0.000 A 
ATOM     24  C   UNL     1      -3.833  12.548  23.378  0.00  0.00    +0.000 A 
ATOM     25  C   UNL     1      -2.451  12.416  23.206  0.00  0.00    +0.000 A 
ENDBRANCH  19  20
ENDBRANCH  18  19
ENDBRANCH   8  18
TORSDOF 4
ENDMDL
MODEL 9
REMARK VINA RESULT:      -6.7      0.882      1.550
REMARK  Name = 
REMARK  4 active torsions:
REMARK  status: ('A' for Active; 'I' for Inactive)
REMARK    1  A    between atoms: C_2  and  C_3
REMARK    2  A    between atoms: C_14  and  O_15
REMARK    3  A    between atoms: O_15  and  C_16
REMARK    4  A    between atoms: C_16  and  C_17
REMARK                            x       y       z     vdW  Elec       q    Type
REMARK                         _______ _______ _______ _____ _____    ______ ____
ROOT
ATOM      1  O   UNL     1       4.048   6.275  16.829  0.00  0.00    +0.000 OA
ATOM      2  C   UNL     1       3.514   5.869  17.860  0.00  0.00    +0.000 C 
ATOM      3  N   UNL     1       2.816   6.718  18.731  0.00  0.00    +0.000 N 
ATOM      4  C   UNL     1       2.459   6.338  20.108  0.00  0.00    +0.000 C 
ATOM      5  C   UNL     1       1.349   7.205  20.764  0.00  0.00    +0.000 C 
ATOM      6  N   UNL     1       1.432   8.621  20.405  0.00  0.00    +0.000 NA
ATOM      7  C   UNL     1       0.307   9.437  20.835  0.00  0.00    +0.000 C 
ATOM      8  C   UNL     1       0.509  10.731  20.030  0.00  0.00    +0.000 C 
ATOM      9  C   UNL     1       1.163  10.248  18.714  0.00  0.00    +0.000 C 
ATOM     10  C   UNL     1       1.456   8.761  18.940  0.00  0.00    +0.000 C 
ATOM     11  C   UNL     1       2.789   8.170  18.455  0.00  0.00    +0.000 C 
ENDROOT
BRANCH   2  12
ATOM     12  C   UNL     1       3.672   4.413  18.134  0.00  0.00    +0.000 A 
ATOM     13  C   UNL     1       4.663   3.994  19.013  0.00  0.00    +0.000 A 
ATOM     14  N   UNL     1       4.754   2.700  19.462  0.00  0.00    +0.000 NA
ATOM     15  C   UNL     1       3.793   1.877  19.015  0.00  0.00    +0.000 A 
ATOM     16  C   UNL     1       2.807   2.291  18.133  0.00  0.00    +0.000 A 
ATOM     17  N   UNL     1       2.724   3.559  17.663  0.00  0.00    +0.000 NA
ENDBRANCH   2  12
BRANCH   8  18
ATOM     18  O   UNL     1      -0.716  11.434  19.782  0.00  0.00    +0.000 OA
BRANCH  18  19
ATOM     19  C   UNL     1      -0.874  11.771  18.395  0.00  0.00    +0.000 C 
BRANCH  19  20
ATOM     20  C   UNL     1      -2.302  11.618  17.914  0.00  0.00    +0.000 A 
ATOM     21  C   UNL     1      -2.556  11.128  16.619  0.00  0.00    +0.000 A 
ATOM     22  C   UNL     1      -3.865  10.929  16.170  0.00  0.00    +0.000 A 
ATOM     23  C   UNL     1      -4.941  11.198  17.014  0.00  0.00    +0.000 A 
ATOM     24  C   UNL     1      -4.702  11.663  18.306  0.00  0.00    +0.000 A 
ATOM     25  C   UNL     1      -3.392  11.866  18.755  0.00  0.00    +0.000 A 
ENDBRANCH  19  20
ENDBRANCH  18  19
ENDBRANCH   8  18
TORSDOF 4
ENDMDL
