MODEL 1
REMARK VINA RESULT:      -7.4      0.000      0.000
REMARK  Name = 
REMARK  3 active torsions:
REMARK  status: ('A' for Active; 'I' for Inactive)
REMARK    1  A    between atoms: C_2  and  C_4
REMARK    2  A    between atoms: N_11  and  C_12
REMARK    3  A    between atoms: C_12  and  C_13
REMARK                            x       y       z     vdW  Elec       q    Type
REMARK                         _______ _______ _______ _____ _____    ______ ____
ROOT
ATOM      1  C   UNL     1       6.723   5.325  17.811  0.00  0.00    +0.000 A 
ATOM      2  C   UNL     1       7.244   4.986  16.546  0.00  0.00    +0.000 A 
ATOM      3  C   UNL     1       6.468   4.301  15.615  0.00  0.00    +0.000 A 
ATOM      4  C   UNL     1       5.167   3.940  15.945  0.00  0.00    +0.000 A 
ATOM      5  C   UNL     1       4.654   4.284  17.204  0.00  0.00    +0.000 A 
ATOM      6  C   UNL     1       3.284   3.933  17.575  0.00  0.00    +0.000 A 
ATOM      7  O   UNL     1       2.565   3.329  16.786  0.00  0.00    +0.000 OA
ATOM      8  N   UNL     1       2.890   4.337  18.833  0.00  0.00    +0.000 N 
ATOM      9  N   UNL     1       3.695   5.006  19.702  0.00  0.00    +0.000 NA
ATOM     10  N   UNL     1       4.871   5.299  19.409  0.00  0.00    +0.000 NA
ATOM     11  C   UNL     1       5.402   4.973  18.151  0.00  0.00    +0.000 A 
ENDROOT
BRANCH   1  13
ATOM     12  N   UNL     1       7.985   5.437  19.916  0.00  0.00    +0.000 N 
ATOM     13  C   UNL     1       7.650   6.036  18.736  0.00  0.00    +0.000 C 
ATOM     14  O   UNL     1       8.089   7.145  18.458  0.00  0.00    +0.000 OA
ATOM     15  H   UNL     1       8.671   5.901  20.496  0.00  0.00    +0.000 HD
ATOM     16  H   UNL     1       7.723   4.488  20.145  0.00  0.00    +0.000 HD
ENDBRANCH   1  13
BRANCH   8  17
ATOM     17  C   UNL     1       1.530   4.080  19.294  0.00  0.00    +0.000 C 
BRANCH  17  18
ATOM     18  C   UNL     1       1.340   4.234  20.801  0.00  0.00    +0.000 C 
ATOM     19 CL   UNL     1       1.460   2.672  21.648  0.00  0.00    +0.000 Cl
ENDBRANCH  17  18
ENDBRANCH   8  17
TORSDOF 3
ENDMDL
MODEL 2
REMARK VINA RESULT:      -7.0      3.438      5.257
REMARK  Name = 
REMARK  3 active torsions:
REMARK  status: ('A' for Active; 'I' for Inactive)
REMARK    1  A    between atoms: C_2  and  C_4
REMARK    2  A    between atoms: N_11  and  C_12
REMARK    3  A    between atoms: C_12  and  C_13
REMARK                            x       y       z     vdW  Elec       q    Type
REMARK                         _______ _______ _______ _____ _____    ______ ____
ROOT
ATOM      1  C   UNL     1       3.627   3.336  19.596  0.00  0.00    +0.000 A 
ATOM      2  C   UNL     1       2.254   3.355  19.274  0.00  0.00    +0.000 A 
ATOM      3  C   UNL     1       1.745   4.290  18.376  0.00  0.00    +0.000 A 
ATOM      4  C   UNL     1       2.603   5.217  17.798  0.00  0.00    +0.000 A 
ATOM      5  C   UNL     1       3.967   5.190  18.118  0.00  0.00    +0.000 A 
ATOM      6  C   UNL     1       4.898   6.142  17.515  0.00  0.00    +0.000 A 
ATOM      7  O   UNL     1       4.493   6.983  16.718  0.00  0.00    +0.000 OA
ATOM      8  N   UNL     1       6.216   6.006  17.898  0.00  0.00    +0.000 N 
ATOM      9  N   UNL     1       6.656   5.071  18.783  0.00  0.00    +0.000 NA
ATOM     10  N   UNL     1       5.874   4.262  19.320  0.00  0.00    +0.000 NA
ATOM     11  C   UNL     1       4.506   4.265  19.006  0.00  0.00    +0.000 A 
ENDROOT
BRANCH   1  13
ATOM     12  N   UNL     1       5.138   1.529  20.294  0.00  0.00    +0.000 N 
ATOM     13  C   UNL     1       4.056   2.310  20.586  0.00  0.00    +0.000 C 
ATOM     14  O   UNL     1       3.442   2.150  21.635  0.00  0.00    +0.000 OA
ATOM     15  H   UNL     1       5.458   0.890  21.009  0.00  0.00    +0.000 HD
ATOM     16  H   UNL     1       5.729   1.687  19.489  0.00  0.00    +0.000 HD
ENDBRANCH   1  13
BRANCH   8  17
ATOM     17  C   UNL     1       7.239   6.874  17.326  0.00  0.00    +0.000 C 
BRANCH  17  18
ATOM     18  C   UNL     1       8.166   7.512  18.358  0.00  0.00    +0.000 C 
ATOM     19 CL   UNL     1       8.340   9.266  18.098  0.00  0.00    +0.000 Cl
ENDBRANCH  17  18
ENDBRANCH   8  17
TORSDOF 3
ENDMDL
MODEL 3
REMARK VINA RESULT:      -6.8      1.019      1.063
REMARK  Name = 
REMARK  3 active torsions:
REMARK  status: ('A' for Active; 'I' for Inactive)
REMARK    1  A    between atoms: C_2  and  C_4
REMARK    2  A    between atoms: N_11  and  C_12
REMARK    3  A    between atoms: C_12  and  C_13
REMARK                            x       y       z     vdW  Elec       q    Type
REMARK                         _______ _______ _______ _____ _____    ______ ____
ROOT
ATOM      1  C   UNL     1       6.752   5.479  17.765  0.00  0.00    +0.000 A 
ATOM      2  C   UNL     1       6.971   5.755  16.399  0.00  0.00    +0.000 A 
ATOM      3  C   UNL     1       6.105   5.265  15.425  0.00  0.00    +0.000 A 
ATOM      4  C   UNL     1       5.019   4.488  15.806  0.00  0.00    +0.000 A 
ATOM      5  C   UNL     1       4.804   4.221  17.166  0.00  0.00    +0.000 A 
ATOM      6  C   UNL     1       3.661   3.420  17.600  0.00  0.00    +0.000 A 
ATOM      7  O   UNL     1       2.873   2.968  16.775  0.00  0.00    +0.000 OA
ATOM      8  N   UNL     1       3.549   3.238  18.963  0.00  0.00    +0.000 N 
ATOM      9  N   UNL     1       4.428   3.743  19.870  0.00  0.00    +0.000 NA
ATOM     10  N   UNL     1       5.418   4.414  19.517  0.00  0.00    +0.000 NA
ATOM     11  C   UNL     1       5.647   4.702  18.162  0.00  0.00    +0.000 A 
ENDROOT
BRANCH   1  13
ATOM     12  N   UNL     1       8.184   5.246  19.747  0.00  0.00    +0.000 N 
ATOM     13  C   UNL     1       7.754   6.033  18.717  0.00  0.00    +0.000 C 
ATOM     14  O   UNL     1       8.172   7.179  18.598  0.00  0.00    +0.000 OA
ATOM     15  H   UNL     1       8.918   5.612  20.339  0.00  0.00    +0.000 HD
ATOM     16  H   UNL     1       7.940   4.268  19.831  0.00  0.00    +0.000 HD
ENDBRANCH   1  13
BRANCH   8  17
ATOM     17  C   UNL     1       2.422   2.493  19.513  0.00  0.00    +0.000 C 
BRANCH  17  18
ATOM     18  C   UNL     1       1.118   3.284  19.574  0.00  0.00    +0.000 C 
ATOM     19 CL   UNL     1       1.270   4.734  20.598  0.00  0.00    +0.000 Cl
ENDBRANCH  17  18
ENDBRANCH   8  17
TORSDOF 3
ENDMDL
MODEL 4
REMARK VINA RESULT:      -6.7      3.362      5.909
REMARK  Name = 
REMARK  3 active torsions:
REMARK  status: ('A' for Active; 'I' for Inactive)
REMARK    1  A    between atoms: C_2  and  C_4
REMARK    2  A    between atoms: N_11  and  C_12
REMARK    3  A    between atoms: C_12  and  C_13
REMARK                            x       y       z     vdW  Elec       q    Type
REMARK                         _______ _______ _______ _____ _____    ______ ____
ROOT
ATOM      1  C   UNL     1       1.945   3.774  18.984  0.00  0.00    +0.000 A 
ATOM      2  C   UNL     1       1.450   4.577  20.032  0.00  0.00    +0.000 A 
ATOM      3  C   UNL     1       1.932   5.869  20.229  0.00  0.00    +0.000 A 
ATOM      4  C   UNL     1       2.918   6.364  19.386  0.00  0.00    +0.000 A 
ATOM      5  C   UNL     1       3.403   5.562  18.343  0.00  0.00    +0.000 A 
ATOM      6  C   UNL     1       4.429   6.061  17.430  0.00  0.00    +0.000 A 
ATOM      7  O   UNL     1       4.883   7.193  17.566  0.00  0.00    +0.000 OA
ATOM      8  N   UNL     1       4.814   5.185  16.436  0.00  0.00    +0.000 N 
ATOM      9  N   UNL     1       4.307   3.931  16.293  0.00  0.00    +0.000 NA
ATOM     10  N   UNL     1       3.443   3.483  17.073  0.00  0.00    +0.000 NA
ATOM     11  C   UNL     1       2.937   4.272  18.117  0.00  0.00    +0.000 A 
ENDROOT
BRANCH   1  13
ATOM     12  N   UNL     1       2.232   1.342  18.791  0.00  0.00    +0.000 N 
ATOM     13  C   UNL     1       1.375   2.401  18.882  0.00  0.00    +0.000 C 
ATOM     14  O   UNL     1       0.163   2.222  18.858  0.00  0.00    +0.000 OA
ATOM     15  H   UNL     1       1.828   0.415  18.796  0.00  0.00    +0.000 HD
ATOM     16  H   UNL     1       3.232   1.433  18.900  0.00  0.00    +0.000 HD
ENDBRANCH   1  13
BRANCH   8  17
ATOM     17  C   UNL     1       5.800   5.591  15.441  0.00  0.00    +0.000 C 
BRANCH  17  18
ATOM     18  C   UNL     1       6.727   4.468  14.983  0.00  0.00    +0.000 C 
ATOM     19 CL   UNL     1       6.267   3.840  13.380  0.00  0.00    +0.000 Cl
ENDBRANCH  17  18
ENDBRANCH   8  17
TORSDOF 3
ENDMDL
MODEL 5
REMARK VINA RESULT:      -6.7      2.402      2.835
REMARK  Name = 
REMARK  3 active torsions:
REMARK  status: ('A' for Active; 'I' for Inactive)
REMARK    1  A    between atoms: C_2  and  C_4
REMARK    2  A    between atoms: N_11  and  C_12
REMARK    3  A    between atoms: C_12  and  C_13
REMARK                            x       y       z     vdW  Elec       q    Type
REMARK                         _______ _______ _______ _____ _____    ______ ____
ROOT
ATOM      1  C   UNL     1       5.519   5.203  16.981  0.00  0.00    +0.000 A 
ATOM      2  C   UNL     1       5.381   6.444  16.326  0.00  0.00    +0.000 A 
ATOM      3  C   UNL     1       4.427   7.368  16.744  0.00  0.00    +0.000 A 
ATOM      4  C   UNL     1       3.598   7.056  17.814  0.00  0.00    +0.000 A 
ATOM      5  C   UNL     1       3.743   5.822  18.464  0.00  0.00    +0.000 A 
ATOM      6  C   UNL     1       2.897   5.472  19.602  0.00  0.00    +0.000 A 
ATOM      7  O   UNL     1       2.043   6.256  20.004  0.00  0.00    +0.000 OA
ATOM      8  N   UNL     1       3.145   4.237  20.166  0.00  0.00    +0.000 N 
ATOM      9  N   UNL     1       4.093   3.374  19.714  0.00  0.00    +0.000 NA
ATOM     10  N   UNL     1       4.813   3.649  18.733  0.00  0.00    +0.000 NA
ATOM     11  C   UNL     1       4.690   4.883  18.074  0.00  0.00    +0.000 A 
ENDROOT
BRANCH   1  13
ATOM     12  N   UNL     1       6.152   3.216  15.682  0.00  0.00    +0.000 N 
ATOM     13  C   UNL     1       6.555   4.282  16.435  0.00  0.00    +0.000 C 
ATOM     14  O   UNL     1       7.744   4.460  16.670  0.00  0.00    +0.000 OA
ATOM     15  H   UNL     1       6.872   2.645  15.260  0.00  0.00    +0.000 HD
ATOM     16  H   UNL     1       5.195   3.082  15.385  0.00  0.00    +0.000 HD
ENDBRANCH   1  13
BRANCH   8  17
ATOM     17  C   UNL     1       2.390   3.800  21.336  0.00  0.00    +0.000 C 
BRANCH  17  18
ATOM     18  C   UNL     1       1.428   2.646  21.064  0.00  0.00    +0.000 C 
ATOM     19 CL   UNL     1       0.647   2.795  19.469  0.00  0.00    +0.000 Cl
ENDBRANCH  17  18
ENDBRANCH   8  17
TORSDOF 3
ENDMDL
MODEL 6
REMARK VINA RESULT:      -6.7      2.254      2.932
REMARK  Name = 
REMARK  3 active torsions:
REMARK  status: ('A' for Active; 'I' for Inactive)
REMARK    1  A    between atoms: C_2  and  C_4
REMARK    2  A    between atoms: N_11  and  C_12
REMARK    3  A    between atoms: C_12  and  C_13
REMARK                            x       y       z     vdW  Elec       q    Type
REMARK                         _______ _______ _______ _____ _____    ______ ____
ROOT
ATOM      1  C   UNL     1       6.520   4.819  16.696  0.00  0.00    +0.000 A 
ATOM      2  C   UNL     1       7.563   5.326  17.498  0.00  0.00    +0.000 A 
ATOM      3  C   UNL     1       7.348   5.627  18.840  0.00  0.00    +0.000 A 
ATOM      4  C   UNL     1       6.087   5.433  19.390  0.00  0.00    +0.000 A 
ATOM      5  C   UNL     1       5.055   4.924  18.589  0.00  0.00    +0.000 A 
ATOM      6  C   UNL     1       3.722   4.693  19.141  0.00  0.00    +0.000 A 
ATOM      7  O   UNL     1       3.489   4.945  20.319  0.00  0.00    +0.000 OA
ATOM      8  N   UNL     1       2.796   4.177  18.259  0.00  0.00    +0.000 N 
ATOM      9  N   UNL     1       3.064   3.901  16.954  0.00  0.00    +0.000 NA
ATOM     10  N   UNL     1       4.191   4.108  16.461  0.00  0.00    +0.000 NA
ATOM     11  C   UNL     1       5.241   4.607  17.248  0.00  0.00    +0.000 A 
ENDROOT
BRANCH   1  13
ATOM     12  N   UNL     1       6.356   3.430  14.676  0.00  0.00    +0.000 N 
ATOM     13  C   UNL     1       6.855   4.555  15.269  0.00  0.00    +0.000 C 
ATOM     14  O   UNL     1       7.582   5.315  14.641  0.00  0.00    +0.000 OA
ATOM     15  H   UNL     1       6.534   3.307  13.688  0.00  0.00    +0.000 HD
ATOM     16  H   UNL     1       5.680   2.826  15.124  0.00  0.00    +0.000 HD
ENDBRANCH   1  13
BRANCH   8  17
ATOM     17  C   UNL     1       1.446   3.865  18.712  0.00  0.00    +0.000 C 
BRANCH  17  18
ATOM     18  C   UNL     1       1.311   2.503  19.388  0.00  0.00    +0.000 C 
ATOM     19 CL   UNL     1       1.252   2.646  21.163  0.00  0.00    +0.000 Cl
ENDBRANCH  17  18
ENDBRANCH   8  17
TORSDOF 3
ENDMDL
MODEL 7
REMARK VINA RESULT:      -6.7      3.023      5.190
REMARK  Name = 
REMARK  3 active torsions:
REMARK  status: ('A' for Active; 'I' for Inactive)
REMARK    1  A    between atoms: C_2  and  C_4
REMARK    2  A    between atoms: N_11  and  C_12
REMARK    3  A    between atoms: C_12  and  C_13
REMARK                            x       y       z     vdW  Elec       q    Type
REMARK                         _______ _______ _______ _____ _____    ______ ____
ROOT
ATOM      1  C   UNL     1       2.690   3.661  19.774  0.00  0.00    +0.000 A 
ATOM      2  C   UNL     1       1.931   2.626  19.191  0.00  0.00    +0.000 A 
ATOM      3  C   UNL     1       2.269   2.110  17.942  0.00  0.00    +0.000 A 
ATOM      4  C   UNL     1       3.362   2.631  17.262  0.00  0.00    +0.000 A 
ATOM      5  C   UNL     1       4.116   3.658  17.849  0.00  0.00    +0.000 A 
ATOM      6  C   UNL     1       5.281   4.216  17.166  0.00  0.00    +0.000 A 
ATOM      7  O   UNL     1       5.615   3.791  16.065  0.00  0.00    +0.000 OA
ATOM      8  N   UNL     1       5.949   5.210  17.851  0.00  0.00    +0.000 N 
ATOM      9  N   UNL     1       5.572   5.675  19.072  0.00  0.00    +0.000 NA
ATOM     10  N   UNL     1       4.570   5.222  19.662  0.00  0.00    +0.000 NA
ATOM     11  C   UNL     1       3.808   4.188  19.097  0.00  0.00    +0.000 A 
ENDROOT
BRANCH   1  13
ATOM     12  N   UNL     1       1.966   5.485  21.252  0.00  0.00    +0.000 N 
ATOM     13  C   UNL     1       2.224   4.152  21.100  0.00  0.00    +0.000 C 
ATOM     14  O   UNL     1       2.093   3.385  22.046  0.00  0.00    +0.000 OA
ATOM     15  H   UNL     1       1.581   5.787  22.137  0.00  0.00    +0.000 HD
ATOM     16  H   UNL     1       1.970   6.137  20.480  0.00  0.00    +0.000 HD
ENDBRANCH   1  13
BRANCH   8  17
ATOM     17  C   UNL     1       7.152   5.809  17.285  0.00  0.00    +0.000 C 
BRANCH  17  18
ATOM     18  C   UNL     1       7.870   6.777  18.223  0.00  0.00    +0.000 C 
ATOM     19 CL   UNL     1       7.853   8.444  17.594  0.00  0.00    +0.000 Cl
ENDBRANCH  17  18
ENDBRANCH   8  17
TORSDOF 3
ENDMDL
MODEL 8
REMARK VINA RESULT:      -6.7      3.071      5.640
REMARK  Name = 
REMARK  3 active torsions:
REMARK  status: ('A' for Active; 'I' for Inactive)
REMARK    1  A    between atoms: C_2  and  C_4
REMARK    2  A    between atoms: N_11  and  C_12
REMARK    3  A    between atoms: C_12  and  C_13
REMARK                            x       y       z     vdW  Elec       q    Type
REMARK                         _______ _______ _______ _____ _____    ______ ____
ROOT
ATOM      1  C   UNL     1       2.077   3.985  19.696  0.00  0.00    +0.000 A 
ATOM      2  C   UNL     1       1.521   4.976  20.531  0.00  0.00    +0.000 A 
ATOM      3  C   UNL     1       1.845   6.319  20.356  0.00  0.00    +0.000 A 
ATOM      4  C   UNL     1       2.735   6.681  19.353  0.00  0.00    +0.000 A 
ATOM      5  C   UNL     1       3.281   5.691  18.523  0.00  0.00    +0.000 A 
ATOM      6  C   UNL     1       4.207   6.042  17.448  0.00  0.00    +0.000 A 
ATOM      7  O   UNL     1       4.520   7.213  17.259  0.00  0.00    +0.000 OA
ATOM      8  N   UNL     1       4.665   4.983  16.692  0.00  0.00    +0.000 N 
ATOM      9  N   UNL     1       4.312   3.688  16.910  0.00  0.00    +0.000 NA
ATOM     10  N   UNL     1       3.537   3.368  17.833  0.00  0.00    +0.000 NA
ATOM     11  C   UNL     1       2.971   4.344  18.668  0.00  0.00    +0.000 A 
ENDROOT
BRANCH   1  13
ATOM     12  N   UNL     1       1.396   1.748  18.942  0.00  0.00    +0.000 N 
ATOM     13  C   UNL     1       1.679   2.579  19.988  0.00  0.00    +0.000 C 
ATOM     14  O   UNL     1       1.585   2.177  21.142  0.00  0.00    +0.000 OA
ATOM     15  H   UNL     1       1.200   0.779  19.157  0.00  0.00    +0.000 HD
ATOM     16  H   UNL     1       1.549   2.006  17.977  0.00  0.00    +0.000 HD
ENDBRANCH   1  13
BRANCH   8  17
ATOM     17  C   UNL     1       5.560   5.219  15.565  0.00  0.00    +0.000 C 
BRANCH  17  18
ATOM     18  C   UNL     1       6.906   4.508  15.674  0.00  0.00    +0.000 C 
ATOM     19 CL   UNL     1       7.561   4.580  17.330  0.00  0.00    +0.000 Cl
ENDBRANCH  17  18
ENDBRANCH   8  17
TORSDOF 3
ENDMDL
MODEL 9
REMARK VINA RESULT:      -6.7      3.035      5.413
REMARK  Name = 
REMARK  3 active torsions:
REMARK  status: ('A' for Active; 'I' for Inactive)
REMARK    1  A    between atoms: C_2  and  C_4
REMARK    2  A    between atoms: N_11  and  C_12
REMARK    3  A    between atoms: C_12  and  C_13
REMARK                            x       y       z     vdW  Elec       q    Type
REMARK                         _______ _______ _______ _____ _____    ______ ____
ROOT
ATOM      1  C   UNL     1       2.177   4.842  20.195  0.00  0.00    +0.000 A 
ATOM      2  C   UNL     1       1.712   6.107  20.608  0.00  0.00    +0.000 A 
ATOM      3  C   UNL     1       2.075   7.260  19.917  0.00  0.00    +0.000 A 
ATOM      4  C   UNL     1       2.913   7.159  18.814  0.00  0.00    +0.000 A 
ATOM      5  C   UNL     1       3.369   5.897  18.406  0.00  0.00    +0.000 A 
ATOM      6  C   UNL     1       4.239   5.756  17.240  0.00  0.00    +0.000 A 
ATOM      7  O   UNL     1       4.584   6.745  16.602  0.00  0.00    +0.000 OA
ATOM      8  N   UNL     1       4.609   4.464  16.930  0.00  0.00    +0.000 N 
ATOM      9  N   UNL     1       4.222   3.373  17.644  0.00  0.00    +0.000 NA
ATOM     10  N   UNL     1       3.494   3.475  18.651  0.00  0.00    +0.000 NA
ATOM     11  C   UNL     1       3.018   4.728  19.071  0.00  0.00    +0.000 A 
ENDROOT
BRANCH   1  13
ATOM     12  N   UNL     1       0.757   2.868  20.545  0.00  0.00    +0.000 N 
ATOM     13  C   UNL     1       1.745   3.680  21.022  0.00  0.00    +0.000 C 
ATOM     14  O   UNL     1       2.249   3.465  22.118  0.00  0.00    +0.000 OA
ATOM     15  H   UNL     1       0.529   2.045  21.086  0.00  0.00    +0.000 HD
ATOM     16  H   UNL     1       0.379   2.951  19.611  0.00  0.00    +0.000 HD
ENDBRANCH   1  13
BRANCH   8  17
ATOM     17  C   UNL     1       5.440   4.199  15.761  0.00  0.00    +0.000 C 
BRANCH  17  18
ATOM     18  C   UNL     1       6.940   4.314  16.021  0.00  0.00    +0.000 C 
ATOM     19 CL   UNL     1       7.295   4.612  17.741  0.00  0.00    +0.000 Cl
ENDBRANCH  17  18
ENDBRANCH   8  17
TORSDOF 3
ENDMDL
