MODEL 1
REMARK VINA RESULT:      -6.1      0.000      0.000
REMARK  Name = 
REMARK  20 active torsions:
REMARK  status: ('A' for Active; 'I' for Inactive)
REMARK    1  A    between atoms: C_1  and  C_2
REMARK    2  A    between atoms: C_2  and  C_3
REMARK    3  A    between atoms: C_3  and  C_4
REMARK    4  A    between atoms: C_4  and  C_5
REMARK    5  A    between atoms: C_5  and  C_6
REMARK    6  A    between atoms: C_6  and  O_7
REMARK    7  A    between atoms: O_7  and  C_8
REMARK    8  A    between atoms: C_8  and  C_9
REMARK    9  A    between atoms: C_9  and  C_10
REMARK   10  A    between atoms: C_9  and  O_16
REMARK   11  A    between atoms: C_10  and  C_11
REMARK   12  A    between atoms: C_11  and  P_12
REMARK   13  A    between atoms: P_12  and  O_14
REMARK   14  A    between atoms: P_12  and  O_15
REMARK   15  A    between atoms: O_16  and  C_17
REMARK   16  A    between atoms: C_17  and  C_18
REMARK   17  A    between atoms: C_18  and  C_19
REMARK   18  A    between atoms: C_19  and  C_20
REMARK   19  A    between atoms: C_20  and  C_21
REMARK   20  A    between atoms: C_21  and  C_22
REMARK                            x       y       z     vdW  Elec       q    Type
REMARK                         _______ _______ _______ _____ _____    ______ ____
ROOT
ATOM      1  C   UNL     1       4.660   5.114  16.748  0.00  0.00    +0.000 C 
ENDROOT
BRANCH   1   2
ATOM      2  O   UNL     1       5.442   5.356  15.569  0.00  0.00    +0.000 OA
BRANCH   2   3
ATOM      3  C   UNL     1       6.180   4.218  15.110  0.00  0.00    +0.000 C 
BRANCH   3   4
ATOM      4  C   UNL     1       5.703   3.824  13.717  0.00  0.00    +0.000 C 
BRANCH   4   5
ATOM      5  C   UNL     1       6.741   4.187  12.652  0.00  0.00    +0.000 C 
BRANCH   5   6
ATOM      6  C   UNL     1       7.023   3.015  11.717  0.00  0.00    +0.000 C 
BRANCH   6   7
ATOM      7  C   UNL     1       5.765   2.174  11.504  0.00  0.00    +0.000 C 
ATOM      8  C   UNL     1       6.107   0.794  10.971  0.00  0.00    +0.000 C 
ENDBRANCH   6   7
ENDBRANCH   5   6
ENDBRANCH   4   5
ENDBRANCH   3   4
ENDBRANCH   2   3
ENDBRANCH   1   2
BRANCH   1   9
ATOM      9  C   UNL     1       5.011   6.188  17.813  0.00  0.00    +0.000 C 
BRANCH   9  10
ATOM     10  C   UNL     1       5.797   5.598  18.982  0.00  0.00    +0.000 C 
BRANCH  10  11
ATOM     11  P   UNL     1       7.573   5.733  19.021  0.00  0.00    +0.000 P 
ATOM     12  O   UNL     1       8.138   6.977  18.428  0.00  0.00    +0.000 OA
BRANCH  11  13
ATOM     13  O   UNL     1       8.206   4.430  18.336  0.00  0.00    +0.000 OA
ATOM     14  H   UNL     1       7.992   3.641  18.875  0.00  0.00    +0.000 HD
ENDBRANCH  11  13
BRANCH  11  15
ATOM     15  O   UNL     1       8.049   5.494  20.533  0.00  0.00    +0.000 OA
ATOM     16  H   UNL     1       7.374   5.628  21.220  0.00  0.00    +0.000 HD
ENDBRANCH  11  15
ENDBRANCH  10  11
ENDBRANCH   9  10
ENDBRANCH   1   9
BRANCH   1  17
ATOM     17  C   UNL     1       4.910   3.700  17.296  0.00  0.00    +0.000 C 
BRANCH  17  18
ATOM     18  O   UNL     1       3.724   3.150  17.861  0.00  0.00    +0.000 OA
BRANCH  18  19
ATOM     19  C   UNL     1       2.608   3.429  17.018  0.00  0.00    +0.000 C 
BRANCH  19  20
ATOM     20  C   UNL     1       1.568   4.171  17.836  0.00  0.00    +0.000 C 
BRANCH  20  21
ATOM     21  C   UNL     1       1.206   3.373  19.083  0.00  0.00    +0.000 C 
BRANCH  21  22
ATOM     22  C   UNL     1       0.994   4.287  20.284  0.00  0.00    +0.000 C 
BRANCH  22  24
ATOM     23  C   UNL     1       2.506   2.752  21.581  0.00  0.00    +0.000 C 
ATOM     24  C   UNL     1       2.178   4.195  21.242  0.00  0.00    +0.000 C 
ENDBRANCH  22  24
ENDBRANCH  21  22
ENDBRANCH  20  21
ENDBRANCH  19  20
ENDBRANCH  18  19
ENDBRANCH  17  18
ENDBRANCH   1  17
TORSDOF 18
ENDMDL
MODEL 2
REMARK VINA RESULT:      -6.0      1.195      1.662
REMARK  Name = 
REMARK  20 active torsions:
REMARK  status: ('A' for Active; 'I' for Inactive)
REMARK    1  A    between atoms: C_1  and  C_2
REMARK    2  A    between atoms: C_2  and  C_3
REMARK    3  A    between atoms: C_3  and  C_4
REMARK    4  A    between atoms: C_4  and  C_5
REMARK    5  A    between atoms: C_5  and  C_6
REMARK    6  A    between atoms: C_6  and  O_7
REMARK    7  A    between atoms: O_7  and  C_8
REMARK    8  A    between atoms: C_8  and  C_9
REMARK    9  A    between atoms: C_9  and  C_10
REMARK   10  A    between atoms: C_9  and  O_16
REMARK   11  A    between atoms: C_10  and  C_11
REMARK   12  A    between atoms: C_11  and  P_12
REMARK   13  A    between atoms: P_12  and  O_14
REMARK   14  A    between atoms: P_12  and  O_15
REMARK   15  A    between atoms: O_16  and  C_17
REMARK   16  A    between atoms: C_17  and  C_18
REMARK   17  A    between atoms: C_18  and  C_19
REMARK   18  A    between atoms: C_19  and  C_20
REMARK   19  A    between atoms: C_20  and  C_21
REMARK   20  A    between atoms: C_21  and  C_22
REMARK                            x       y       z     vdW  Elec       q    Type
REMARK                         _______ _______ _______ _____ _____    ______ ____
ROOT
ATOM      1  C   UNL     1       4.458   4.298  17.477  0.00  0.00    +0.000 C 
ENDROOT
BRANCH   1   2
ATOM      2  O   UNL     1       5.480   3.923  16.543  0.00  0.00    +0.000 OA
BRANCH   2   3
ATOM      3  C   UNL     1       5.695   4.874  15.495  0.00  0.00    +0.000 C 
BRANCH   3   4
ATOM      4  C   UNL     1       6.532   4.241  14.389  0.00  0.00    +0.000 C 
BRANCH   4   5
ATOM      5  C   UNL     1       5.731   4.115  13.091  0.00  0.00    +0.000 C 
BRANCH   5   6
ATOM      6  C   UNL     1       6.340   3.079  12.151  0.00  0.00    +0.000 C 
BRANCH   6   7
ATOM      7  C   UNL     1       5.247   2.302  11.418  0.00  0.00    +0.000 C 
ATOM      8  C   UNL     1       4.002   3.150  11.225  0.00  0.00    +0.000 C 
ENDBRANCH   6   7
ENDBRANCH   5   6
ENDBRANCH   4   5
ENDBRANCH   3   4
ENDBRANCH   2   3
ENDBRANCH   1   2
BRANCH   1   9
ATOM      9  C   UNL     1       5.031   4.200  18.917  0.00  0.00    +0.000 C 
BRANCH   9  10
ATOM     10  C   UNL     1       5.765   5.475  19.326  0.00  0.00    +0.000 C 
BRANCH  10  11
ATOM     11  P   UNL     1       7.526   5.606  19.089  0.00  0.00    +0.000 P 
ATOM     12  O   UNL     1       7.997   6.860  18.437  0.00  0.00    +0.000 OA
BRANCH  11  13
ATOM     13  O   UNL     1       8.038   4.315  18.289  0.00  0.00    +0.000 OA
ATOM     14  H   UNL     1       8.448   4.596  17.445  0.00  0.00    +0.000 HD
ENDBRANCH  11  13
BRANCH  11  15
ATOM     15  O   UNL     1       8.232   5.338  20.503  0.00  0.00    +0.000 OA
ATOM     16  H   UNL     1       8.673   4.477  20.604  0.00  0.00    +0.000 HD
ENDBRANCH  11  15
ENDBRANCH  10  11
ENDBRANCH   9  10
ENDBRANCH   1   9
BRANCH   1  17
ATOM     17  C   UNL     1       3.214   3.407  17.323  0.00  0.00    +0.000 C 
BRANCH  17  18
ATOM     18  O   UNL     1       3.555   2.027  17.423  0.00  0.00    +0.000 OA
BRANCH  18  19
ATOM     19  C   UNL     1       3.207   1.532  18.715  0.00  0.00    +0.000 C 
BRANCH  19  20
ATOM     20  C   UNL     1       1.850   2.096  19.091  0.00  0.00    +0.000 C 
BRANCH  20  21
ATOM     21  C   UNL     1       1.769   2.323  20.595  0.00  0.00    +0.000 C 
BRANCH  21  22
ATOM     22  C   UNL     1       1.103   3.656  20.919  0.00  0.00    +0.000 C 
BRANCH  22  24
ATOM     23  C   UNL     1       1.587   6.116  20.720  0.00  0.00    +0.000 C 
ATOM     24  C   UNL     1       1.668   4.765  20.035  0.00  0.00    +0.000 C 
ENDBRANCH  22  24
ENDBRANCH  21  22
ENDBRANCH  20  21
ENDBRANCH  19  20
ENDBRANCH  18  19
ENDBRANCH  17  18
ENDBRANCH   1  17
TORSDOF 18
ENDMDL
MODEL 3
REMARK VINA RESULT:      -5.9      1.162      1.852
REMARK  Name = 
REMARK  20 active torsions:
REMARK  status: ('A' for Active; 'I' for Inactive)
REMARK    1  A    between atoms: C_1  and  C_2
REMARK    2  A    between atoms: C_2  and  C_3
REMARK    3  A    between atoms: C_3  and  C_4
REMARK    4  A    between atoms: C_4  and  C_5
REMARK    5  A    between atoms: C_5  and  C_6
REMARK    6  A    between atoms: C_6  and  O_7
REMARK    7  A    between atoms: O_7  and  C_8
REMARK    8  A    between atoms: C_8  and  C_9
REMARK    9  A    between atoms: C_9  and  C_10
REMARK   10  A    between atoms: C_9  and  O_16
REMARK   11  A    between atoms: C_10  and  C_11
REMARK   12  A    between atoms: C_11  and  P_12
REMARK   13  A    between atoms: P_12  and  O_14
REMARK   14  A    between atoms: P_12  and  O_15
REMARK   15  A    between atoms: O_16  and  C_17
REMARK   16  A    between atoms: C_17  and  C_18
REMARK   17  A    between atoms: C_18  and  C_19
REMARK   18  A    between atoms: C_19  and  C_20
REMARK   19  A    between atoms: C_20  and  C_21
REMARK   20  A    between atoms: C_21  and  C_22
REMARK                            x       y       z     vdW  Elec       q    Type
REMARK                         _______ _______ _______ _____ _____    ______ ____
ROOT
ATOM      1  C   UNL     1       4.056   4.238  16.896  0.00  0.00    +0.000 C 
ENDROOT
BRANCH   1   2
ATOM      2  O   UNL     1       5.253   3.706  16.311  0.00  0.00    +0.000 OA
BRANCH   2   3
ATOM      3  C   UNL     1       5.797   4.507  15.256  0.00  0.00    +0.000 C 
BRANCH   3   4
ATOM      4  C   UNL     1       5.304   3.988  13.910  0.00  0.00    +0.000 C 
BRANCH   4   5
ATOM      5  C   UNL     1       6.473   3.707  12.963  0.00  0.00    +0.000 C 
BRANCH   5   6
ATOM      6  C   UNL     1       6.001   3.073  11.658  0.00  0.00    +0.000 C 
BRANCH   6   7
ATOM      7  C   UNL     1       6.914   1.916  11.255  0.00  0.00    +0.000 C 
ATOM      8  C   UNL     1       6.148   0.606  11.188  0.00  0.00    +0.000 C 
ENDBRANCH   6   7
ENDBRANCH   5   6
ENDBRANCH   4   5
ENDBRANCH   3   4
ENDBRANCH   2   3
ENDBRANCH   1   2
BRANCH   1   9
ATOM      9  C   UNL     1       4.436   5.402  17.852  0.00  0.00    +0.000 C 
BRANCH   9  10
ATOM     10  C   UNL     1       5.334   4.931  18.994  0.00  0.00    +0.000 C 
BRANCH  10  11
ATOM     11  P   UNL     1       7.069   5.337  18.990  0.00  0.00    +0.000 P 
ATOM     12  O   UNL     1       7.701   5.479  20.331  0.00  0.00    +0.000 OA
BRANCH  11  13
ATOM     13  O   UNL     1       7.290   6.656  18.108  0.00  0.00    +0.000 OA
ATOM     14  H   UNL     1       8.220   6.953  18.192  0.00  0.00    +0.000 HD
ENDBRANCH  11  13
BRANCH  11  15
ATOM     15  O   UNL     1       7.819   4.269  18.059  0.00  0.00    +0.000 OA
ATOM     16  H   UNL     1       7.486   4.187  17.149  0.00  0.00    +0.000 HD
ENDBRANCH  11  15
ENDBRANCH  10  11
ENDBRANCH   9  10
ENDBRANCH   1   9
BRANCH   1  17
ATOM     17  C   UNL     1       3.276   3.147  17.648  0.00  0.00    +0.000 C 
BRANCH  17  18
ATOM     18  O   UNL     1       1.876   3.406  17.623  0.00  0.00    +0.000 OA
BRANCH  18  19
ATOM     19  C   UNL     1       1.202   2.534  18.527  0.00  0.00    +0.000 C 
BRANCH  19  20
ATOM     20  C   UNL     1       2.086   2.335  19.744  0.00  0.00    +0.000 C 
BRANCH  20  21
ATOM     21  C   UNL     1       1.521   3.092  20.939  0.00  0.00    +0.000 C 
BRANCH  21  22
ATOM     22  C   UNL     1       2.226   4.431  21.130  0.00  0.00    +0.000 C 
BRANCH  22  24
ATOM     23  C   UNL     1       2.166   6.730  20.110  0.00  0.00    +0.000 C 
ATOM     24  C   UNL     1       1.339   5.575  20.645  0.00  0.00    +0.000 C 
ENDBRANCH  22  24
ENDBRANCH  21  22
ENDBRANCH  20  21
ENDBRANCH  19  20
ENDBRANCH  18  19
ENDBRANCH  17  18
ENDBRANCH   1  17
TORSDOF 18
ENDMDL
MODEL 4
REMARK VINA RESULT:      -5.9      1.407      1.792
REMARK  Name = 
REMARK  20 active torsions:
REMARK  status: ('A' for Active; 'I' for Inactive)
REMARK    1  A    between atoms: C_1  and  C_2
REMARK    2  A    between atoms: C_2  and  C_3
REMARK    3  A    between atoms: C_3  and  C_4
REMARK    4  A    between atoms: C_4  and  C_5
REMARK    5  A    between atoms: C_5  and  C_6
REMARK    6  A    between atoms: C_6  and  O_7
REMARK    7  A    between atoms: O_7  and  C_8
REMARK    8  A    between atoms: C_8  and  C_9
REMARK    9  A    between atoms: C_9  and  C_10
REMARK   10  A    between atoms: C_9  and  O_16
REMARK   11  A    between atoms: C_10  and  C_11
REMARK   12  A    between atoms: C_11  and  P_12
REMARK   13  A    between atoms: P_12  and  O_14
REMARK   14  A    between atoms: P_12  and  O_15
REMARK   15  A    between atoms: O_16  and  C_17
REMARK   16  A    between atoms: C_17  and  C_18
REMARK   17  A    between atoms: C_18  and  C_19
REMARK   18  A    between atoms: C_19  and  C_20
REMARK   19  A    between atoms: C_20  and  C_21
REMARK   20  A    between atoms: C_21  and  C_22
REMARK                            x       y       z     vdW  Elec       q    Type
REMARK                         _______ _______ _______ _____ _____    ______ ____
ROOT
ATOM      1  C   UNL     1       4.491   4.133  16.809  0.00  0.00    +0.000 C 
ENDROOT
BRANCH   1   2
ATOM      2  O   UNL     1       5.691   3.832  16.082  0.00  0.00    +0.000 OA
BRANCH   2   3
ATOM      3  C   UNL     1       5.477   3.503  14.706  0.00  0.00    +0.000 C 
BRANCH   3   4
ATOM      4  C   UNL     1       6.361   4.377  13.824  0.00  0.00    +0.000 C 
BRANCH   4   5
ATOM      5  C   UNL     1       6.651   3.698  12.483  0.00  0.00    +0.000 C 
BRANCH   5   6
ATOM      6  C   UNL     1       5.444   2.912  11.977  0.00  0.00    +0.000 C 
BRANCH   6   7
ATOM      7  C   UNL     1       4.429   3.842  11.315  0.00  0.00    +0.000 C 
ATOM      8  C   UNL     1       3.360   3.056  10.576  0.00  0.00    +0.000 C 
ENDBRANCH   6   7
ENDBRANCH   5   6
ENDBRANCH   4   5
ENDBRANCH   3   4
ENDBRANCH   2   3
ENDBRANCH   1   2
BRANCH   1   9
ATOM      9  C   UNL     1       4.589   5.579  17.366  0.00  0.00    +0.000 C 
BRANCH   9  10
ATOM     10  C   UNL     1       6.006   6.139  17.252  0.00  0.00    +0.000 C 
BRANCH  10  11
ATOM     11  P   UNL     1       7.233   5.715  18.472  0.00  0.00    +0.000 P 
ATOM     12  O   UNL     1       8.270   6.752  18.731  0.00  0.00    +0.000 OA
BRANCH  11  13
ATOM     13  O   UNL     1       7.906   4.319  18.064  0.00  0.00    +0.000 OA
ATOM     14  H   UNL     1       8.874   4.370  18.207  0.00  0.00    +0.000 HD
ENDBRANCH  11  13
BRANCH  11  15
ATOM     15  O   UNL     1       6.463   5.258  19.802  0.00  0.00    +0.000 OA
ATOM     16  H   UNL     1       5.501   5.394  19.807  0.00  0.00    +0.000 HD
ENDBRANCH  11  15
ENDBRANCH  10  11
ENDBRANCH   9  10
ENDBRANCH   1   9
BRANCH   1  17
ATOM     17  C   UNL     1       4.267   3.123  17.947  0.00  0.00    +0.000 C 
BRANCH  17  18
ATOM     18  O   UNL     1       3.200   2.232  17.640  0.00  0.00    +0.000 OA
BRANCH  18  19
ATOM     19  C   UNL     1       2.347   2.083  18.773  0.00  0.00    +0.000 C 
BRANCH  19  20
ATOM     20  C   UNL     1       1.242   3.119  18.676  0.00  0.00    +0.000 C 
BRANCH  20  21
ATOM     21  C   UNL     1       0.956   3.718  20.047  0.00  0.00    +0.000 C 
BRANCH  21  22
ATOM     22  C   UNL     1       2.116   4.586  20.525  0.00  0.00    +0.000 C 
BRANCH  22  24
ATOM     23  C   UNL     1       2.296   6.955  19.699  0.00  0.00    +0.000 C 
ATOM     24  C   UNL     1       1.658   6.029  20.719  0.00  0.00    +0.000 C 
ENDBRANCH  22  24
ENDBRANCH  21  22
ENDBRANCH  20  21
ENDBRANCH  19  20
ENDBRANCH  18  19
ENDBRANCH  17  18
ENDBRANCH   1  17
TORSDOF 18
ENDMDL
MODEL 5
REMARK VINA RESULT:      -5.8      1.497      2.160
REMARK  Name = 
REMARK  20 active torsions:
REMARK  status: ('A' for Active; 'I' for Inactive)
REMARK    1  A    between atoms: C_1  and  C_2
REMARK    2  A    between atoms: C_2  and  C_3
REMARK    3  A    between atoms: C_3  and  C_4
REMARK    4  A    between atoms: C_4  and  C_5
REMARK    5  A    between atoms: C_5  and  C_6
REMARK    6  A    between atoms: C_6  and  O_7
REMARK    7  A    between atoms: O_7  and  C_8
REMARK    8  A    between atoms: C_8  and  C_9
REMARK    9  A    between atoms: C_9  and  C_10
REMARK   10  A    between atoms: C_9  and  O_16
REMARK   11  A    between atoms: C_10  and  C_11
REMARK   12  A    between atoms: C_11  and  P_12
REMARK   13  A    between atoms: P_12  and  O_14
REMARK   14  A    between atoms: P_12  and  O_15
REMARK   15  A    between atoms: O_16  and  C_17
REMARK   16  A    between atoms: C_17  and  C_18
REMARK   17  A    between atoms: C_18  and  C_19
REMARK   18  A    between atoms: C_19  and  C_20
REMARK   19  A    between atoms: C_20  and  C_21
REMARK   20  A    between atoms: C_21  and  C_22
REMARK                            x       y       z     vdW  Elec       q    Type
REMARK                         _______ _______ _______ _____ _____    ______ ____
ROOT
ATOM      1  C   UNL     1       4.208   4.164  16.675  0.00  0.00    +0.000 C 
ENDROOT
BRANCH   1   2
ATOM      2  O   UNL     1       5.281   3.725  15.829  0.00  0.00    +0.000 OA
BRANCH   2   3
ATOM      3  C   UNL     1       5.352   4.403  14.571  0.00  0.00    +0.000 C 
BRANCH   3   4
ATOM      4  C   UNL     1       6.430   3.765  13.703  0.00  0.00    +0.000 C 
BRANCH   4   5
ATOM      5  C   UNL     1       6.081   3.873  12.216  0.00  0.00    +0.000 C 
BRANCH   5   6
ATOM      6  C   UNL     1       5.388   2.612  11.707  0.00  0.00    +0.000 C 
BRANCH   6   7
ATOM      7  C   UNL     1       3.913   2.883  11.415  0.00  0.00    +0.000 C 
ATOM      8  C   UNL     1       3.749   3.974  10.371  0.00  0.00    +0.000 C 
ENDBRANCH   6   7
ENDBRANCH   5   6
ENDBRANCH   4   5
ENDBRANCH   3   4
ENDBRANCH   2   3
ENDBRANCH   1   2
BRANCH   1   9
ATOM      9  C   UNL     1       4.693   5.378  17.513  0.00  0.00    +0.000 C 
BRANCH   9  10
ATOM     10  C   UNL     1       5.693   4.965  18.591  0.00  0.00    +0.000 C 
BRANCH  10  11
ATOM     11  P   UNL     1       7.431   5.287  18.366  0.00  0.00    +0.000 P 
ATOM     12  O   UNL     1       8.237   5.373  19.615  0.00  0.00    +0.000 OA
BRANCH  11  13
ATOM     13  O   UNL     1       7.601   6.611  17.480  0.00  0.00    +0.000 OA
ATOM     14  H   UNL     1       8.092   6.395  16.660  0.00  0.00    +0.000 HD
ENDBRANCH  11  13
BRANCH  11  15
ATOM     15  O   UNL     1       8.000   4.203  17.331  0.00  0.00    +0.000 OA
ATOM     16  H   UNL     1       8.382   3.399  17.723  0.00  0.00    +0.000 HD
ENDBRANCH  11  15
ENDBRANCH  10  11
ENDBRANCH   9  10
ENDBRANCH   1   9
BRANCH   1  17
ATOM     17  C   UNL     1       3.724   3.028  17.590  0.00  0.00    +0.000 C 
BRANCH  17  18
ATOM     18  O   UNL     1       2.341   3.171  17.900  0.00  0.00    +0.000 OA
BRANCH  18  19
ATOM     19  C   UNL     1       1.913   2.093  18.730  0.00  0.00    +0.000 C 
BRANCH  19  20
ATOM     20  C   UNL     1       1.554   2.656  20.092  0.00  0.00    +0.000 C 
BRANCH  20  21
ATOM     21  C   UNL     1       1.189   4.131  19.977  0.00  0.00    +0.000 C 
BRANCH  21  22
ATOM     22  C   UNL     1       2.237   5.016  20.643  0.00  0.00    +0.000 C 
BRANCH  22  24
ATOM     23  C   UNL     1       1.468   7.407  20.773  0.00  0.00    +0.000 C 
ATOM     24  C   UNL     1       2.273   6.391  19.983  0.00  0.00    +0.000 C 
ENDBRANCH  22  24
ENDBRANCH  21  22
ENDBRANCH  20  21
ENDBRANCH  19  20
ENDBRANCH  18  19
ENDBRANCH  17  18
ENDBRANCH   1  17
TORSDOF 18
ENDMDL
MODEL 6
REMARK VINA RESULT:      -5.8      1.427      6.638
REMARK  Name = 
REMARK  20 active torsions:
REMARK  status: ('A' for Active; 'I' for Inactive)
REMARK    1  A    between atoms: C_1  and  C_2
REMARK    2  A    between atoms: C_2  and  C_3
REMARK    3  A    between atoms: C_3  and  C_4
REMARK    4  A    between atoms: C_4  and  C_5
REMARK    5  A    between atoms: C_5  and  C_6
REMARK    6  A    between atoms: C_6  and  O_7
REMARK    7  A    between atoms: O_7  and  C_8
REMARK    8  A    between atoms: C_8  and  C_9
REMARK    9  A    between atoms: C_9  and  C_10
REMARK   10  A    between atoms: C_9  and  O_16
REMARK   11  A    between atoms: C_10  and  C_11
REMARK   12  A    between atoms: C_11  and  P_12
REMARK   13  A    between atoms: P_12  and  O_14
REMARK   14  A    between atoms: P_12  and  O_15
REMARK   15  A    between atoms: O_16  and  C_17
REMARK   16  A    between atoms: C_17  and  C_18
REMARK   17  A    between atoms: C_18  and  C_19
REMARK   18  A    between atoms: C_19  and  C_20
REMARK   19  A    between atoms: C_20  and  C_21
REMARK   20  A    between atoms: C_21  and  C_22
REMARK                            x       y       z     vdW  Elec       q    Type
REMARK                         _______ _______ _______ _____ _____    ______ ____
ROOT
ATOM      1  C   UNL     1       4.522   3.065  18.552  0.00  0.00    +0.000 C 
ENDROOT
BRANCH   1   2
ATOM      2  O   UNL     1       3.366   2.332  18.985  0.00  0.00    +0.000 OA
BRANCH   2   3
ATOM      3  C   UNL     1       2.315   2.268  18.016  0.00  0.00    +0.000 C 
BRANCH   3   4
ATOM      4  C   UNL     1       0.963   2.298  18.721  0.00  0.00    +0.000 C 
BRANCH   4   5
ATOM      5  C   UNL     1       1.005   3.193  19.962  0.00  0.00    +0.000 C 
BRANCH   5   6
ATOM      6  C   UNL     1       1.235   4.656  19.595  0.00  0.00    +0.000 C 
BRANCH   6   7
ATOM      7  C   UNL     1       1.887   5.411  20.753  0.00  0.00    +0.000 C 
ATOM      8  C   UNL     1       1.661   6.908  20.632  0.00  0.00    +0.000 C 
ENDBRANCH   6   7
ENDBRANCH   5   6
ENDBRANCH   4   5
ENDBRANCH   3   4
ENDBRANCH   2   3
ENDBRANCH   1   2
BRANCH   1   9
ATOM      9  C   UNL     1       4.928   4.068  19.665  0.00  0.00    +0.000 C 
BRANCH   9  10
ATOM     10  C   UNL     1       5.475   5.371  19.086  0.00  0.00    +0.000 C 
BRANCH  10  11
ATOM     11  P   UNL     1       7.230   5.581  18.866  0.00  0.00    +0.000 P 
ATOM     12  O   UNL     1       7.647   6.819  18.149  0.00  0.00    +0.000 OA
BRANCH  11  13
ATOM     13  O   UNL     1       7.822   4.276  18.150  0.00  0.00    +0.000 OA
ATOM     14  H   UNL     1       8.201   3.676  18.825  0.00  0.00    +0.000 HD
ENDBRANCH  11  13
BRANCH  11  15
ATOM     15  O   UNL     1       7.926   5.432  20.303  0.00  0.00    +0.000 OA
ATOM     16  H   UNL     1       8.527   6.150  20.563  0.00  0.00    +0.000 HD
ENDBRANCH  11  15
ENDBRANCH  10  11
ENDBRANCH   9  10
ENDBRANCH   1   9
BRANCH   1  17
ATOM     17  C   UNL     1       4.247   3.798  17.229  0.00  0.00    +0.000 C 
BRANCH  17  18
ATOM     18  O   UNL     1       5.346   3.669  16.332  0.00  0.00    +0.000 OA
BRANCH  18  19
ATOM     19  C   UNL     1       5.226   4.616  15.273  0.00  0.00    +0.000 C 
BRANCH  19  20
ATOM     20  C   UNL     1       6.538   4.647  14.512  0.00  0.00    +0.000 C 
BRANCH  20  21
ATOM     21  C   UNL     1       6.430   3.822  13.235  0.00  0.00    +0.000 C 
BRANCH  21  22
ATOM     22  C   UNL     1       4.974   3.526  12.889  0.00  0.00    +0.000 C 
BRANCH  22  24
ATOM     23  C   UNL     1       3.496   2.933  10.943  0.00  0.00    +0.000 C 
ATOM     24  C   UNL     1       4.740   3.679  11.389  0.00  0.00    +0.000 C 
ENDBRANCH  22  24
ENDBRANCH  21  22
ENDBRANCH  20  21
ENDBRANCH  19  20
ENDBRANCH  18  19
ENDBRANCH  17  18
ENDBRANCH   1  17
TORSDOF 18
ENDMDL
MODEL 7
REMARK VINA RESULT:      -5.8      3.231      7.094
REMARK  Name = 
REMARK  20 active torsions:
REMARK  status: ('A' for Active; 'I' for Inactive)
REMARK    1  A    between atoms: C_1  and  C_2
REMARK    2  A    between atoms: C_2  and  C_3
REMARK    3  A    between atoms: C_3  and  C_4
REMARK    4  A    between atoms: C_4  and  C_5
REMARK    5  A    between atoms: C_5  and  C_6
REMARK    6  A    between atoms: C_6  and  O_7
REMARK    7  A    between atoms: O_7  and  C_8
REMARK    8  A    between atoms: C_8  and  C_9
REMARK    9  A    between atoms: C_9  and  C_10
REMARK   10  A    between atoms: C_9  and  O_16
REMARK   11  A    between atoms: C_10  and  C_11
REMARK   12  A    between atoms: C_11  and  P_12
REMARK   13  A    between atoms: P_12  and  O_14
REMARK   14  A    between atoms: P_12  and  O_15
REMARK   15  A    between atoms: O_16  and  C_17
REMARK   16  A    between atoms: C_17  and  C_18
REMARK   17  A    between atoms: C_18  and  C_19
REMARK   18  A    between atoms: C_19  and  C_20
REMARK   19  A    between atoms: C_20  and  C_21
REMARK   20  A    between atoms: C_21  and  C_22
REMARK                            x       y       z     vdW  Elec       q    Type
REMARK                         _______ _______ _______ _____ _____    ______ ____
ROOT
ATOM      1  C   UNL     1       4.769   3.875  18.806  0.00  0.00    +0.000 C 
ENDROOT
BRANCH   1   2
ATOM      2  O   UNL     1       3.573   4.164  18.068  0.00  0.00    +0.000 OA
BRANCH   2   3
ATOM      3  C   UNL     1       3.514   5.495  17.544  0.00  0.00    +0.000 C 
BRANCH   3   4
ATOM      4  C   UNL     1       2.338   6.241  18.164  0.00  0.00    +0.000 C 
BRANCH   4   5
ATOM      5  C   UNL     1       2.669   7.720  18.376  0.00  0.00    +0.000 C 
BRANCH   5   6
ATOM      6  C   UNL     1       1.606   8.629  17.765  0.00  0.00    +0.000 C 
BRANCH   6   7
ATOM      7  C   UNL     1       1.940  10.099  18.016  0.00  0.00    +0.000 C 
ATOM      8  C   UNL     1       0.859  10.777  18.839  0.00  0.00    +0.000 C 
ENDBRANCH   6   7
ENDBRANCH   5   6
ENDBRANCH   4   5
ENDBRANCH   3   4
ENDBRANCH   2   3
ENDBRANCH   1   2
BRANCH   1   9
ATOM      9  C   UNL     1       4.423   2.896  19.961  0.00  0.00    +0.000 C 
BRANCH   9  10
ATOM     10  C   UNL     1       2.942   2.523  19.968  0.00  0.00    +0.000 C 
BRANCH  10  11
ATOM     11  P   UNL     1       1.823   3.334  21.091  0.00  0.00    +0.000 P 
ATOM     12  O   UNL     1       1.482   2.572  22.325  0.00  0.00    +0.000 OA
BRANCH  11  13
ATOM     13  O   UNL     1       0.499   3.754  20.291  0.00  0.00    +0.000 OA
ATOM     14  H   UNL     1       0.353   3.129  19.551  0.00  0.00    +0.000 HD
ENDBRANCH  11  13
BRANCH  11  15
ATOM     15  O   UNL     1       2.415   4.791  21.404  0.00  0.00    +0.000 OA
ATOM     16  H   UNL     1       3.012   5.163  20.733  0.00  0.00    +0.000 HD
ENDBRANCH  11  15
ENDBRANCH  10  11
ENDBRANCH   9  10
ENDBRANCH   1   9
BRANCH   1  17
ATOM     17  C   UNL     1       5.405   5.163  19.354  0.00  0.00    +0.000 C 
BRANCH  17  18
ATOM     18  O   UNL     1       6.761   4.946  19.733  0.00  0.00    +0.000 OA
BRANCH  18  19
ATOM     19  C   UNL     1       7.634   5.374  18.689  0.00  0.00    +0.000 C 
BRANCH  19  20
ATOM     20  C   UNL     1       6.894   6.388  17.837  0.00  0.00    +0.000 C 
BRANCH  20  21
ATOM     21  C   UNL     1       7.035   6.043  16.360  0.00  0.00    +0.000 C 
BRANCH  21  22
ATOM     22  C   UNL     1       7.178   4.538  16.155  0.00  0.00    +0.000 C 
BRANCH  22  24
ATOM     23  C   UNL     1       6.320   4.041  13.844  0.00  0.00    +0.000 C 
ATOM     24  C   UNL     1       6.013   3.999  15.329  0.00  0.00    +0.000 C 
ENDBRANCH  22  24
ENDBRANCH  21  22
ENDBRANCH  20  21
ENDBRANCH  19  20
ENDBRANCH  18  19
ENDBRANCH  17  18
ENDBRANCH   1  17
TORSDOF 18
ENDMDL
MODEL 8
REMARK VINA RESULT:      -5.8      3.493      5.949
REMARK  Name = 
REMARK  20 active torsions:
REMARK  status: ('A' for Active; 'I' for Inactive)
REMARK    1  A    between atoms: C_1  and  C_2
REMARK    2  A    between atoms: C_2  and  C_3
REMARK    3  A    between atoms: C_3  and  C_4
REMARK    4  A    between atoms: C_4  and  C_5
REMARK    5  A    between atoms: C_5  and  C_6
REMARK    6  A    between atoms: C_6  and  O_7
REMARK    7  A    between atoms: O_7  and  C_8
REMARK    8  A    between atoms: C_8  and  C_9
REMARK    9  A    between atoms: C_9  and  C_10
REMARK   10  A    between atoms: C_9  and  O_16
REMARK   11  A    between atoms: C_10  and  C_11
REMARK   12  A    between atoms: C_11  and  P_12
REMARK   13  A    between atoms: P_12  and  O_14
REMARK   14  A    between atoms: P_12  and  O_15
REMARK   15  A    between atoms: O_16  and  C_17
REMARK   16  A    between atoms: C_17  and  C_18
REMARK   17  A    between atoms: C_18  and  C_19
REMARK   18  A    between atoms: C_19  and  C_20
REMARK   19  A    between atoms: C_20  and  C_21
REMARK   20  A    between atoms: C_21  and  C_22
REMARK                            x       y       z     vdW  Elec       q    Type
REMARK                         _______ _______ _______ _____ _____    ______ ____
ROOT
ATOM      1  C   UNL     1       5.545   5.137  16.845  0.00  0.00    +0.000 C 
ENDROOT
BRANCH   1   2
ATOM      2  O   UNL     1       5.299   5.408  15.457  0.00  0.00    +0.000 OA
BRANCH   2   3
ATOM      3  C   UNL     1       6.101   4.636  14.557  0.00  0.00    +0.000 C 
BRANCH   3   4
ATOM      4  C   UNL     1       5.245   4.152  13.391  0.00  0.00    +0.000 C 
BRANCH   4   5
ATOM      5  C   UNL     1       6.028   3.196  12.488  0.00  0.00    +0.000 C 
BRANCH   5   6
ATOM      6  C   UNL     1       5.222   2.799  11.255  0.00  0.00    +0.000 C 
BRANCH   6   7
ATOM      7  C   UNL     1       3.788   3.317  11.353  0.00  0.00    +0.000 C 
ATOM      8  C   UNL     1       3.311   3.874  10.023  0.00  0.00    +0.000 C 
ENDBRANCH   6   7
ENDBRANCH   5   6
ENDBRANCH   4   5
ENDBRANCH   3   4
ENDBRANCH   2   3
ENDBRANCH   1   2
BRANCH   1   9
ATOM      9  C   UNL     1       4.470   4.143  17.362  0.00  0.00    +0.000 C 
BRANCH   9  10
ATOM     10  C   UNL     1       4.598   3.895  18.864  0.00  0.00    +0.000 C 
BRANCH  10  11
ATOM     11  P   UNL     1       4.023   2.362  19.566  0.00  0.00    +0.000 P 
ATOM     12  O   UNL     1       3.354   1.429  18.616  0.00  0.00    +0.000 OA
BRANCH  11  13
ATOM     13  O   UNL     1       3.074   2.689  20.814  0.00  0.00    +0.000 OA
ATOM     14  H   UNL     1       3.478   2.335  21.634  0.00  0.00    +0.000 HD
ENDBRANCH  11  13
BRANCH  11  15
ATOM     15  O   UNL     1       5.254   1.686  20.340  0.00  0.00    +0.000 OA
ATOM     16  H   UNL     1       5.921   2.296  20.697  0.00  0.00    +0.000 HD
ENDBRANCH  11  15
ENDBRANCH  10  11
ENDBRANCH   9  10
ENDBRANCH   1   9
BRANCH   1  17
ATOM     17  C   UNL     1       5.535   6.433  17.671  0.00  0.00    +0.000 C 
BRANCH  17  18
ATOM     18  O   UNL     1       6.236   7.476  17.000  0.00  0.00    +0.000 OA
BRANCH  18  19
ATOM     19  C   UNL     1       7.642   7.263  17.103  0.00  0.00    +0.000 C 
BRANCH  19  20
ATOM     20  C   UNL     1       8.143   7.984  18.340  0.00  0.00    +0.000 C 
BRANCH  20  21
ATOM     21  C   UNL     1       8.366   9.460  18.039  0.00  0.00    +0.000 C 
BRANCH  21  22
ATOM     22  C   UNL     1       9.236  10.118  19.106  0.00  0.00    +0.000 C 
BRANCH  22  24
ATOM     23  C   UNL     1      11.225  11.630  19.393  0.00  0.00    +0.000 C 
ATOM     24  C   UNL     1      10.056  11.254  18.500  0.00  0.00    +0.000 C 
ENDBRANCH  22  24
ENDBRANCH  21  22
ENDBRANCH  20  21
ENDBRANCH  19  20
ENDBRANCH  18  19
ENDBRANCH  17  18
ENDBRANCH   1  17
TORSDOF 18
ENDMDL
MODEL 9
REMARK VINA RESULT:      -5.7      1.276      6.130
REMARK  Name = 
REMARK  20 active torsions:
REMARK  status: ('A' for Active; 'I' for Inactive)
REMARK    1  A    between atoms: C_1  and  C_2
REMARK    2  A    between atoms: C_2  and  C_3
REMARK    3  A    between atoms: C_3  and  C_4
REMARK    4  A    between atoms: C_4  and  C_5
REMARK    5  A    between atoms: C_5  and  C_6
REMARK    6  A    between atoms: C_6  and  O_7
REMARK    7  A    between atoms: O_7  and  C_8
REMARK    8  A    between atoms: C_8  and  C_9
REMARK    9  A    between atoms: C_9  and  C_10
REMARK   10  A    between atoms: C_9  and  O_16
REMARK   11  A    between atoms: C_10  and  C_11
REMARK   12  A    between atoms: C_11  and  P_12
REMARK   13  A    between atoms: P_12  and  O_14
REMARK   14  A    between atoms: P_12  and  O_15
REMARK   15  A    between atoms: O_16  and  C_17
REMARK   16  A    between atoms: C_17  and  C_18
REMARK   17  A    between atoms: C_18  and  C_19
REMARK   18  A    between atoms: C_19  and  C_20
REMARK   19  A    between atoms: C_20  and  C_21
REMARK   20  A    between atoms: C_21  and  C_22
REMARK                            x       y       z     vdW  Elec       q    Type
REMARK                         _______ _______ _______ _____ _____    ______ ____
ROOT
ATOM      1  C   UNL     1       4.262   5.541  17.518  0.00  0.00    +0.000 C 
ENDROOT
BRANCH   1   2
ATOM      2  O   UNL     1       2.831   5.599  17.611  0.00  0.00    +0.000 OA
BRANCH   2   3
ATOM      3  C   UNL     1       2.336   5.762  18.945  0.00  0.00    +0.000 C 
BRANCH   3   4
ATOM      4  C   UNL     1       1.532   4.532  19.349  0.00  0.00    +0.000 C 
BRANCH   4   5
ATOM      5  C   UNL     1       1.296   3.606  18.153  0.00  0.00    +0.000 C 
BRANCH   5   6
ATOM      6  C   UNL     1       1.736   2.176  18.451  0.00  0.00    +0.000 C 
BRANCH   6   7
ATOM      7  C   UNL     1       3.213   1.980  18.109  0.00  0.00    +0.000 C 
ATOM      8  C   UNL     1       4.072   1.962  19.361  0.00  0.00    +0.000 C 
ENDBRANCH   6   7
ENDBRANCH   5   6
ENDBRANCH   4   5
ENDBRANCH   3   4
ENDBRANCH   2   3
ENDBRANCH   1   2
BRANCH   1   9
ATOM      9  C   UNL     1       4.871   5.894  18.901  0.00  0.00    +0.000 C 
BRANCH   9  10
ATOM     10  C   UNL     1       6.027   4.966  19.270  0.00  0.00    +0.000 C 
BRANCH  10  11
ATOM     11  P   UNL     1       7.688   5.369  18.769  0.00  0.00    +0.000 P 
ATOM     12  O   UNL     1       7.850   6.668  18.059  0.00  0.00    +0.000 OA
BRANCH  11  13
ATOM     13  O   UNL     1       8.274   4.160  17.897  0.00  0.00    +0.000 OA
ATOM     14  H   UNL     1       8.363   3.363  18.460  0.00  0.00    +0.000 HD
ENDBRANCH  11  13
BRANCH  11  15
ATOM     15  O   UNL     1       8.632   5.244  20.060  0.00  0.00    +0.000 OA
ATOM     16  H   UNL     1       8.366   5.766  20.835  0.00  0.00    +0.000 HD
ENDBRANCH  11  15
ENDBRANCH  10  11
ENDBRANCH   9  10
ENDBRANCH   1   9
BRANCH   1  17
ATOM     17  C   UNL     1       4.784   6.495  16.431  0.00  0.00    +0.000 C 
BRANCH  17  18
ATOM     18  O   UNL     1       5.129   5.785  15.246  0.00  0.00    +0.000 OA
BRANCH  18  19
ATOM     19  C   UNL     1       5.506   4.448  15.570  0.00  0.00    +0.000 C 
BRANCH  19  20
ATOM     20  C   UNL     1       6.510   3.974  14.537  0.00  0.00    +0.000 C 
BRANCH  20  21
ATOM     21  C   UNL     1       5.818   3.721  13.203  0.00  0.00    +0.000 C 
BRANCH  21  22
ATOM     22  C   UNL     1       6.805   3.801  12.043  0.00  0.00    +0.000 C 
BRANCH  22  24
ATOM     23  C   UNL     1       5.808   1.617  11.294  0.00  0.00    +0.000 C 
ATOM     24  C   UNL     1       7.089   2.408  11.486  0.00  0.00    +0.000 C 
ENDBRANCH  22  24
ENDBRANCH  21  22
ENDBRANCH  20  21
ENDBRANCH  19  20
ENDBRANCH  18  19
ENDBRANCH  17  18
ENDBRANCH   1  17
TORSDOF 18
ENDMDL
