MODEL 1
REMARK VINA RESULT:      -7.7      0.000      0.000
REMARK  Name = 
REMARK  8 active torsions:
REMARK  status: ('A' for Active; 'I' for Inactive)
REMARK    1  A    between atoms: C_1  and  O_2
REMARK    2  A    between atoms: O_2  and  C_3
REMARK    3  A    between atoms: C_5  and  C_6
REMARK    4  A    between atoms: C_11  and  C_12
REMARK    5  A    between atoms: C_22  and  O_23
REMARK    6  A    between atoms: O_23  and  C_24
REMARK    7  A    between atoms: C_25  and  O_26
REMARK    8  A    between atoms: O_26  and  C_27
REMARK                            x       y       z     vdW  Elec       q    Type
REMARK                         _______ _______ _______ _____ _____    ______ ____
ROOT
ATOM      1  C   UNL     1       3.600   3.620  18.480  0.00  0.00    +0.000 A 
ATOM      2  N   UNL     1       3.688   2.261  18.330  0.00  0.00    +0.000 NA
ATOM      3  C   UNL     1       2.613   1.498  18.635  0.00  0.00    +0.000 A 
ATOM      4  C   UNL     1       1.427   2.013  19.109  0.00  0.00    +0.000 A 
ATOM      5  C   UNL     1       1.337   3.386  19.256  0.00  0.00    +0.000 A 
ATOM      6  C   UNL     1       2.409   4.235  18.923  0.00  0.00    +0.000 A 
ENDROOT
BRANCH   6   7
ATOM      7  C   UNL     1       2.164   5.677  19.098  0.00  0.00    +0.000 A 
ATOM      8  N   UNL     1       2.347   6.545  18.118  0.00  0.00    +0.000 NA
ATOM      9  C   UNL     1       2.020   7.819  18.537  0.00  0.00    +0.000 A 
ATOM     10  C   UNL     1       2.075   8.984  17.745  0.00  0.00    +0.000 A 
ATOM     11  C   UNL     1       1.657  10.206  18.280  0.00  0.00    +0.000 A 
ATOM     12  C   UNL     1       1.162  10.275  19.579  0.00  0.00    +0.000 A 
ATOM     13  C   UNL     1       1.121   9.136  20.393  0.00  0.00    +0.000 A 
ATOM     14  C   UNL     1       1.590   7.923  19.859  0.00  0.00    +0.000 A 
ATOM     15  S   UNL     1       1.794   6.391  20.620  0.00  0.00    +0.000 S 
ENDBRANCH   6   7
BRANCH   1  18
ATOM     16  C   UNL     1       6.022   5.516  16.258  0.00  0.00    +0.000 A 
ATOM     17  C   UNL     1       5.038   4.614  16.695  0.00  0.00    +0.000 A 
ATOM     18  C   UNL     1       4.836   4.321  18.051  0.00  0.00    +0.000 A 
ATOM     19  C   UNL     1       5.806   4.792  18.938  0.00  0.00    +0.000 A 
ATOM     20  C   UNL     1       6.793   5.712  18.543  0.00  0.00    +0.000 A 
ATOM     21  C   UNL     1       6.910   6.094  17.190  0.00  0.00    +0.000 A 
BRANCH  16  23
ATOM     22  C   UNL     1       6.703   4.823  14.081  0.00  0.00    +0.000 C 
ATOM     23  O   UNL     1       6.137   5.825  14.927  0.00  0.00    +0.000 OA
ENDBRANCH  16  23
BRANCH  20  24
ATOM     24  O   UNL     1       7.504   6.158  19.631  0.00  0.00    +0.000 OA
ATOM     25  C   UNL     1       8.437   5.295  20.260  0.00  0.00    +0.000 C 
ENDBRANCH  20  24
BRANCH  21  26
ATOM     26  O   UNL     1       7.904   6.991  16.901  0.00  0.00    +0.000 OA
ATOM     27  C   UNL     1       7.893   8.285  17.481  0.00  0.00    +0.000 C 
ENDBRANCH  21  26
ENDBRANCH   1  18
TORSDOF 5
ENDMDL
MODEL 2
REMARK VINA RESULT:      -6.9      1.563      2.941
REMARK  Name = 
REMARK  8 active torsions:
REMARK  status: ('A' for Active; 'I' for Inactive)
REMARK    1  A    between atoms: C_1  and  O_2
REMARK    2  A    between atoms: O_2  and  C_3
REMARK    3  A    between atoms: C_5  and  C_6
REMARK    4  A    between atoms: C_11  and  C_12
REMARK    5  A    between atoms: C_22  and  O_23
REMARK    6  A    between atoms: O_23  and  C_24
REMARK    7  A    between atoms: C_25  and  O_26
REMARK    8  A    between atoms: O_26  and  C_27
REMARK                            x       y       z     vdW  Elec       q    Type
REMARK                         _______ _______ _______ _____ _____    ______ ____
ROOT
ATOM      1  C   UNL     1       3.630   3.991  19.720  0.00  0.00    +0.000 A 
ATOM      2  N   UNL     1       3.788   2.710  20.177  0.00  0.00    +0.000 NA
ATOM      3  C   UNL     1       2.912   2.229  21.089  0.00  0.00    +0.000 A 
ATOM      4  C   UNL     1       1.869   2.967  21.605  0.00  0.00    +0.000 A 
ATOM      5  C   UNL     1       1.709   4.261  21.140  0.00  0.00    +0.000 A 
ATOM      6  C   UNL     1       2.566   4.806  20.165  0.00  0.00    +0.000 A 
ENDROOT
BRANCH   6   7
ATOM      7  C   UNL     1       2.260   6.181  19.737  0.00  0.00    +0.000 A 
ATOM      8  N   UNL     1       1.678   7.054  20.541  0.00  0.00    +0.000 NA
ATOM      9  C   UNL     1       1.533   8.272  19.906  0.00  0.00    +0.000 A 
ATOM     10  C   UNL     1       0.973   9.434  20.474  0.00  0.00    +0.000 A 
ATOM     11  C   UNL     1       0.941  10.620  19.735  0.00  0.00    +0.000 A 
ATOM     12  C   UNL     1       1.483  10.668  18.454  0.00  0.00    +0.000 A 
ATOM     13  C   UNL     1       2.023   9.520  17.860  0.00  0.00    +0.000 A 
ATOM     14  C   UNL     1       2.005   8.322  18.595  0.00  0.00    +0.000 A 
ATOM     15  S   UNL     1       2.462   6.731  18.118  0.00  0.00    +0.000 S 
ENDBRANCH   6   7
BRANCH   1  18
ATOM     16  C   UNL     1       6.855   5.273  18.186  0.00  0.00    +0.000 A 
ATOM     17  C   UNL     1       5.738   5.139  19.027  0.00  0.00    +0.000 A 
ATOM     18  C   UNL     1       4.629   4.352  18.684  0.00  0.00    +0.000 A 
ATOM     19  C   UNL     1       4.584   3.885  17.368  0.00  0.00    +0.000 A 
ATOM     20  C   UNL     1       5.690   3.982  16.505  0.00  0.00    +0.000 A 
ATOM     21  C   UNL     1       6.850   4.675  16.909  0.00  0.00    +0.000 A 
BRANCH  16  23
ATOM     22  C   UNL     1       7.980   7.374  18.220  0.00  0.00    +0.000 C 
ATOM     23  O   UNL     1       7.946   5.997  18.594  0.00  0.00    +0.000 OA
ENDBRANCH  16  23
BRANCH  20  24
ATOM     24  O   UNL     1       5.458   3.290  15.340  0.00  0.00    +0.000 OA
ATOM     25  C   UNL     1       5.176   4.002  14.147  0.00  0.00    +0.000 C 
ENDBRANCH  20  24
BRANCH  21  26
ATOM     26  O   UNL     1       7.873   4.719  15.998  0.00  0.00    +0.000 OA
ATOM     27  C   UNL     1       7.790   5.570  14.868  0.00  0.00    +0.000 C 
ENDBRANCH  21  26
ENDBRANCH   1  18
TORSDOF 5
ENDMDL
MODEL 3
REMARK VINA RESULT:      -6.8      5.850     10.277
REMARK  Name = 
REMARK  8 active torsions:
REMARK  status: ('A' for Active; 'I' for Inactive)
REMARK    1  A    between atoms: C_1  and  O_2
REMARK    2  A    between atoms: O_2  and  C_3
REMARK    3  A    between atoms: C_5  and  C_6
REMARK    4  A    between atoms: C_11  and  C_12
REMARK    5  A    between atoms: C_22  and  O_23
REMARK    6  A    between atoms: O_23  and  C_24
REMARK    7  A    between atoms: C_25  and  O_26
REMARK    8  A    between atoms: O_26  and  C_27
REMARK                            x       y       z     vdW  Elec       q    Type
REMARK                         _______ _______ _______ _____ _____    ______ ____
ROOT
ATOM      1  C   UNL     1      -0.271  12.940  18.857  0.00  0.00    +0.000 A 
ATOM      2  N   UNL     1      -0.360  14.293  18.664  0.00  0.00    +0.000 NA
ATOM      3  C   UNL     1       0.778  15.024  18.626  0.00  0.00    +0.000 A 
ATOM      4  C   UNL     1       2.034  14.484  18.792  0.00  0.00    +0.000 A 
ATOM      5  C   UNL     1       2.123  13.116  18.984  0.00  0.00    +0.000 A 
ATOM      6  C   UNL     1       0.978  12.298  18.998  0.00  0.00    +0.000 A 
ENDROOT
BRANCH   6   7
ATOM      7  C   UNL     1       1.221  10.857  19.179  0.00  0.00    +0.000 A 
ATOM      8  N   UNL     1       1.716  10.100  18.215  0.00  0.00    +0.000 NA
ATOM      9  C   UNL     1       1.872   8.800  18.655  0.00  0.00    +0.000 A 
ATOM     10  C   UNL     1       2.393   7.733  17.897  0.00  0.00    +0.000 A 
ATOM     11  C   UNL     1       2.551   6.475  18.486  0.00  0.00    +0.000 A 
ATOM     12  C   UNL     1       2.223   6.278  19.824  0.00  0.00    +0.000 A 
ATOM     13  C   UNL     1       1.680   7.317  20.591  0.00  0.00    +0.000 A 
ATOM     14  C   UNL     1       1.481   8.563  19.972  0.00  0.00    +0.000 A 
ATOM     15  S   UNL     1       0.728   9.988  20.582  0.00  0.00    +0.000 S 
ENDBRANCH   6   7
BRANCH   1  18
ATOM     16  C   UNL     1      -3.917  12.225  19.626  0.00  0.00    +0.000 A 
ATOM     17  C   UNL     1      -2.569  12.589  19.774  0.00  0.00    +0.000 A 
ATOM     18  C   UNL     1      -1.596  12.272  18.815  0.00  0.00    +0.000 A 
ATOM     19  C   UNL     1      -1.981  11.380  17.813  0.00  0.00    +0.000 A 
ATOM     20  C   UNL     1      -3.324  11.008  17.621  0.00  0.00    +0.000 A 
ATOM     21  C   UNL     1      -4.317  11.436  18.527  0.00  0.00    +0.000 A 
BRANCH  16  23
ATOM     22  C   UNL     1      -4.375  12.826  21.887  0.00  0.00    +0.000 C 
ATOM     23  O   UNL     1      -4.847  12.618  20.556  0.00  0.00    +0.000 OA
ENDBRANCH  16  23
BRANCH  20  24
ATOM     24  O   UNL     1      -3.465  10.275  16.467  0.00  0.00    +0.000 OA
ATOM     25  C   UNL     1      -3.138  10.864  15.220  0.00  0.00    +0.000 C 
ENDBRANCH  20  24
BRANCH  21  26
ATOM     26  O   UNL     1      -5.594  11.020  18.261  0.00  0.00    +0.000 OA
ATOM     27  C   UNL     1      -6.540  11.919  17.707  0.00  0.00    +0.000 C 
ENDBRANCH  21  26
ENDBRANCH   1  18
TORSDOF 5
ENDMDL
MODEL 4
REMARK VINA RESULT:      -6.7      0.970      1.358
REMARK  Name = 
REMARK  8 active torsions:
REMARK  status: ('A' for Active; 'I' for Inactive)
REMARK    1  A    between atoms: C_1  and  O_2
REMARK    2  A    between atoms: O_2  and  C_3
REMARK    3  A    between atoms: C_5  and  C_6
REMARK    4  A    between atoms: C_11  and  C_12
REMARK    5  A    between atoms: C_22  and  O_23
REMARK    6  A    between atoms: O_23  and  C_24
REMARK    7  A    between atoms: C_25  and  O_26
REMARK    8  A    between atoms: O_26  and  C_27
REMARK                            x       y       z     vdW  Elec       q    Type
REMARK                         _______ _______ _______ _____ _____    ______ ____
ROOT
ATOM      1  C   UNL     1       3.320   3.997  19.138  0.00  0.00    +0.000 A 
ATOM      2  N   UNL     1       3.369   2.632  19.247  0.00  0.00    +0.000 NA
ATOM      3  C   UNL     1       2.282   1.975  19.713  0.00  0.00    +0.000 A 
ATOM      4  C   UNL     1       1.123   2.606  20.107  0.00  0.00    +0.000 A 
ATOM      5  C   UNL     1       1.074   3.985  19.993  0.00  0.00    +0.000 A 
ATOM      6  C   UNL     1       2.159   4.721  19.482  0.00  0.00    +0.000 A 
ENDROOT
BRANCH   6   7
ATOM      7  C   UNL     1       1.958   6.177  19.385  0.00  0.00    +0.000 A 
ATOM      8  N   UNL     1       1.529   6.897  20.408  0.00  0.00    +0.000 NA
ATOM      9  C   UNL     1       1.457   8.231  20.060  0.00  0.00    +0.000 A 
ATOM     10  C   UNL     1       1.060   9.282  20.912  0.00  0.00    +0.000 A 
ATOM     11  C   UNL     1       1.088  10.600  20.447  0.00  0.00    +0.000 A 
ATOM     12  C   UNL     1       1.532  10.883  19.159  0.00  0.00    +0.000 A 
ATOM     13  C   UNL     1       1.908   9.854  18.286  0.00  0.00    +0.000 A 
ATOM     14  C   UNL     1       1.828   8.530  18.750  0.00  0.00    +0.000 A 
ATOM     15  S   UNL     1       2.088   7.050  17.907  0.00  0.00    +0.000 S 
ENDBRANCH   6   7
BRANCH   1  18
ATOM     16  C   UNL     1       5.653   5.603  16.613  0.00  0.00    +0.000 A 
ATOM     17  C   UNL     1       4.641   4.811  17.179  0.00  0.00    +0.000 A 
ATOM     18  C   UNL     1       4.563   4.565  18.558  0.00  0.00    +0.000 A 
ATOM     19  C   UNL     1       5.665   4.956  19.321  0.00  0.00    +0.000 A 
ATOM     20  C   UNL     1       6.686   5.766  18.794  0.00  0.00    +0.000 A 
ATOM     21  C   UNL     1       6.689   6.109  17.426  0.00  0.00    +0.000 A 
BRANCH  16  23
ATOM     22  C   UNL     1       6.271   4.911  14.417  0.00  0.00    +0.000 C 
ATOM     23  O   UNL     1       5.649   5.874  15.268  0.00  0.00    +0.000 OA
ENDBRANCH  16  23
BRANCH  20  24
ATOM     24  O   UNL     1       7.552   6.162  19.786  0.00  0.00    +0.000 OA
ATOM     25  C   UNL     1       8.524   5.250  20.271  0.00  0.00    +0.000 C 
ENDBRANCH  20  24
BRANCH  21  26
ATOM     26  O   UNL     1       7.726   6.899  17.005  0.00  0.00    +0.000 OA
ATOM     27  C   UNL     1       7.868   8.220  17.499  0.00  0.00    +0.000 C 
ENDBRANCH  21  26
ENDBRANCH   1  18
TORSDOF 5
ENDMDL
MODEL 5
REMARK VINA RESULT:      -6.7      2.861      5.670
REMARK  Name = 
REMARK  8 active torsions:
REMARK  status: ('A' for Active; 'I' for Inactive)
REMARK    1  A    between atoms: C_1  and  O_2
REMARK    2  A    between atoms: O_2  and  C_3
REMARK    3  A    between atoms: C_5  and  C_6
REMARK    4  A    between atoms: C_11  and  C_12
REMARK    5  A    between atoms: C_22  and  O_23
REMARK    6  A    between atoms: O_23  and  C_24
REMARK    7  A    between atoms: C_25  and  O_26
REMARK    8  A    between atoms: O_26  and  C_27
REMARK                            x       y       z     vdW  Elec       q    Type
REMARK                         _______ _______ _______ _____ _____    ______ ____
ROOT
ATOM      1  C   UNL     1       2.290   4.587  20.248  0.00  0.00    +0.000 A 
ATOM      2  N   UNL     1       1.416   4.183  21.222  0.00  0.00    +0.000 NA
ATOM      3  C   UNL     1       1.410   2.883  21.597  0.00  0.00    +0.000 A 
ATOM      4  C   UNL     1       2.229   1.927  21.037  0.00  0.00    +0.000 A 
ATOM      5  C   UNL     1       3.114   2.337  20.055  0.00  0.00    +0.000 A 
ATOM      6  C   UNL     1       3.191   3.682  19.647  0.00  0.00    +0.000 A 
ENDROOT
BRANCH   6   7
ATOM      7  C   UNL     1       4.199   3.983  18.617  0.00  0.00    +0.000 A 
ATOM      8  N   UNL     1       4.033   3.644  17.350  0.00  0.00    +0.000 NA
ATOM      9  C   UNL     1       5.108   4.068  16.593  0.00  0.00    +0.000 A 
ATOM     10  C   UNL     1       5.252   3.894  15.202  0.00  0.00    +0.000 A 
ATOM     11  C   UNL     1       6.368   4.427  14.549  0.00  0.00    +0.000 A 
ATOM     12  C   UNL     1       7.322   5.150  15.260  0.00  0.00    +0.000 A 
ATOM     13  C   UNL     1       7.212   5.314  16.646  0.00  0.00    +0.000 A 
ATOM     14  C   UNL     1       6.111   4.732  17.297  0.00  0.00    +0.000 A 
ATOM     15  S   UNL     1       5.750   4.637  18.979  0.00  0.00    +0.000 S 
ENDBRANCH   6   7
BRANCH   1  18
ATOM     16  C   UNL     1       2.466   7.876  18.363  0.00  0.00    +0.000 A 
ATOM     17  C   UNL     1       2.752   6.574  18.805  0.00  0.00    +0.000 A 
ATOM     18  C   UNL     1       2.217   6.047  19.989  0.00  0.00    +0.000 A 
ATOM     19  C   UNL     1       1.566   6.951  20.830  0.00  0.00    +0.000 A 
ATOM     20  C   UNL     1       1.244   8.256  20.416  0.00  0.00    +0.000 A 
ATOM     21  C   UNL     1       1.686   8.735  19.165  0.00  0.00    +0.000 A 
BRANCH  16  23
ATOM     22  C   UNL     1       4.086   7.632  16.632  0.00  0.00    +0.000 C 
ATOM     23  O   UNL     1       2.956   8.324  17.163  0.00  0.00    +0.000 OA
ENDBRANCH  16  23
BRANCH  20  24
ATOM     24  O   UNL     1       0.449   8.878  21.348  0.00  0.00    +0.000 OA
ATOM     25  C   UNL     1       1.017   9.322  22.569  0.00  0.00    +0.000 C 
ENDBRANCH  20  24
BRANCH  21  26
ATOM     26  O   UNL     1       1.326  10.019  18.851  0.00  0.00    +0.000 OA
ATOM     27  C   UNL     1       0.057  10.289  18.281  0.00  0.00    +0.000 C 
ENDBRANCH  21  26
ENDBRANCH   1  18
TORSDOF 5
ENDMDL
MODEL 6
REMARK VINA RESULT:      -6.7      2.805      5.993
REMARK  Name = 
REMARK  8 active torsions:
REMARK  status: ('A' for Active; 'I' for Inactive)
REMARK    1  A    between atoms: C_1  and  O_2
REMARK    2  A    between atoms: O_2  and  C_3
REMARK    3  A    between atoms: C_5  and  C_6
REMARK    4  A    between atoms: C_11  and  C_12
REMARK    5  A    between atoms: C_22  and  O_23
REMARK    6  A    between atoms: O_23  and  C_24
REMARK    7  A    between atoms: C_25  and  O_26
REMARK    8  A    between atoms: O_26  and  C_27
REMARK                            x       y       z     vdW  Elec       q    Type
REMARK                         _______ _______ _______ _____ _____    ______ ____
ROOT
ATOM      1  C   UNL     1       2.464   4.507  20.321  0.00  0.00    +0.000 A 
ATOM      2  N   UNL     1       1.685   4.075  21.362  0.00  0.00    +0.000 NA
ATOM      3  C   UNL     1       1.928   2.858  21.899  0.00  0.00    +0.000 A 
ATOM      4  C   UNL     1       2.913   2.009  21.444  0.00  0.00    +0.000 A 
ATOM      5  C   UNL     1       3.702   2.448  20.395  0.00  0.00    +0.000 A 
ATOM      6  C   UNL     1       3.521   3.719  19.817  0.00  0.00    +0.000 A 
ENDROOT
BRANCH   6   7
ATOM      7  C   UNL     1       4.452   4.069  18.731  0.00  0.00    +0.000 A 
ATOM      8  N   UNL     1       4.315   3.592  17.507  0.00  0.00    +0.000 NA
ATOM      9  C   UNL     1       5.298   4.098  16.679  0.00  0.00    +0.000 A 
ATOM     10  C   UNL     1       5.440   3.818  15.305  0.00  0.00    +0.000 A 
ATOM     11  C   UNL     1       6.449   4.447  14.570  0.00  0.00    +0.000 A 
ATOM     12  C   UNL     1       7.296   5.368  15.181  0.00  0.00    +0.000 A 
ATOM     13  C   UNL     1       7.189   5.644  16.550  0.00  0.00    +0.000 A 
ATOM     14  C   UNL     1       6.202   4.968  17.287  0.00  0.00    +0.000 A 
ATOM     15  S   UNL     1       5.892   4.979  18.982  0.00  0.00    +0.000 S 
ENDBRANCH   6   7
BRANCH   1  18
ATOM     16  C   UNL     1       1.486   8.167  20.534  0.00  0.00    +0.000 A 
ATOM     17  C   UNL     1       1.566   6.790  20.798  0.00  0.00    +0.000 A 
ATOM     18  C   UNL     1       2.114   5.880  19.881  0.00  0.00    +0.000 A 
ATOM     19  C   UNL     1       2.370   6.372  18.599  0.00  0.00    +0.000 A 
ATOM     20  C   UNL     1       2.319   7.745  18.303  0.00  0.00    +0.000 A 
ATOM     21  C   UNL     1       1.881   8.668  19.276  0.00  0.00    +0.000 A 
BRANCH  16  23
ATOM     22  C   UNL     1      -0.377   8.914  21.821  0.00  0.00    +0.000 C 
ATOM     23  O   UNL     1       1.006   9.028  21.490  0.00  0.00    +0.000 OA
ENDBRANCH  16  23
BRANCH  20  24
ATOM     24  O   UNL     1       2.788   7.986  17.034  0.00  0.00    +0.000 OA
ATOM     25  C   UNL     1       4.086   7.543  16.671  0.00  0.00    +0.000 C 
ENDBRANCH  20  24
BRANCH  21  26
ATOM     26  O   UNL     1       1.862   9.983  18.894  0.00  0.00    +0.000 OA
ATOM     27  C   UNL     1       0.652  10.591  18.475  0.00  0.00    +0.000 C 
ENDBRANCH  21  26
ENDBRANCH   1  18
TORSDOF 5
ENDMDL
MODEL 7
REMARK VINA RESULT:      -6.5      1.394      2.704
REMARK  Name = 
REMARK  8 active torsions:
REMARK  status: ('A' for Active; 'I' for Inactive)
REMARK    1  A    between atoms: C_1  and  O_2
REMARK    2  A    between atoms: O_2  and  C_3
REMARK    3  A    between atoms: C_5  and  C_6
REMARK    4  A    between atoms: C_11  and  C_12
REMARK    5  A    between atoms: C_22  and  O_23
REMARK    6  A    between atoms: O_23  and  C_24
REMARK    7  A    between atoms: C_25  and  O_26
REMARK    8  A    between atoms: O_26  and  C_27
REMARK                            x       y       z     vdW  Elec       q    Type
REMARK                         _______ _______ _______ _____ _____    ______ ____
ROOT
ATOM      1  C   UNL     1       3.365   3.843  19.680  0.00  0.00    +0.000 A 
ATOM      2  N   UNL     1       3.426   2.515  20.010  0.00  0.00    +0.000 NA
ATOM      3  C   UNL     1       2.487   2.003  20.839  0.00  0.00    +0.000 A 
ATOM      4  C   UNL     1       1.471   2.752  21.391  0.00  0.00    +0.000 A 
ATOM      5  C   UNL     1       1.408   4.093  21.054  0.00  0.00    +0.000 A 
ATOM      6  C   UNL     1       2.335   4.676  20.169  0.00  0.00    +0.000 A 
ENDROOT
BRANCH   6   7
ATOM      7  C   UNL     1       2.131   6.104  19.874  0.00  0.00    +0.000 A 
ATOM      8  N   UNL     1       2.501   6.644  18.726  0.00  0.00    +0.000 NA
ATOM      9  C   UNL     1       2.169   7.984  18.695  0.00  0.00    +0.000 A 
ATOM     10  C   UNL     1       2.398   8.863  17.617  0.00  0.00    +0.000 A 
ATOM     11  C   UNL     1       1.957  10.187  17.696  0.00  0.00    +0.000 A 
ATOM     12  C   UNL     1       1.271  10.635  18.821  0.00  0.00    +0.000 A 
ATOM     13  C   UNL     1       1.054   9.787  19.915  0.00  0.00    +0.000 A 
ATOM     14  C   UNL     1       1.545   8.473  19.842  0.00  0.00    +0.000 A 
ATOM     15  S   UNL     1       1.562   7.235  21.040  0.00  0.00    +0.000 S 
ENDBRANCH   6   7
BRANCH   1  18
ATOM     16  C   UNL     1       6.709   5.093  18.395  0.00  0.00    +0.000 A 
ATOM     17  C   UNL     1       5.550   4.944  19.174  0.00  0.00    +0.000 A 
ATOM     18  C   UNL     1       4.425   4.239  18.721  0.00  0.00    +0.000 A 
ATOM     19  C   UNL     1       4.421   3.883  17.371  0.00  0.00    +0.000 A 
ATOM     20  C   UNL     1       5.568   3.998  16.565  0.00  0.00    +0.000 A 
ATOM     21  C   UNL     1       6.737   4.601  17.074  0.00  0.00    +0.000 A 
BRANCH  16  23
ATOM     22  C   UNL     1       8.010   7.087  18.512  0.00  0.00    +0.000 C 
ATOM     23  O   UNL     1       7.810   5.730  18.908  0.00  0.00    +0.000 OA
ENDBRANCH  16  23
BRANCH  20  24
ATOM     24  O   UNL     1       5.360   3.414  15.339  0.00  0.00    +0.000 OA
ATOM     25  C   UNL     1       5.073   4.229  14.214  0.00  0.00    +0.000 C 
ENDBRANCH  20  24
BRANCH  21  26
ATOM     26  O   UNL     1       7.801   4.671  16.214  0.00  0.00    +0.000 OA
ATOM     27  C   UNL     1       7.757   5.530  15.087  0.00  0.00    +0.000 C 
ENDBRANCH  21  26
ENDBRANCH   1  18
TORSDOF 5
ENDMDL
MODEL 8
REMARK VINA RESULT:      -6.4      2.886      6.064
REMARK  Name = 
REMARK  8 active torsions:
REMARK  status: ('A' for Active; 'I' for Inactive)
REMARK    1  A    between atoms: C_1  and  O_2
REMARK    2  A    between atoms: O_2  and  C_3
REMARK    3  A    between atoms: C_5  and  C_6
REMARK    4  A    between atoms: C_11  and  C_12
REMARK    5  A    between atoms: C_22  and  O_23
REMARK    6  A    between atoms: O_23  and  C_24
REMARK    7  A    between atoms: C_25  and  O_26
REMARK    8  A    between atoms: O_26  and  C_27
REMARK                            x       y       z     vdW  Elec       q    Type
REMARK                         _______ _______ _______ _____ _____    ______ ____
ROOT
ATOM      1  C   UNL     1       2.485   4.560  20.321  0.00  0.00    +0.000 A 
ATOM      2  N   UNL     1       1.864   4.217  21.492  0.00  0.00    +0.000 NA
ATOM      3  C   UNL     1       2.133   3.013  22.046  0.00  0.00    +0.000 A 
ATOM      4  C   UNL     1       2.990   2.092  21.485  0.00  0.00    +0.000 A 
ATOM      5  C   UNL     1       3.620   2.441  20.302  0.00  0.00    +0.000 A 
ATOM      6  C   UNL     1       3.409   3.694  19.696  0.00  0.00    +0.000 A 
ENDROOT
BRANCH   6   7
ATOM      7  C   UNL     1       4.168   3.945  18.460  0.00  0.00    +0.000 A 
ATOM      8  N   UNL     1       5.392   4.442  18.475  0.00  0.00    +0.000 NA
ATOM      9  C   UNL     1       5.884   4.551  17.189  0.00  0.00    +0.000 A 
ATOM     10  C   UNL     1       7.164   5.022  16.836  0.00  0.00    +0.000 A 
ATOM     11  C   UNL     1       7.557   5.024  15.495  0.00  0.00    +0.000 A 
ATOM     12  C   UNL     1       6.702   4.538  14.509  0.00  0.00    +0.000 A 
ATOM     13  C   UNL     1       5.416   4.088  14.833  0.00  0.00    +0.000 A 
ATOM     14  C   UNL     1       5.016   4.137  16.180  0.00  0.00    +0.000 A 
ATOM     15  S   UNL     1       3.484   3.787  16.887  0.00  0.00    +0.000 S 
ENDBRANCH   6   7
BRANCH   1  18
ATOM     16  C   UNL     1       1.408   8.194  20.503  0.00  0.00    +0.000 A 
ATOM     17  C   UNL     1       1.503   6.816  20.757  0.00  0.00    +0.000 A 
ATOM     18  C   UNL     1       2.134   5.931  19.872  0.00  0.00    +0.000 A 
ATOM     19  C   UNL     1       2.468   6.443  18.616  0.00  0.00    +0.000 A 
ATOM     20  C   UNL     1       2.406   7.819  18.332  0.00  0.00    +0.000 A 
ATOM     21  C   UNL     1       1.879   8.719  19.282  0.00  0.00    +0.000 A 
BRANCH  16  23
ATOM     22  C   UNL     1      -0.444   8.664  21.929  0.00  0.00    +0.000 C 
ATOM     23  O   UNL     1       0.843   9.031  21.432  0.00  0.00    +0.000 OA
ENDBRANCH  16  23
BRANCH  20  24
ATOM     24  O   UNL     1       2.957   8.086  17.102  0.00  0.00    +0.000 OA
ATOM     25  C   UNL     1       4.249   7.591  16.791  0.00  0.00    +0.000 C 
ENDBRANCH  20  24
BRANCH  21  26
ATOM     26  O   UNL     1       1.856  10.038  18.914  0.00  0.00    +0.000 OA
ATOM     27  C   UNL     1       0.635  10.661  18.554  0.00  0.00    +0.000 C 
ENDBRANCH  21  26
ENDBRANCH   1  18
TORSDOF 5
ENDMDL
MODEL 9
REMARK VINA RESULT:      -6.4      9.131     11.253
REMARK  Name = 
REMARK  8 active torsions:
REMARK  status: ('A' for Active; 'I' for Inactive)
REMARK    1  A    between atoms: C_1  and  O_2
REMARK    2  A    between atoms: O_2  and  C_3
REMARK    3  A    between atoms: C_5  and  C_6
REMARK    4  A    between atoms: C_11  and  C_12
REMARK    5  A    between atoms: C_22  and  O_23
REMARK    6  A    between atoms: O_23  and  C_24
REMARK    7  A    between atoms: C_25  and  O_26
REMARK    8  A    between atoms: O_26  and  C_27
REMARK                            x       y       z     vdW  Elec       q    Type
REMARK                         _______ _______ _______ _____ _____    ______ ____
ROOT
ATOM      1  C   UNL     1       9.844  13.796  18.648  0.00  0.00    +0.000 A 
ATOM      2  N   UNL     1      10.467  13.600  17.444  0.00  0.00    +0.000 NA
ATOM      3  C   UNL     1      11.447  12.671  17.358  0.00  0.00    +0.000 A 
ATOM      4  C   UNL     1      11.873  11.915  18.428  0.00  0.00    +0.000 A 
ATOM      5  C   UNL     1      11.240  12.111  19.643  0.00  0.00    +0.000 A 
ATOM      6  C   UNL     1      10.190  13.037  19.787  0.00  0.00    +0.000 A 
ENDROOT
BRANCH   6   7
ATOM      7  C   UNL     1       9.587  13.120  21.128  0.00  0.00    +0.000 A 
ATOM      8  N   UNL     1       8.942  12.104  21.672  0.00  0.00    +0.000 NA
ATOM      9  C   UNL     1       8.502  12.435  22.939  0.00  0.00    +0.000 A 
ATOM     10  C   UNL     1       7.798  11.583  23.813  0.00  0.00    +0.000 A 
ATOM     11  C   UNL     1       7.464  12.029  25.096  0.00  0.00    +0.000 A 
ATOM     12  C   UNL     1       7.845  13.297  25.522  0.00  0.00    +0.000 A 
ATOM     13  C   UNL     1       8.523  14.171  24.663  0.00  0.00    +0.000 A 
ATOM     14  C   UNL     1       8.810  13.727  23.360  0.00  0.00    +0.000 A 
ATOM     15  S   UNL     1       9.505  14.582  22.035  0.00  0.00    +0.000 S 
ENDBRANCH   6   7
BRANCH   1  18
ATOM     16  C   UNL     1       6.397  15.339  19.009  0.00  0.00    +0.000 A 
ATOM     17  C   UNL     1       7.427  14.412  18.782  0.00  0.00    +0.000 A 
ATOM     18  C   UNL     1       8.756  14.802  18.568  0.00  0.00    +0.000 A 
ATOM     19  C   UNL     1       8.976  16.166  18.365  0.00  0.00    +0.000 A 
ATOM     20  C   UNL     1       7.977  17.126  18.602  0.00  0.00    +0.000 A 
ATOM     21  C   UNL     1       6.667  16.722  18.937  0.00  0.00    +0.000 A 
BRANCH  16  23
ATOM     22  C   UNL     1       4.281  14.640  18.163  0.00  0.00    +0.000 C 
ATOM     23  O   UNL     1       5.124  14.908  19.283  0.00  0.00    +0.000 OA
ENDBRANCH  16  23
BRANCH  20  24
ATOM     24  O   UNL     1       8.492  18.397  18.510  0.00  0.00    +0.000 OA
ATOM     25  C   UNL     1       9.829  18.580  18.075  0.00  0.00    +0.000 C 
ENDBRANCH  20  24
BRANCH  21  26
ATOM     26  O   UNL     1       5.762  17.728  19.146  0.00  0.00    +0.000 OA
ATOM     27  C   UNL     1       5.486  18.184  20.460  0.00  0.00    +0.000 C 
ENDBRANCH  21  26
ENDBRANCH   1  18
TORSDOF 5
ENDMDL
