MODEL 1
REMARK VINA RESULT:      -8.1      0.000      0.000
REMARK  Name = 
REMARK  7 active torsions:
REMARK  status: ('A' for Active; 'I' for Inactive)
REMARK    1  A    between atoms: O_1  and  C_2
REMARK    2  A    between atoms: C_2  and  C_3
REMARK    3  A    between atoms: N_5  and  C_6
REMARK    4  A    between atoms: C_6  and  C_7
REMARK    5  A    between atoms: C_13  and  N_14
REMARK    6  A    between atoms: N_19  and  C_20
REMARK    7  A    between atoms: C_20  and  C_21
REMARK                            x       y       z     vdW  Elec       q    Type
REMARK                         _______ _______ _______ _____ _____    ______ ____
ROOT
ATOM      1  N   UNL     1       3.247   7.068  18.224  0.00  0.00    +0.000 N 
ATOM      2  C   UNL     1       3.191   8.008  17.231  0.00  0.00    +0.000 A 
ATOM      3  N   UNL     1       2.319   8.954  17.500  0.00  0.00    +0.000 NA
ATOM      4  C   UNL     1       1.829   8.639  18.751  0.00  0.00    +0.000 A 
ATOM      5  C   UNL     1       0.914   9.302  19.589  0.00  0.00    +0.000 A 
ATOM      6  N   UNL     1       0.303  10.456  19.157  0.00  0.00    +0.000 N 
ATOM      7  N   UNL     1       0.662   8.766  20.808  0.00  0.00    +0.000 NA
ATOM      8  C   UNL     1       1.262   7.595  21.127  0.00  0.00    +0.000 A 
ATOM      9  N   UNL     1       2.140   6.864  20.398  0.00  0.00    +0.000 NA
ATOM     10  C   UNL     1       2.398   7.469  19.226  0.00  0.00    +0.000 A 
ATOM     11  H   UNL     1      -0.041  10.422  18.206  0.00  0.00    +0.000 HD
ENDROOT
BRANCH   1  16
ATOM     12  C   UNL     1       5.844   4.674  17.257  0.00  0.00    +0.000 C 
ATOM     13  C   UNL     1       4.916   3.612  16.620  0.00  0.00    +0.000 C 
ATOM     14  N   UNL     1       3.665   3.387  17.384  0.00  0.00    +0.000 NA
ATOM     15  C   UNL     1       3.020   4.710  17.568  0.00  0.00    +0.000 C 
ATOM     16  C   UNL     1       3.950   5.796  18.168  0.00  0.00    +0.000 C 
ATOM     17  O   UNL     1       5.152   5.940  17.368  0.00  0.00    +0.000 OA
BRANCH  12  18
ATOM     18  C   UNL     1       7.123   4.831  16.423  0.00  0.00    +0.000 C 
BRANCH  18  19
ATOM     19  O   UNL     1       7.362   6.209  16.149  0.00  0.00    +0.000 OA
ATOM     20  H   UNL     1       6.517   6.614  15.892  0.00  0.00    +0.000 HD
ENDBRANCH  18  19
ENDBRANCH  12  18
BRANCH  14  21
ATOM     21  C   UNL     1       3.900   2.763  18.704  0.00  0.00    +0.000 C 
BRANCH  21  22
ATOM     22  C   UNL     1       2.757   2.883  19.646  0.00  0.00    +0.000 A 
ATOM     23  C   UNL     1       1.410   2.607  19.559  0.00  0.00    +0.000 A 
ATOM     24  C   UNL     1       0.844   2.985  20.800  0.00  0.00    +0.000 A 
ATOM     25  C   UNL     1       1.881   3.454  21.570  0.00  0.00    +0.000 A 
ATOM     26  O   UNL     1       3.046   3.399  20.878  0.00  0.00    +0.000 OA
ENDBRANCH  21  22
ENDBRANCH  14  21
ENDBRANCH   1  16
BRANCH   6  27
ATOM     27  C   UNL     1      -0.238  11.439  20.055  0.00  0.00    +0.000 C 
BRANCH  27  28
ATOM     28  C   UNL     1      -1.683  11.723  19.684  0.00  0.00    +0.000 A 
ATOM     29  C   UNL     1      -2.230  11.178  18.519  0.00  0.00    +0.000 A 
ATOM     30  C   UNL     1      -3.565  11.423  18.223  0.00  0.00    +0.000 A 
ATOM     31  N   UNL     1      -4.384  12.161  19.001  0.00  0.00    +0.000 NA
ATOM     32  C   UNL     1      -3.847  12.668  20.128  0.00  0.00    +0.000 A 
ATOM     33  C   UNL     1      -2.530  12.473  20.515  0.00  0.00    +0.000 A 
ENDBRANCH  27  28
ENDBRANCH   6  27
TORSDOF 7
ENDMDL
MODEL 2
REMARK VINA RESULT:      -8.1      0.637      1.058
REMARK  Name = 
REMARK  7 active torsions:
REMARK  status: ('A' for Active; 'I' for Inactive)
REMARK    1  A    between atoms: O_1  and  C_2
REMARK    2  A    between atoms: C_2  and  C_3
REMARK    3  A    between atoms: N_5  and  C_6
REMARK    4  A    between atoms: C_6  and  C_7
REMARK    5  A    between atoms: C_13  and  N_14
REMARK    6  A    between atoms: N_19  and  C_20
REMARK    7  A    between atoms: C_20  and  C_21
REMARK                            x       y       z     vdW  Elec       q    Type
REMARK                         _______ _______ _______ _____ _____    ______ ____
ROOT
ATOM      1  N   UNL     1       3.196   7.224  18.317  0.00  0.00    +0.000 N 
ATOM      2  C   UNL     1       3.132   8.103  17.271  0.00  0.00    +0.000 A 
ATOM      3  N   UNL     1       2.235   9.042  17.471  0.00  0.00    +0.000 NA
ATOM      4  C   UNL     1       1.735   8.789  18.732  0.00  0.00    +0.000 A 
ATOM      5  C   UNL     1       0.793   9.478  19.519  0.00  0.00    +0.000 A 
ATOM      6  N   UNL     1       0.162  10.590  19.012  0.00  0.00    +0.000 N 
ATOM      7  N   UNL     1       0.536   9.007  20.764  0.00  0.00    +0.000 NA
ATOM      8  C   UNL     1       1.158   7.871  21.158  0.00  0.00    +0.000 A 
ATOM      9  N   UNL     1       2.063   7.121  20.485  0.00  0.00    +0.000 NA
ATOM     10  C   UNL     1       2.323   7.662  19.282  0.00  0.00    +0.000 A 
ATOM     11  H   UNL     1      -0.168  10.492  18.060  0.00  0.00    +0.000 HD
ENDROOT
BRANCH   1  16
ATOM     12  C   UNL     1       5.998   4.926  17.792  0.00  0.00    +0.000 C 
ATOM     13  C   UNL     1       5.251   3.886  16.923  0.00  0.00    +0.000 C 
ATOM     14  N   UNL     1       3.875   3.601  17.399  0.00  0.00    +0.000 NA
ATOM     15  C   UNL     1       3.171   4.902  17.511  0.00  0.00    +0.000 C 
ATOM     16  C   UNL     1       3.928   5.968  18.345  0.00  0.00    +0.000 C 
ATOM     17  O   UNL     1       5.266   6.174  17.819  0.00  0.00    +0.000 OA
BRANCH  12  18
ATOM     18  C   UNL     1       7.418   5.148  17.250  0.00  0.00    +0.000 C 
BRANCH  18  19
ATOM     19  O   UNL     1       8.258   4.058  17.620  0.00  0.00    +0.000 OA
ATOM     20  H   UNL     1       8.843   4.360  18.335  0.00  0.00    +0.000 HD
ENDBRANCH  18  19
ENDBRANCH  12  18
BRANCH  14  21
ATOM     21  C   UNL     1       3.848   2.910  18.706  0.00  0.00    +0.000 C 
BRANCH  21  22
ATOM     22  C   UNL     1       2.537   2.972  19.402  0.00  0.00    +0.000 A 
ATOM     23  C   UNL     1       1.270   2.520  19.101  0.00  0.00    +0.000 A 
ATOM     24  C   UNL     1       0.434   2.940  20.163  0.00  0.00    +0.000 A 
ATOM     25  C   UNL     1       1.244   3.608  21.051  0.00  0.00    +0.000 A 
ATOM     26  O   UNL     1       2.522   3.636  20.596  0.00  0.00    +0.000 OA
ENDBRANCH  21  22
ENDBRANCH  14  21
ENDBRANCH   1  16
BRANCH   6  27
ATOM     27  C   UNL     1      -0.415  11.611  19.843  0.00  0.00    +0.000 C 
BRANCH  27  28
ATOM     28  C   UNL     1      -1.889  11.759  19.515  0.00  0.00    +0.000 A 
ATOM     29  C   UNL     1      -2.725  12.504  20.352  0.00  0.00    +0.000 A 
ATOM     30  C   UNL     1      -4.062  12.654  20.008  0.00  0.00    +0.000 A 
ATOM     31  N   UNL     1      -4.617  12.126  18.897  0.00  0.00    +0.000 NA
ATOM     32  C   UNL     1      -3.796  11.423  18.092  0.00  0.00    +0.000 A 
ATOM     33  C   UNL     1      -2.447  11.224  18.344  0.00  0.00    +0.000 A 
ENDBRANCH  27  28
ENDBRANCH   6  27
TORSDOF 7
ENDMDL
MODEL 3
REMARK VINA RESULT:      -8.1      1.467      1.647
REMARK  Name = 
REMARK  7 active torsions:
REMARK  status: ('A' for Active; 'I' for Inactive)
REMARK    1  A    between atoms: O_1  and  C_2
REMARK    2  A    between atoms: C_2  and  C_3
REMARK    3  A    between atoms: N_5  and  C_6
REMARK    4  A    between atoms: C_6  and  C_7
REMARK    5  A    between atoms: C_13  and  N_14
REMARK    6  A    between atoms: N_19  and  C_20
REMARK    7  A    between atoms: C_20  and  C_21
REMARK                            x       y       z     vdW  Elec       q    Type
REMARK                         _______ _______ _______ _____ _____    ______ ____
ROOT
ATOM      1  N   UNL     1       3.250   7.265  18.513  0.00  0.00    +0.000 N 
ATOM      2  C   UNL     1       3.230   7.896  17.300  0.00  0.00    +0.000 A 
ATOM      3  N   UNL     1       2.280   8.802  17.232  0.00  0.00    +0.000 NA
ATOM      4  C   UNL     1       1.693   8.792  18.482  0.00  0.00    +0.000 A 
ATOM      5  C   UNL     1       0.663   9.574  19.035  0.00  0.00    +0.000 A 
ATOM      6  N   UNL     1       0.026  10.515  18.260  0.00  0.00    +0.000 N 
ATOM      7  N   UNL     1       0.330   9.364  20.332  0.00  0.00    +0.000 NA
ATOM      8  C   UNL     1       0.968   8.376  21.003  0.00  0.00    +0.000 A 
ATOM      9  N   UNL     1       1.955   7.556  20.570  0.00  0.00    +0.000 NA
ATOM     10  C   UNL     1       2.286   7.844  19.300  0.00  0.00    +0.000 A 
ATOM     11  H   UNL     1      -0.223  10.198  17.331  0.00  0.00    +0.000 HD
ENDROOT
BRANCH   1  16
ATOM     12  C   UNL     1       6.244   5.264  19.174  0.00  0.00    +0.000 C 
ATOM     13  C   UNL     1       5.990   4.159  18.121  0.00  0.00    +0.000 C 
ATOM     14  N   UNL     1       4.571   3.734  18.045  0.00  0.00    +0.000 NA
ATOM     15  C   UNL     1       3.757   4.956  17.836  0.00  0.00    +0.000 C 
ATOM     16  C   UNL     1       4.032   6.089  18.860  0.00  0.00    +0.000 C 
ATOM     17  O   UNL     1       5.442   6.431  18.878  0.00  0.00    +0.000 OA
BRANCH  12  18
ATOM     18  C   UNL     1       7.735   5.631  19.209  0.00  0.00    +0.000 C 
BRANCH  18  19
ATOM     19  O   UNL     1       8.239   5.505  20.535  0.00  0.00    +0.000 OA
ATOM     20  H   UNL     1       7.531   5.759  21.150  0.00  0.00    +0.000 HD
ENDBRANCH  18  19
ENDBRANCH  12  18
BRANCH  14  21
ATOM     21  C   UNL     1       4.111   3.036  19.265  0.00  0.00    +0.000 C 
BRANCH  21  22
ATOM     22  C   UNL     1       2.634   2.989  19.421  0.00  0.00    +0.000 A 
ATOM     23  C   UNL     1       1.750   3.520  20.334  0.00  0.00    +0.000 A 
ATOM     24  C   UNL     1       0.463   3.070  19.952  0.00  0.00    +0.000 A 
ATOM     25  C   UNL     1       0.641   2.307  18.822  0.00  0.00    +0.000 A 
ATOM     26  O   UNL     1       1.956   2.249  18.493  0.00  0.00    +0.000 OA
ENDBRANCH  21  22
ENDBRANCH  14  21
ENDBRANCH   1  16
BRANCH   6  27
ATOM     27  C   UNL     1      -0.658  11.652  18.811  0.00  0.00    +0.000 C 
BRANCH  27  28
ATOM     28  C   UNL     1      -2.105  11.644  18.353  0.00  0.00    +0.000 A 
ATOM     29  C   UNL     1      -2.431  11.227  17.059  0.00  0.00    +0.000 A 
ATOM     30  C   UNL     1      -3.767  11.194  16.678  0.00  0.00    +0.000 A 
ATOM     31  N   UNL     1      -4.788  11.538  17.489  0.00  0.00    +0.000 NA
ATOM     32  C   UNL     1      -4.461  11.924  18.738  0.00  0.00    +0.000 A 
ATOM     33  C   UNL     1      -3.160  11.982  19.215  0.00  0.00    +0.000 A 
ENDBRANCH  27  28
ENDBRANCH   6  27
TORSDOF 7
ENDMDL
MODEL 4
REMARK VINA RESULT:      -8.1      1.973      4.224
REMARK  Name = 
REMARK  7 active torsions:
REMARK  status: ('A' for Active; 'I' for Inactive)
REMARK    1  A    between atoms: O_1  and  C_2
REMARK    2  A    between atoms: C_2  and  C_3
REMARK    3  A    between atoms: N_5  and  C_6
REMARK    4  A    between atoms: C_6  and  C_7
REMARK    5  A    between atoms: C_13  and  N_14
REMARK    6  A    between atoms: N_19  and  C_20
REMARK    7  A    between atoms: C_20  and  C_21
REMARK                            x       y       z     vdW  Elec       q    Type
REMARK                         _______ _______ _______ _____ _____    ______ ____
ROOT
ATOM      1  N   UNL     1       2.341   6.603  19.376  0.00  0.00    +0.000 N 
ATOM      2  C   UNL     1       1.727   6.561  20.598  0.00  0.00    +0.000 A 
ATOM      3  N   UNL     1       1.237   7.731  20.942  0.00  0.00    +0.000 NA
ATOM      4  C   UNL     1       1.500   8.554  19.866  0.00  0.00    +0.000 A 
ATOM      5  C   UNL     1       1.172   9.900  19.618  0.00  0.00    +0.000 A 
ATOM      6  N   UNL     1       0.513  10.632  20.578  0.00  0.00    +0.000 N 
ATOM      7  N   UNL     1       1.529  10.433  18.424  0.00  0.00    +0.000 NA
ATOM      8  C   UNL     1       2.228   9.658  17.562  0.00  0.00    +0.000 A 
ATOM      9  N   UNL     1       2.611   8.366  17.700  0.00  0.00    +0.000 NA
ATOM     10  C   UNL     1       2.183   7.871  18.874  0.00  0.00    +0.000 A 
ATOM     11  H   UNL     1       0.873  10.516  21.518  0.00  0.00    +0.000 HD
ENDROOT
BRANCH   1  16
ATOM     12  C   UNL     1       3.167   3.262  18.125  0.00  0.00    +0.000 C 
ATOM     13  C   UNL     1       4.398   3.004  19.027  0.00  0.00    +0.000 C 
ATOM     14  N   UNL     1       5.271   4.193  19.186  0.00  0.00    +0.000 NA
ATOM     15  C   UNL     1       4.412   5.308  19.653  0.00  0.00    +0.000 C 
ATOM     16  C   UNL     1       3.152   5.551  18.783  0.00  0.00    +0.000 C 
ATOM     17  O   UNL     1       2.366   4.337  18.669  0.00  0.00    +0.000 OA
BRANCH  12  18
ATOM     18  C   UNL     1       2.330   1.982  17.991  0.00  0.00    +0.000 C 
BRANCH  18  19
ATOM     19  O   UNL     1       1.346   1.931  19.021  0.00  0.00    +0.000 OA
ATOM     20  H   UNL     1       1.356   2.784  19.486  0.00  0.00    +0.000 HD
ENDBRANCH  18  19
ENDBRANCH  12  18
BRANCH  14  21
ATOM     21  C   UNL     1       5.949   4.583  17.931  0.00  0.00    +0.000 C 
BRANCH  21  22
ATOM     22  C   UNL     1       6.815   5.784  18.055  0.00  0.00    +0.000 A 
ATOM     23  C   UNL     1       7.855   6.133  18.889  0.00  0.00    +0.000 A 
ATOM     24  C   UNL     1       8.236   7.447  18.523  0.00  0.00    +0.000 A 
ATOM     25  C   UNL     1       7.416   7.810  17.480  0.00  0.00    +0.000 A 
ATOM     26  O   UNL     1       6.548   6.808  17.191  0.00  0.00    +0.000 OA
ENDBRANCH  21  22
ENDBRANCH  14  21
ENDBRANCH   1  16
BRANCH   6  27
ATOM     27  C   UNL     1      -0.272  11.796  20.275  0.00  0.00    +0.000 C 
BRANCH  27  28
ATOM     28  C   UNL     1      -1.365  11.955  21.317  0.00  0.00    +0.000 A 
ATOM     29  C   UNL     1      -2.573  12.573  20.979  0.00  0.00    +0.000 A 
ATOM     30  C   UNL     1      -3.570  12.672  21.942  0.00  0.00    +0.000 A 
ATOM     31  N   UNL     1      -3.451  12.199  23.199  0.00  0.00    +0.000 NA
ATOM     32  C   UNL     1      -2.288  11.593  23.506  0.00  0.00    +0.000 A 
ATOM     33  C   UNL     1      -1.237  11.437  22.615  0.00  0.00    +0.000 A 
ENDBRANCH  27  28
ENDBRANCH   6  27
TORSDOF 7
ENDMDL
MODEL 5
REMARK VINA RESULT:      -8.0      2.300      4.583
REMARK  Name = 
REMARK  7 active torsions:
REMARK  status: ('A' for Active; 'I' for Inactive)
REMARK    1  A    between atoms: O_1  and  C_2
REMARK    2  A    between atoms: C_2  and  C_3
REMARK    3  A    between atoms: N_5  and  C_6
REMARK    4  A    between atoms: C_6  and  C_7
REMARK    5  A    between atoms: C_13  and  N_14
REMARK    6  A    between atoms: N_19  and  C_20
REMARK    7  A    between atoms: C_20  and  C_21
REMARK                            x       y       z     vdW  Elec       q    Type
REMARK                         _______ _______ _______ _____ _____    ______ ____
ROOT
ATOM      1  N   UNL     1       2.369   6.593  19.398  0.00  0.00    +0.000 N 
ATOM      2  C   UNL     1       1.851   6.483  20.660  0.00  0.00    +0.000 A 
ATOM      3  N   UNL     1       1.306   7.607  21.068  0.00  0.00    +0.000 NA
ATOM      4  C   UNL     1       1.432   8.469  19.997  0.00  0.00    +0.000 A 
ATOM      5  C   UNL     1       0.993   9.792  19.807  0.00  0.00    +0.000 A 
ATOM      6  N   UNL     1       0.356  10.455  20.831  0.00  0.00    +0.000 N 
ATOM      7  N   UNL     1       1.223  10.374  18.605  0.00  0.00    +0.000 NA
ATOM      8  C   UNL     1       1.910   9.669  17.675  0.00  0.00    +0.000 A 
ATOM      9  N   UNL     1       2.391   8.405  17.753  0.00  0.00    +0.000 NA
ATOM     10  C   UNL     1       2.087   7.856  18.942  0.00  0.00    +0.000 A 
ATOM     11  H   UNL     1       0.791  10.347  21.739  0.00  0.00    +0.000 HD
ENDROOT
BRANCH   1  16
ATOM     12  C   UNL     1       3.299   3.372  17.925  0.00  0.00    +0.000 C 
ATOM     13  C   UNL     1       4.563   3.113  18.779  0.00  0.00    +0.000 C 
ATOM     14  N   UNL     1       5.390   4.326  18.989  0.00  0.00    +0.000 NA
ATOM     15  C   UNL     1       4.499   5.374  19.545  0.00  0.00    +0.000 C 
ATOM     16  C   UNL     1       3.207   5.615  18.722  0.00  0.00    +0.000 C 
ATOM     17  O   UNL     1       2.469   4.377  18.553  0.00  0.00    +0.000 OA
BRANCH  12  18
ATOM     18  C   UNL     1       2.511   2.068  17.733  0.00  0.00    +0.000 C 
BRANCH  18  19
ATOM     19  O   UNL     1       1.957   1.644  18.976  0.00  0.00    +0.000 OA
ATOM     20  H   UNL     1       1.436   2.380  19.337  0.00  0.00    +0.000 HD
ENDBRANCH  18  19
ENDBRANCH  12  18
BRANCH  14  21
ATOM     21  C   UNL     1       6.018   4.820  17.745  0.00  0.00    +0.000 C 
BRANCH  21  22
ATOM     22  C   UNL     1       6.891   6.008  17.933  0.00  0.00    +0.000 A 
ATOM     23  C   UNL     1       7.897   6.326  18.818  0.00  0.00    +0.000 A 
ATOM     24  C   UNL     1       8.308   7.643  18.498  0.00  0.00    +0.000 A 
ATOM     25  C   UNL     1       7.538   8.038  17.430  0.00  0.00    +0.000 A 
ATOM     26  O   UNL     1       6.673   7.054  17.081  0.00  0.00    +0.000 OA
ENDBRANCH  21  22
ENDBRANCH  14  21
ENDBRANCH   1  16
BRANCH   6  27
ATOM     27  C   UNL     1      -0.529  11.566  20.614  0.00  0.00    +0.000 C 
BRANCH  27  28
ATOM     28  C   UNL     1       0.043  12.807  21.275  0.00  0.00    +0.000 A 
ATOM     29  C   UNL     1       1.308  13.278  20.910  0.00  0.00    +0.000 A 
ATOM     30  C   UNL     1       1.792  14.436  21.504  0.00  0.00    +0.000 A 
ATOM     31  N   UNL     1       1.109  15.153  22.420  0.00  0.00    +0.000 NA
ATOM     32  C   UNL     1      -0.114  14.696  22.751  0.00  0.00    +0.000 A 
ATOM     33  C   UNL     1      -0.688  13.556  22.210  0.00  0.00    +0.000 A 
ENDBRANCH  27  28
ENDBRANCH   6  27
TORSDOF 7
ENDMDL
MODEL 6
REMARK VINA RESULT:      -7.9      2.293      4.523
REMARK  Name = 
REMARK  7 active torsions:
REMARK  status: ('A' for Active; 'I' for Inactive)
REMARK    1  A    between atoms: O_1  and  C_2
REMARK    2  A    between atoms: C_2  and  C_3
REMARK    3  A    between atoms: N_5  and  C_6
REMARK    4  A    between atoms: C_6  and  C_7
REMARK    5  A    between atoms: C_13  and  N_14
REMARK    6  A    between atoms: N_19  and  C_20
REMARK    7  A    between atoms: C_20  and  C_21
REMARK                            x       y       z     vdW  Elec       q    Type
REMARK                         _______ _______ _______ _____ _____    ______ ____
ROOT
ATOM      1  N   UNL     1       2.451   6.415  19.433  0.00  0.00    +0.000 N 
ATOM      2  C   UNL     1       1.858   6.294  20.660  0.00  0.00    +0.000 A 
ATOM      3  N   UNL     1       1.267   7.407  21.032  0.00  0.00    +0.000 NA
ATOM      4  C   UNL     1       1.442   8.272  19.970  0.00  0.00    +0.000 A 
ATOM      5  C   UNL     1       0.990   9.586  19.753  0.00  0.00    +0.000 A 
ATOM      6  N   UNL     1       0.278  10.236  20.735  0.00  0.00    +0.000 N 
ATOM      7  N   UNL     1       1.283  10.173  18.567  0.00  0.00    +0.000 NA
ATOM      8  C   UNL     1       2.040   9.482  17.682  0.00  0.00    +0.000 A 
ATOM      9  N   UNL     1       2.541   8.228  17.791  0.00  0.00    +0.000 NA
ATOM     10  C   UNL     1       2.173   7.673  18.958  0.00  0.00    +0.000 A 
ATOM     11  H   UNL     1       0.657  10.136  21.668  0.00  0.00    +0.000 HD
ENDROOT
BRANCH   1  16
ATOM     12  C   UNL     1       3.603   3.166  18.196  0.00  0.00    +0.000 C 
ATOM     13  C   UNL     1       4.907   3.082  19.025  0.00  0.00    +0.000 C 
ATOM     14  N   UNL     1       5.636   4.371  19.108  0.00  0.00    +0.000 NA
ATOM     15  C   UNL     1       4.678   5.387  19.606  0.00  0.00    +0.000 C 
ATOM     16  C   UNL     1       3.348   5.454  18.811  0.00  0.00    +0.000 C 
ATOM     17  O   UNL     1       2.710   4.151  18.768  0.00  0.00    +0.000 OA
BRANCH  12  18
ATOM     18  C   UNL     1       2.921   1.792  18.138  0.00  0.00    +0.000 C 
BRANCH  18  19
ATOM     19  O   UNL     1       3.880   0.761  18.361  0.00  0.00    +0.000 OA
ATOM     20  H   UNL     1       4.680   0.983  17.857  0.00  0.00    +0.000 HD
ENDBRANCH  18  19
ENDBRANCH  12  18
BRANCH  14  21
ATOM     21  C   UNL     1       6.188   4.807  17.807  0.00  0.00    +0.000 C 
BRANCH  21  22
ATOM     22  C   UNL     1       6.843   6.140  17.839  0.00  0.00    +0.000 A 
ATOM     23  C   UNL     1       6.653   7.318  17.149  0.00  0.00    +0.000 A 
ATOM     24  C   UNL     1       7.643   8.217  17.615  0.00  0.00    +0.000 A 
ATOM     25  C   UNL     1       8.363   7.537  18.569  0.00  0.00    +0.000 A 
ATOM     26  O   UNL     1       7.888   6.275  18.710  0.00  0.00    +0.000 OA
ENDBRANCH  21  22
ENDBRANCH  14  21
ENDBRANCH   1  16
BRANCH   6  27
ATOM     27  C   UNL     1      -0.613  11.330  20.463  0.00  0.00    +0.000 C 
BRANCH  27  28
ATOM     28  C   UNL     1      -0.063  12.600  21.086  0.00  0.00    +0.000 A 
ATOM     29  C   UNL     1      -0.805  13.289  22.049  0.00  0.00    +0.000 A 
ATOM     30  C   UNL     1      -0.261  14.428  22.630  0.00  0.00    +0.000 A 
ATOM     31  N   UNL     1       0.958  14.919  22.326  0.00  0.00    +0.000 NA
ATOM     32  C   UNL     1       1.668  14.236  21.406  0.00  0.00    +0.000 A 
ATOM     33  C   UNL     1       1.217  13.085  20.777  0.00  0.00    +0.000 A 
ENDBRANCH  27  28
ENDBRANCH   6  27
TORSDOF 7
ENDMDL
MODEL 7
REMARK VINA RESULT:      -7.9      3.935      9.628
REMARK  Name = 
REMARK  7 active torsions:
REMARK  status: ('A' for Active; 'I' for Inactive)
REMARK    1  A    between atoms: O_1  and  C_2
REMARK    2  A    between atoms: C_2  and  C_3
REMARK    3  A    between atoms: N_5  and  C_6
REMARK    4  A    between atoms: C_6  and  C_7
REMARK    5  A    between atoms: C_13  and  N_14
REMARK    6  A    between atoms: N_19  and  C_20
REMARK    7  A    between atoms: C_20  and  C_21
REMARK                            x       y       z     vdW  Elec       q    Type
REMARK                         _______ _______ _______ _____ _____    ______ ____
ROOT
ATOM      1  N   UNL     1       0.518  10.141  21.194  0.00  0.00    +0.000 N 
ATOM      2  C   UNL     1       0.745   9.134  22.092  0.00  0.00    +0.000 A 
ATOM      3  N   UNL     1       1.310   8.091  21.528  0.00  0.00    +0.000 NA
ATOM      4  C   UNL     1       1.506   8.463  20.214  0.00  0.00    +0.000 A 
ATOM      5  C   UNL     1       2.116   7.795  19.136  0.00  0.00    +0.000 A 
ATOM      6  N   UNL     1       2.591   6.515  19.304  0.00  0.00    +0.000 N 
ATOM      7  N   UNL     1       2.208   8.448  17.951  0.00  0.00    +0.000 NA
ATOM      8  C   UNL     1       1.660   9.682  17.858  0.00  0.00    +0.000 A 
ATOM      9  N   UNL     1       1.038  10.410  18.817  0.00  0.00    +0.000 NA
ATOM     10  C   UNL     1       1.025   9.741  19.983  0.00  0.00    +0.000 A 
ATOM     11  H   UNL     1       1.967   5.895  19.805  0.00  0.00    +0.000 HD
ENDROOT
BRANCH   1  16
ATOM     12  C   UNL     1      -0.115  13.680  21.891  0.00  0.00    +0.000 C 
ATOM     13  C   UNL     1      -0.972  13.488  23.166  0.00  0.00    +0.000 C 
ATOM     14  N   UNL     1      -1.931  12.361  23.066  0.00  0.00    +0.000 NA
ATOM     15  C   UNL     1      -1.156  11.157  22.682  0.00  0.00    +0.000 C 
ATOM     16  C   UNL     1      -0.260  11.347  21.430  0.00  0.00    +0.000 C 
ATOM     17  O   UNL     1       0.635  12.476  21.607  0.00  0.00    +0.000 OA
BRANCH  12  18
ATOM     18  C   UNL     1       0.832  14.876  22.064  0.00  0.00    +0.000 C 
BRANCH  18  19
ATOM     19  O   UNL     1       2.183  14.425  22.116  0.00  0.00    +0.000 OA
ATOM     20  H   UNL     1       2.211  13.522  21.760  0.00  0.00    +0.000 HD
ENDBRANCH  18  19
ENDBRANCH  12  18
BRANCH  14  21
ATOM     21  C   UNL     1      -3.000  12.599  22.073  0.00  0.00    +0.000 C 
BRANCH  21  22
ATOM     22  C   UNL     1      -4.361  12.712  22.658  0.00  0.00    +0.000 A 
ATOM     23  C   UNL     1      -5.581  13.129  22.172  0.00  0.00    +0.000 A 
ATOM     24  C   UNL     1      -6.493  13.038  23.252  0.00  0.00    +0.000 A 
ATOM     25  C   UNL     1      -5.776  12.558  24.322  0.00  0.00    +0.000 A 
ATOM     26  O   UNL     1      -4.481  12.359  23.973  0.00  0.00    +0.000 OA
ENDBRANCH  21  22
ENDBRANCH  14  21
ENDBRANCH   1  16
BRANCH   6  27
ATOM     27  C   UNL     1       3.618   5.945  18.476  0.00  0.00    +0.000 C 
BRANCH  27  28
ATOM     28  C   UNL     1       3.491   4.432  18.482  0.00  0.00    +0.000 A 
ATOM     29  C   UNL     1       4.243   3.667  19.378  0.00  0.00    +0.000 A 
ATOM     30  C   UNL     1       4.080   2.287  19.386  0.00  0.00    +0.000 A 
ATOM     31  N   UNL     1       3.227   1.626  18.578  0.00  0.00    +0.000 NA
ATOM     32  C   UNL     1       2.498   2.377  17.730  0.00  0.00    +0.000 A 
ATOM     33  C   UNL     1       2.582   3.759  17.651  0.00  0.00    +0.000 A 
ENDBRANCH  27  28
ENDBRANCH   6  27
TORSDOF 7
ENDMDL
MODEL 8
REMARK VINA RESULT:      -7.8      1.491      2.155
REMARK  Name = 
REMARK  7 active torsions:
REMARK  status: ('A' for Active; 'I' for Inactive)
REMARK    1  A    between atoms: O_1  and  C_2
REMARK    2  A    between atoms: C_2  and  C_3
REMARK    3  A    between atoms: N_5  and  C_6
REMARK    4  A    between atoms: C_6  and  C_7
REMARK    5  A    between atoms: C_13  and  N_14
REMARK    6  A    between atoms: N_19  and  C_20
REMARK    7  A    between atoms: C_20  and  C_21
REMARK                            x       y       z     vdW  Elec       q    Type
REMARK                         _______ _______ _______ _____ _____    ______ ____
ROOT
ATOM      1  N   UNL     1       3.224   7.108  18.194  0.00  0.00    +0.000 N 
ATOM      2  C   UNL     1       3.125   8.024  17.183  0.00  0.00    +0.000 A 
ATOM      3  N   UNL     1       2.241   8.959  17.451  0.00  0.00    +0.000 NA
ATOM      4  C   UNL     1       1.787   8.662  18.720  0.00  0.00    +0.000 A 
ATOM      5  C   UNL     1       0.878   9.325  19.565  0.00  0.00    +0.000 A 
ATOM      6  N   UNL     1       0.234  10.457  19.123  0.00  0.00    +0.000 N 
ATOM      7  N   UNL     1       0.665   8.811  20.801  0.00  0.00    +0.000 NA
ATOM      8  C   UNL     1       1.296   7.659  21.131  0.00  0.00    +0.000 A 
ATOM      9  N   UNL     1       2.172   6.931  20.398  0.00  0.00    +0.000 NA
ATOM     10  C   UNL     1       2.390   7.514  19.207  0.00  0.00    +0.000 A 
ATOM     11  H   UNL     1      -0.131  10.395  18.181  0.00  0.00    +0.000 HD
ENDROOT
BRANCH   1  16
ATOM     12  C   UNL     1       5.840   4.742  17.211  0.00  0.00    +0.000 C 
ATOM     13  C   UNL     1       4.916   3.646  16.628  0.00  0.00    +0.000 C 
ATOM     14  N   UNL     1       3.693   3.416  17.434  0.00  0.00    +0.000 NA
ATOM     15  C   UNL     1       3.026   4.730  17.605  0.00  0.00    +0.000 C 
ATOM     16  C   UNL     1       3.951   5.849  18.149  0.00  0.00    +0.000 C 
ATOM     17  O   UNL     1       5.126   5.996  17.310  0.00  0.00    +0.000 OA
BRANCH  12  18
ATOM     18  C   UNL     1       7.091   4.903  16.335  0.00  0.00    +0.000 C 
BRANCH  18  19
ATOM     19  O   UNL     1       7.435   6.282  16.223  0.00  0.00    +0.000 OA
ATOM     20  H   UNL     1       6.637   6.768  15.958  0.00  0.00    +0.000 HD
ENDBRANCH  18  19
ENDBRANCH  12  18
BRANCH  14  21
ATOM     21  C   UNL     1       3.979   2.831  18.762  0.00  0.00    +0.000 C 
BRANCH  21  22
ATOM     22  C   UNL     1       2.842   2.901  19.716  0.00  0.00    +0.000 A 
ATOM     23  C   UNL     1       1.523   2.505  19.666  0.00  0.00    +0.000 A 
ATOM     24  C   UNL     1       0.941   2.899  20.895  0.00  0.00    +0.000 A 
ATOM     25  C   UNL     1       1.944   3.496  21.623  0.00  0.00    +0.000 A 
ATOM     26  O   UNL     1       3.100   3.505  20.914  0.00  0.00    +0.000 OA
ENDBRANCH  21  22
ENDBRANCH  14  21
ENDBRANCH   1  16
BRANCH   6  27
ATOM     27  C   UNL     1      -0.306  11.449  20.011  0.00  0.00    +0.000 C 
BRANCH  27  28
ATOM     28  C   UNL     1       0.311  12.800  19.698  0.00  0.00    +0.000 A 
ATOM     29  C   UNL     1      -0.480  13.833  19.187  0.00  0.00    +0.000 A 
ATOM     30  C   UNL     1       0.102  15.070  18.944  0.00  0.00    +0.000 A 
ATOM     31  N   UNL     1       1.401  15.349  19.178  0.00  0.00    +0.000 NA
ATOM     32  C   UNL     1       2.149  14.348  19.684  0.00  0.00    +0.000 A 
ATOM     33  C   UNL     1       1.659  13.083  19.968  0.00  0.00    +0.000 A 
ENDBRANCH  27  28
ENDBRANCH   6  27
TORSDOF 7
ENDMDL
MODEL 9
REMARK VINA RESULT:      -7.8      4.205      9.778
REMARK  Name = 
REMARK  7 active torsions:
REMARK  status: ('A' for Active; 'I' for Inactive)
REMARK    1  A    between atoms: O_1  and  C_2
REMARK    2  A    between atoms: C_2  and  C_3
REMARK    3  A    between atoms: N_5  and  C_6
REMARK    4  A    between atoms: C_6  and  C_7
REMARK    5  A    between atoms: C_13  and  N_14
REMARK    6  A    between atoms: N_19  and  C_20
REMARK    7  A    between atoms: C_20  and  C_21
REMARK                            x       y       z     vdW  Elec       q    Type
REMARK                         _______ _______ _______ _____ _____    ______ ____
ROOT
ATOM      1  N   UNL     1       0.438  10.220  21.341  0.00  0.00    +0.000 N 
ATOM      2  C   UNL     1       0.722   9.263  22.278  0.00  0.00    +0.000 A 
ATOM      3  N   UNL     1       1.299   8.209  21.745  0.00  0.00    +0.000 NA
ATOM      4  C   UNL     1       1.443   8.524  20.409  0.00  0.00    +0.000 A 
ATOM      5  C   UNL     1       2.036   7.822  19.343  0.00  0.00    +0.000 A 
ATOM      6  N   UNL     1       2.553   6.565  19.556  0.00  0.00    +0.000 N 
ATOM      7  N   UNL     1       2.072   8.420  18.127  0.00  0.00    +0.000 NA
ATOM      8  C   UNL     1       1.486   9.633  17.995  0.00  0.00    +0.000 A 
ATOM      9  N   UNL     1       0.875  10.389  18.939  0.00  0.00    +0.000 NA
ATOM     10  C   UNL     1       0.918   9.776  20.134  0.00  0.00    +0.000 A 
ATOM     11  H   UNL     1       1.963   5.953  20.105  0.00  0.00    +0.000 HD
ENDROOT
BRANCH   1  16
ATOM     12  C   UNL     1      -0.272  13.762  21.938  0.00  0.00    +0.000 C 
ATOM     13  C   UNL     1      -1.118  13.588  23.223  0.00  0.00    +0.000 C 
ATOM     14  N   UNL     1      -2.051  12.437  23.162  0.00  0.00    +0.000 NA
ATOM     15  C   UNL     1      -1.251  11.240  22.808  0.00  0.00    +0.000 C 
ATOM     16  C   UNL     1      -0.366  11.414  21.546  0.00  0.00    +0.000 C 
ATOM     17  O   UNL     1       0.504  12.567  21.686  0.00  0.00    +0.000 OA
BRANCH  12  18
ATOM     18  C   UNL     1       0.649  14.983  22.070  0.00  0.00    +0.000 C 
BRANCH  18  19
ATOM     19  O   UNL     1       0.574  15.512  23.392  0.00  0.00    +0.000 OA
ATOM     20  H   UNL     1       1.181  15.001  23.953  0.00  0.00    +0.000 HD
ENDBRANCH  18  19
ENDBRANCH  12  18
BRANCH  14  21
ATOM     21  C   UNL     1      -3.131  12.622  22.167  0.00  0.00    +0.000 C 
BRANCH  21  22
ATOM     22  C   UNL     1      -4.485  12.777  22.760  0.00  0.00    +0.000 A 
ATOM     23  C   UNL     1      -4.954  13.236  23.971  0.00  0.00    +0.000 A 
ATOM     24  C   UNL     1      -6.361  13.085  23.937  0.00  0.00    +0.000 A 
ATOM     25  C   UNL     1      -6.663  12.558  22.704  0.00  0.00    +0.000 A 
ATOM     26  O   UNL     1      -5.531  12.365  21.982  0.00  0.00    +0.000 OA
ENDBRANCH  21  22
ENDBRANCH  14  21
ENDBRANCH   1  16
BRANCH   6  27
ATOM     27  C   UNL     1       3.568   5.984  18.721  0.00  0.00    +0.000 C 
BRANCH  27  28
ATOM     28  C   UNL     1       3.385   4.477  18.674  0.00  0.00    +0.000 A 
ATOM     29  C   UNL     1       2.452   3.910  17.802  0.00  0.00    +0.000 A 
ATOM     30  C   UNL     1       2.330   2.527  17.753  0.00  0.00    +0.000 A 
ATOM     31  N   UNL     1       3.069   1.680  18.500  0.00  0.00    +0.000 NA
ATOM     32  C   UNL     1       3.975   2.241  19.325  0.00  0.00    +0.000 A 
ATOM     33  C   UNL     1       4.177   3.608  19.440  0.00  0.00    +0.000 A 
ENDBRANCH  27  28
ENDBRANCH   6  27
TORSDOF 7
ENDMDL
