MODEL 1
REMARK VINA RESULT:      -7.6      0.000      0.000
REMARK  Name = 
REMARK  7 active torsions:
REMARK  status: ('A' for Active; 'I' for Inactive)
REMARK    1  A    between atoms: C_1  and  O_2
REMARK    2  A    between atoms: O_2  and  C_3
REMARK    3  A    between atoms: C_8  and  N_9
REMARK    4  A    between atoms: N_9  and  S_10
REMARK    5  A    between atoms: S_10  and  C_13
REMARK    6  A    between atoms: C_16  and  O_17
REMARK    7  A    between atoms: O_17  and  C_18
REMARK                            x       y       z     vdW  Elec       q    Type
REMARK                         _______ _______ _______ _____ _____    ______ ____
ROOT
ATOM      1  S   UNL     1       3.636   2.791  18.175  0.00  0.00    +0.000 S 
ATOM      2  O   UNL     1       4.162   2.768  19.523  0.00  0.00    +0.000 OA
ATOM      3  O   UNL     1       3.398   1.568  17.432  0.00  0.00    +0.000 OA
ENDROOT
BRANCH   1   4
ATOM      4  C   UNL     1       4.715   3.829  17.191  0.00  0.00    +0.000 A 
ATOM      5  C   UNL     1       4.677   3.629  15.808  0.00  0.00    +0.000 A 
ATOM      6  C   UNL     1       5.621   4.223  14.993  0.00  0.00    +0.000 A 
ATOM      7  C   UNL     1       6.651   4.959  15.581  0.00  0.00    +0.000 A 
ATOM      8  C   UNL     1       6.787   5.074  16.965  0.00  0.00    +0.000 A 
ATOM      9  N   UNL     1       7.930   5.561  17.493  0.00  0.00    +0.000 NA
ATOM     10  C   UNL     1       8.016   5.766  18.817  0.00  0.00    +0.000 A 
ATOM     11  C   UNL     1       6.940   5.643  19.659  0.00  0.00    +0.000 A 
ATOM     12  C   UNL     1       5.789   5.046  19.148  0.00  0.00    +0.000 A 
ATOM     13  C   UNL     1       5.727   4.633  17.790  0.00  0.00    +0.000 A 
BRANCH   7  14
ATOM     14  O   UNL     1       7.517   5.525  14.658  0.00  0.00    +0.000 OA
ATOM     15  C   UNL     1       7.431   4.922  13.364  0.00  0.00    +0.000 C 
ENDBRANCH   7  14
ENDBRANCH   1   4
BRANCH   1  16
ATOM     16  N   UNL     1       2.154   3.628  18.099  0.00  0.00    +0.000 N 
ATOM     17  H   UNL     1       1.420   2.968  18.362  0.00  0.00    +0.000 HD
BRANCH  16  23
ATOM     18  C   UNL     1       1.591   4.949  20.126  0.00  0.00    +0.000 A 
ATOM     19  C   UNL     1       1.559   6.197  20.762  0.00  0.00    +0.000 A 
ATOM     20  C   UNL     1       2.023   7.340  20.120  0.00  0.00    +0.000 A 
ATOM     21  C   UNL     1       2.493   7.257  18.816  0.00  0.00    +0.000 A 
ATOM     22  C   UNL     1       2.491   6.031  18.147  0.00  0.00    +0.000 A 
ATOM     23  C   UNL     1       2.041   4.879  18.794  0.00  0.00    +0.000 A 
BRANCH  18  25
ATOM     24  C   UNL     1       2.068   3.367  21.821  0.00  0.00    +0.000 C 
ATOM     25  O   UNL     1       1.206   3.797  20.764  0.00  0.00    +0.000 OA
ENDBRANCH  18  25
ENDBRANCH  16  23
ENDBRANCH   1  16
TORSDOF 5
ENDMDL
MODEL 2
REMARK VINA RESULT:      -7.2      1.874      2.376
REMARK  Name = 
REMARK  7 active torsions:
REMARK  status: ('A' for Active; 'I' for Inactive)
REMARK    1  A    between atoms: C_1  and  O_2
REMARK    2  A    between atoms: O_2  and  C_3
REMARK    3  A    between atoms: C_8  and  N_9
REMARK    4  A    between atoms: N_9  and  S_10
REMARK    5  A    between atoms: S_10  and  C_13
REMARK    6  A    between atoms: C_16  and  O_17
REMARK    7  A    between atoms: O_17  and  C_18
REMARK                            x       y       z     vdW  Elec       q    Type
REMARK                         _______ _______ _______ _____ _____    ______ ____
ROOT
ATOM      1  S   UNL     1       2.989   4.542  19.306  0.00  0.00    +0.000 S 
ATOM      2  O   UNL     1       3.424   3.479  20.187  0.00  0.00    +0.000 OA
ATOM      3  O   UNL     1       1.664   4.544  18.715  0.00  0.00    +0.000 OA
ENDROOT
BRANCH   1   4
ATOM      4  C   UNL     1       4.183   4.665  17.977  0.00  0.00    +0.000 A 
ATOM      5  C   UNL     1       3.759   4.227  16.719  0.00  0.00    +0.000 A 
ATOM      6  C   UNL     1       4.670   4.080  15.689  0.00  0.00    +0.000 A 
ATOM      7  C   UNL     1       6.023   4.303  15.950  0.00  0.00    +0.000 A 
ATOM      8  C   UNL     1       6.492   4.622  17.226  0.00  0.00    +0.000 A 
ATOM      9  N   UNL     1       7.815   4.567  17.491  0.00  0.00    +0.000 NA
ATOM     10  C   UNL     1       8.269   4.973  18.687  0.00  0.00    +0.000 A 
ATOM     11  C   UNL     1       7.468   5.586  19.617  0.00  0.00    +0.000 A 
ATOM     12  C   UNL     1       6.092   5.555  19.400  0.00  0.00    +0.000 A 
ATOM     13  C   UNL     1       5.555   4.956  18.230  0.00  0.00    +0.000 A 
BRANCH   7  14
ATOM     14  O   UNL     1       6.829   4.150  14.834  0.00  0.00    +0.000 OA
ATOM     15  C   UNL     1       6.096   3.818  13.652  0.00  0.00    +0.000 C 
ENDBRANCH   7  14
ENDBRANCH   1   4
BRANCH   1  16
ATOM     16  N   UNL     1       3.119   6.065  20.058  0.00  0.00    +0.000 N 
ATOM     17  H   UNL     1       4.109   6.227  20.247  0.00  0.00    +0.000 HD
BRANCH  16  23
ATOM     18  C   UNL     1       1.660   8.075  20.142  0.00  0.00    +0.000 A 
ATOM     19  C   UNL     1       1.126   9.187  19.477  0.00  0.00    +0.000 A 
ATOM     20  C   UNL     1       1.458   9.456  18.154  0.00  0.00    +0.000 A 
ATOM     21  C   UNL     1       2.301   8.597  17.464  0.00  0.00    +0.000 A 
ATOM     22  C   UNL     1       2.809   7.457  18.093  0.00  0.00    +0.000 A 
ATOM     23  C   UNL     1       2.491   7.192  19.427  0.00  0.00    +0.000 A 
BRANCH  18  25
ATOM     24  C   UNL     1       1.023   8.969  22.239  0.00  0.00    +0.000 C 
ATOM     25  O   UNL     1       1.406   7.828  21.468  0.00  0.00    +0.000 OA
ENDBRANCH  18  25
ENDBRANCH  16  23
ENDBRANCH   1  16
TORSDOF 5
ENDMDL
MODEL 3
REMARK VINA RESULT:      -7.1      1.277      2.656
REMARK  Name = 
REMARK  7 active torsions:
REMARK  status: ('A' for Active; 'I' for Inactive)
REMARK    1  A    between atoms: C_1  and  O_2
REMARK    2  A    between atoms: O_2  and  C_3
REMARK    3  A    between atoms: C_8  and  N_9
REMARK    4  A    between atoms: N_9  and  S_10
REMARK    5  A    between atoms: S_10  and  C_13
REMARK    6  A    between atoms: C_16  and  O_17
REMARK    7  A    between atoms: O_17  and  C_18
REMARK                            x       y       z     vdW  Elec       q    Type
REMARK                         _______ _______ _______ _____ _____    ______ ____
ROOT
ATOM      1  S   UNL     1       4.189   3.068  18.522  0.00  0.00    +0.000 S 
ATOM      2  O   UNL     1       4.266   2.950  19.963  0.00  0.00    +0.000 OA
ATOM      3  O   UNL     1       4.197   1.899  17.663  0.00  0.00    +0.000 OA
ENDROOT
BRANCH   1   4
ATOM      4  C   UNL     1       5.521   4.145  17.996  0.00  0.00    +0.000 A 
ATOM      5  C   UNL     1       6.010   5.040  18.952  0.00  0.00    +0.000 A 
ATOM      6  C   UNL     1       6.878   6.049  18.581  0.00  0.00    +0.000 A 
ATOM      7  C   UNL     1       7.194   6.203  17.230  0.00  0.00    +0.000 A 
ATOM      8  C   UNL     1       6.625   5.403  16.237  0.00  0.00    +0.000 A 
ATOM      9  N   UNL     1       6.746   5.751  14.938  0.00  0.00    +0.000 NA
ATOM     10  C   UNL     1       6.287   4.926  13.984  0.00  0.00    +0.000 A 
ATOM     11  C   UNL     1       5.825   3.663  14.254  0.00  0.00    +0.000 A 
ATOM     12  C   UNL     1       5.600   3.332  15.589  0.00  0.00    +0.000 A 
ATOM     13  C   UNL     1       5.892   4.259  16.625  0.00  0.00    +0.000 A 
BRANCH   7  14
ATOM     14  O   UNL     1       8.092   7.230  16.989  0.00  0.00    +0.000 OA
ATOM     15  C   UNL     1       7.752   8.443  17.666  0.00  0.00    +0.000 C 
ENDBRANCH   7  14
ENDBRANCH   1   4
BRANCH   1  16
ATOM     16  N   UNL     1       2.805   3.937  18.042  0.00  0.00    +0.000 N 
ATOM     17  H   UNL     1       2.080   3.253  17.820  0.00  0.00    +0.000 HD
BRANCH  16  23
ATOM     18  C   UNL     1       1.524   4.714  20.024  0.00  0.00    +0.000 A 
ATOM     19  C   UNL     1       1.139   5.778  20.850  0.00  0.00    +0.000 A 
ATOM     20  C   UNL     1       1.590   7.071  20.607  0.00  0.00    +0.000 A 
ATOM     21  C   UNL     1       2.404   7.325  19.513  0.00  0.00    +0.000 A 
ATOM     22  C   UNL     1       2.763   6.287  18.650  0.00  0.00    +0.000 A 
ATOM     23  C   UNL     1       2.326   4.984  18.899  0.00  0.00    +0.000 A 
BRANCH  18  25
ATOM     24  C   UNL     1       1.446   2.952  21.604  0.00  0.00    +0.000 C 
ATOM     25  O   UNL     1       1.152   3.419  20.284  0.00  0.00    +0.000 OA
ENDBRANCH  18  25
ENDBRANCH  16  23
ENDBRANCH   1  16
TORSDOF 5
ENDMDL
MODEL 4
REMARK VINA RESULT:      -6.8      1.597      3.245
REMARK  Name = 
REMARK  7 active torsions:
REMARK  status: ('A' for Active; 'I' for Inactive)
REMARK    1  A    between atoms: C_1  and  O_2
REMARK    2  A    between atoms: O_2  and  C_3
REMARK    3  A    between atoms: C_8  and  N_9
REMARK    4  A    between atoms: N_9  and  S_10
REMARK    5  A    between atoms: S_10  and  C_13
REMARK    6  A    between atoms: C_16  and  O_17
REMARK    7  A    between atoms: O_17  and  C_18
REMARK                            x       y       z     vdW  Elec       q    Type
REMARK                         _______ _______ _______ _____ _____    ______ ____
ROOT
ATOM      1  S   UNL     1       3.880   2.971  18.533  0.00  0.00    +0.000 S 
ATOM      2  O   UNL     1       3.806   2.611  19.932  0.00  0.00    +0.000 OA
ATOM      3  O   UNL     1       3.881   1.965  17.488  0.00  0.00    +0.000 OA
ENDROOT
BRANCH   1   4
ATOM      4  C   UNL     1       5.335   3.992  18.313  0.00  0.00    +0.000 A 
ATOM      5  C   UNL     1       5.742   4.741  19.422  0.00  0.00    +0.000 A 
ATOM      6  C   UNL     1       6.713   5.714  19.287  0.00  0.00    +0.000 A 
ATOM      7  C   UNL     1       7.221   5.986  18.015  0.00  0.00    +0.000 A 
ATOM      8  C   UNL     1       6.747   5.342  16.871  0.00  0.00    +0.000 A 
ATOM      9  N   UNL     1       7.068   5.816  15.648  0.00  0.00    +0.000 NA
ATOM     10  C   UNL     1       6.696   5.135  14.553  0.00  0.00    +0.000 A 
ATOM     11  C   UNL     1       6.124   3.889  14.612  0.00  0.00    +0.000 A 
ATOM     12  C   UNL     1       5.696   3.437  15.859  0.00  0.00    +0.000 A 
ATOM     13  C   UNL     1       5.898   4.223  17.025  0.00  0.00    +0.000 A 
BRANCH   7  14
ATOM     14  O   UNL     1       8.206   6.962  18.015  0.00  0.00    +0.000 OA
ATOM     15  C   UNL     1       7.706   8.264  17.701  0.00  0.00    +0.000 C 
ENDBRANCH   7  14
ENDBRANCH   1   4
BRANCH   1  16
ATOM     16  N   UNL     1       2.620   4.031  18.096  0.00  0.00    +0.000 N 
ATOM     17  H   UNL     1       1.787   3.462  17.934  0.00  0.00    +0.000 HD
BRANCH  16  23
ATOM     18  C   UNL     1       2.614   6.480  18.521  0.00  0.00    +0.000 A 
ATOM     19  C   UNL     1       2.279   7.538  19.375  0.00  0.00    +0.000 A 
ATOM     20  C   UNL     1       1.641   7.304  20.589  0.00  0.00    +0.000 A 
ATOM     21  C   UNL     1       1.362   6.003  20.983  0.00  0.00    +0.000 A 
ATOM     22  C   UNL     1       1.729   4.929  20.168  0.00  0.00    +0.000 A 
ATOM     23  C   UNL     1       2.355   5.161  18.941  0.00  0.00    +0.000 A 
BRANCH  18  25
ATOM     24  C   UNL     1       4.104   7.777  17.216  0.00  0.00    +0.000 C 
ATOM     25  O   UNL     1       3.178   6.689  17.288  0.00  0.00    +0.000 OA
ENDBRANCH  18  25
ENDBRANCH  16  23
ENDBRANCH   1  16
TORSDOF 5
ENDMDL
MODEL 5
REMARK VINA RESULT:      -6.5      1.054      1.931
REMARK  Name = 
REMARK  7 active torsions:
REMARK  status: ('A' for Active; 'I' for Inactive)
REMARK    1  A    between atoms: C_1  and  O_2
REMARK    2  A    between atoms: O_2  and  C_3
REMARK    3  A    between atoms: C_8  and  N_9
REMARK    4  A    between atoms: N_9  and  S_10
REMARK    5  A    between atoms: S_10  and  C_13
REMARK    6  A    between atoms: C_16  and  O_17
REMARK    7  A    between atoms: O_17  and  C_18
REMARK                            x       y       z     vdW  Elec       q    Type
REMARK                         _______ _______ _______ _____ _____    ______ ____
ROOT
ATOM      1  S   UNL     1       3.592   2.928  18.349  0.00  0.00    +0.000 S 
ATOM      2  O   UNL     1       4.122   2.895  19.695  0.00  0.00    +0.000 OA
ATOM      3  O   UNL     1       3.250   1.711  17.637  0.00  0.00    +0.000 OA
ENDROOT
BRANCH   1   4
ATOM      4  C   UNL     1       4.745   3.851  17.335  0.00  0.00    +0.000 A 
ATOM      5  C   UNL     1       4.712   3.589  15.962  0.00  0.00    +0.000 A 
ATOM      6  C   UNL     1       5.702   4.085  15.135  0.00  0.00    +0.000 A 
ATOM      7  C   UNL     1       6.769   4.783  15.705  0.00  0.00    +0.000 A 
ATOM      8  C   UNL     1       6.893   4.954  17.085  0.00  0.00    +0.000 A 
ATOM      9  N   UNL     1       8.058   5.395  17.607  0.00  0.00    +0.000 NA
ATOM     10  C   UNL     1       8.139   5.656  18.922  0.00  0.00    +0.000 A 
ATOM     11  C   UNL     1       7.047   5.638  19.752  0.00  0.00    +0.000 A 
ATOM     12  C   UNL     1       5.868   5.089  19.250  0.00  0.00    +0.000 A 
ATOM     13  C   UNL     1       5.798   4.618  17.912  0.00  0.00    +0.000 A 
BRANCH   7  14
ATOM     14  O   UNL     1       7.680   5.251  14.771  0.00  0.00    +0.000 OA
ATOM     15  C   UNL     1       7.344   4.890  13.429  0.00  0.00    +0.000 C 
ENDBRANCH   7  14
ENDBRANCH   1   4
BRANCH   1  16
ATOM     16  N   UNL     1       2.182   3.880  18.258  0.00  0.00    +0.000 N 
ATOM     17  H   UNL     1       1.385   3.254  18.383  0.00  0.00    +0.000 HD
BRANCH  16  23
ATOM     18  C   UNL     1       2.485   6.320  18.620  0.00  0.00    +0.000 A 
ATOM     19  C   UNL     1       2.320   7.428  19.462  0.00  0.00    +0.000 A 
ATOM     20  C   UNL     1       1.721   7.295  20.710  0.00  0.00    +0.000 A 
ATOM     21  C   UNL     1       1.311   6.044  21.150  0.00  0.00    +0.000 A 
ATOM     22  C   UNL     1       1.508   4.919  20.346  0.00  0.00    +0.000 A 
ATOM     23  C   UNL     1       2.095   5.050  19.086  0.00  0.00    +0.000 A 
BRANCH  18  25
ATOM     24  C   UNL     1       3.922   7.520  17.171  0.00  0.00    +0.000 C 
ATOM     25  O   UNL     1       3.007   6.436  17.356  0.00  0.00    +0.000 OA
ENDBRANCH  18  25
ENDBRANCH  16  23
ENDBRANCH   1  16
TORSDOF 5
ENDMDL
MODEL 6
REMARK VINA RESULT:      -6.5      2.071      6.558
REMARK  Name = 
REMARK  7 active torsions:
REMARK  status: ('A' for Active; 'I' for Inactive)
REMARK    1  A    between atoms: C_1  and  O_2
REMARK    2  A    between atoms: O_2  and  C_3
REMARK    3  A    between atoms: C_8  and  N_9
REMARK    4  A    between atoms: N_9  and  S_10
REMARK    5  A    between atoms: S_10  and  C_13
REMARK    6  A    between atoms: C_16  and  O_17
REMARK    7  A    between atoms: O_17  and  C_18
REMARK                            x       y       z     vdW  Elec       q    Type
REMARK                         _______ _______ _______ _____ _____    ______ ____
ROOT
ATOM      1  S   UNL     1       7.138   5.507  17.301  0.00  0.00    +0.000 S 
ATOM      2  O   UNL     1       7.905   4.304  17.061  0.00  0.00    +0.000 OA
ATOM      3  O   UNL     1       7.711   6.648  17.990  0.00  0.00    +0.000 OA
ENDROOT
BRANCH   1   4
ATOM      4  C   UNL     1       5.646   5.033  18.172  0.00  0.00    +0.000 A 
ATOM      5  C   UNL     1       5.592   3.716  18.640  0.00  0.00    +0.000 A 
ATOM      6  C   UNL     1       4.407   3.198  19.126  0.00  0.00    +0.000 A 
ATOM      7  C   UNL     1       3.255   3.985  19.071  0.00  0.00    +0.000 A 
ATOM      8  C   UNL     1       3.250   5.257  18.496  0.00  0.00    +0.000 A 
ATOM      9  N   UNL     1       2.078   5.869  18.223  0.00  0.00    +0.000 NA
ATOM     10  C   UNL     1       2.079   7.132  17.768  0.00  0.00    +0.000 A 
ATOM     11  C   UNL     1       3.216   7.897  17.701  0.00  0.00    +0.000 A 
ATOM     12  C   UNL     1       4.437   7.250  17.880  0.00  0.00    +0.000 A 
ATOM     13  C   UNL     1       4.487   5.861  18.174  0.00  0.00    +0.000 A 
BRANCH   7  14
ATOM     14  O   UNL     1       2.140   3.364  19.612  0.00  0.00    +0.000 OA
ATOM     15  C   UNL     1       1.687   2.251  18.839  0.00  0.00    +0.000 C 
ENDBRANCH   7  14
ENDBRANCH   1   4
BRANCH   1  16
ATOM     16  N   UNL     1       6.524   6.155  15.850  0.00  0.00    +0.000 N 
ATOM     17  H   UNL     1       7.105   6.959  15.607  0.00  0.00    +0.000 HD
BRANCH  16  23
ATOM     18  C   UNL     1       7.311   5.080  13.752  0.00  0.00    +0.000 A 
ATOM     19  C   UNL     1       7.072   4.157  12.726  0.00  0.00    +0.000 A 
ATOM     20  C   UNL     1       5.913   3.388  12.711  0.00  0.00    +0.000 A 
ATOM     21  C   UNL     1       4.958   3.557  13.704  0.00  0.00    +0.000 A 
ATOM     22  C   UNL     1       5.155   4.506  14.711  0.00  0.00    +0.000 A 
ATOM     23  C   UNL     1       6.324   5.268  14.739  0.00  0.00    +0.000 A 
BRANCH  18  25
ATOM     24  C   UNL     1       9.053   6.164  12.571  0.00  0.00    +0.000 C 
ATOM     25  O   UNL     1       8.478   5.798  13.829  0.00  0.00    +0.000 OA
ENDBRANCH  18  25
ENDBRANCH  16  23
ENDBRANCH   1  16
TORSDOF 5
ENDMDL
MODEL 7
REMARK VINA RESULT:      -6.5      3.498      6.567
REMARK  Name = 
REMARK  7 active torsions:
REMARK  status: ('A' for Active; 'I' for Inactive)
REMARK    1  A    between atoms: C_1  and  O_2
REMARK    2  A    between atoms: O_2  and  C_3
REMARK    3  A    between atoms: C_8  and  N_9
REMARK    4  A    between atoms: N_9  and  S_10
REMARK    5  A    between atoms: S_10  and  C_13
REMARK    6  A    between atoms: C_16  and  O_17
REMARK    7  A    between atoms: O_17  and  C_18
REMARK                            x       y       z     vdW  Elec       q    Type
REMARK                         _______ _______ _______ _____ _____    ______ ____
ROOT
ATOM      1  S   UNL     1       2.511   6.310  19.158  0.00  0.00    +0.000 S 
ATOM      2  O   UNL     1       1.880   5.500  18.139  0.00  0.00    +0.000 OA
ATOM      3  O   UNL     1       2.454   5.947  20.561  0.00  0.00    +0.000 OA
ENDROOT
BRANCH   1   4
ATOM      4  C   UNL     1       1.873   7.977  18.996  0.00  0.00    +0.000 A 
ATOM      5  C   UNL     1       2.311   8.704  17.885  0.00  0.00    +0.000 A 
ATOM      6  C   UNL     1       2.049  10.057  17.792  0.00  0.00    +0.000 A 
ATOM      7  C   UNL     1       1.411  10.694  18.858  0.00  0.00    +0.000 A 
ATOM      8  C   UNL     1       1.072  10.020  20.033  0.00  0.00    +0.000 A 
ATOM      9  N   UNL     1       0.705  10.719  21.129  0.00  0.00    +0.000 NA
ATOM     10  C   UNL     1       0.282  10.064  22.221  0.00  0.00    +0.000 A 
ATOM     11  C   UNL     1       0.061   8.710  22.237  0.00  0.00    +0.000 A 
ATOM     12  C   UNL     1       0.530   7.970  21.154  0.00  0.00    +0.000 A 
ATOM     13  C   UNL     1       1.164   8.611  20.057  0.00  0.00    +0.000 A 
BRANCH   7  14
ATOM     14  O   UNL     1       1.182  12.043  18.633  0.00  0.00    +0.000 OA
ATOM     15  C   UNL     1       2.363  12.759  18.266  0.00  0.00    +0.000 C 
ENDBRANCH   7  14
ENDBRANCH   1   4
BRANCH   1  16
ATOM     16  N   UNL     1       4.173   6.522  18.844  0.00  0.00    +0.000 N 
ATOM     17  H   UNL     1       4.673   6.320  19.711  0.00  0.00    +0.000 HD
BRANCH  16  23
ATOM     18  C   UNL     1       5.087   4.484  17.756  0.00  0.00    +0.000 A 
ATOM     19  C   UNL     1       5.587   3.876  16.597  0.00  0.00    +0.000 A 
ATOM     20  C   UNL     1       5.684   4.583  15.403  0.00  0.00    +0.000 A 
ATOM     21  C   UNL     1       5.315   5.920  15.360  0.00  0.00    +0.000 A 
ATOM     22  C   UNL     1       4.858   6.559  16.515  0.00  0.00    +0.000 A 
ATOM     23  C   UNL     1       4.744   5.849  17.712  0.00  0.00    +0.000 A 
BRANCH  18  25
ATOM     24  C   UNL     1       3.961   2.724  18.870  0.00  0.00    +0.000 C 
ATOM     25  O   UNL     1       4.914   3.789  18.927  0.00  0.00    +0.000 OA
ENDBRANCH  18  25
ENDBRANCH  16  23
ENDBRANCH   1  16
TORSDOF 5
ENDMDL
MODEL 8
REMARK VINA RESULT:      -6.5      3.765      6.815
REMARK  Name = 
REMARK  7 active torsions:
REMARK  status: ('A' for Active; 'I' for Inactive)
REMARK    1  A    between atoms: C_1  and  O_2
REMARK    2  A    between atoms: O_2  and  C_3
REMARK    3  A    between atoms: C_8  and  N_9
REMARK    4  A    between atoms: N_9  and  S_10
REMARK    5  A    between atoms: S_10  and  C_13
REMARK    6  A    between atoms: C_16  and  O_17
REMARK    7  A    between atoms: O_17  and  C_18
REMARK                            x       y       z     vdW  Elec       q    Type
REMARK                         _______ _______ _______ _____ _____    ______ ____
ROOT
ATOM      1  S   UNL     1       2.373   6.595  19.592  0.00  0.00    +0.000 S 
ATOM      2  O   UNL     1       1.682   6.074  20.751  0.00  0.00    +0.000 OA
ATOM      3  O   UNL     1       3.821   6.672  19.542  0.00  0.00    +0.000 OA
ENDROOT
BRANCH   1   4
ATOM      4  C   UNL     1       1.725   8.233  19.266  0.00  0.00    +0.000 A 
ATOM      5  C   UNL     1       2.199   8.870  18.116  0.00  0.00    +0.000 A 
ATOM      6  C   UNL     1       1.927  10.208  17.899  0.00  0.00    +0.000 A 
ATOM      7  C   UNL     1       1.240  10.923  18.882  0.00  0.00    +0.000 A 
ATOM      8  C   UNL     1       0.862  10.345  20.095  0.00  0.00    +0.000 A 
ATOM      9  N   UNL     1       0.445  11.128  21.113  0.00  0.00    +0.000 NA
ATOM     10  C   UNL     1      -0.015  10.561  22.240  0.00  0.00    +0.000 A 
ATOM     11  C   UNL     1      -0.222   9.210  22.361  0.00  0.00    +0.000 A 
ATOM     12  C   UNL     1       0.297   8.388  21.363  0.00  0.00    +0.000 A 
ATOM     13  C   UNL     1       0.968   8.944  20.241  0.00  0.00    +0.000 A 
BRANCH   7  14
ATOM     14  O   UNL     1       1.006  12.244  18.536  0.00  0.00    +0.000 OA
ATOM     15  C   UNL     1       2.205  12.976  18.269  0.00  0.00    +0.000 C 
ENDBRANCH   7  14
ENDBRANCH   1   4
BRANCH   1  16
ATOM     16  N   UNL     1       1.947   5.745  18.178  0.00  0.00    +0.000 N 
ATOM     17  H   UNL     1       2.326   6.265  17.386  0.00  0.00    +0.000 HD
BRANCH  16  23
ATOM     18  C   UNL     1       3.429   3.868  17.504  0.00  0.00    +0.000 A 
ATOM     19  C   UNL     1       3.689   2.491  17.521  0.00  0.00    +0.000 A 
ATOM     20  C   UNL     1       2.837   1.610  18.179  0.00  0.00    +0.000 A 
ATOM     21  C   UNL     1       1.692   2.090  18.799  0.00  0.00    +0.000 A 
ATOM     22  C   UNL     1       1.389   3.453  18.754  0.00  0.00    +0.000 A 
ATOM     23  C   UNL     1       2.250   4.343  18.108  0.00  0.00    +0.000 A 
BRANCH  18  25
ATOM     24  C   UNL     1       5.421   4.187  16.265  0.00  0.00    +0.000 C 
ATOM     25  O   UNL     1       4.291   4.765  16.924  0.00  0.00    +0.000 OA
ENDBRANCH  18  25
ENDBRANCH  16  23
ENDBRANCH   1  16
TORSDOF 5
ENDMDL
MODEL 9
REMARK VINA RESULT:      -6.4      4.012      6.991
REMARK  Name = 
REMARK  7 active torsions:
REMARK  status: ('A' for Active; 'I' for Inactive)
REMARK    1  A    between atoms: C_1  and  O_2
REMARK    2  A    between atoms: O_2  and  C_3
REMARK    3  A    between atoms: C_8  and  N_9
REMARK    4  A    between atoms: N_9  and  S_10
REMARK    5  A    between atoms: S_10  and  C_13
REMARK    6  A    between atoms: C_16  and  O_17
REMARK    7  A    between atoms: O_17  and  C_18
REMARK                            x       y       z     vdW  Elec       q    Type
REMARK                         _______ _______ _______ _____ _____    ______ ____
ROOT
ATOM      1  S   UNL     1       2.475   7.380  18.430  0.00  0.00    +0.000 S 
ATOM      2  O   UNL     1       3.748   7.635  17.790  0.00  0.00    +0.000 OA
ATOM      3  O   UNL     1       1.461   6.555  17.802  0.00  0.00    +0.000 OA
ENDROOT
BRANCH   1   4
ATOM      4  C   UNL     1       1.734   8.966  18.811  0.00  0.00    +0.000 A 
ATOM      5  C   UNL     1       2.079  10.029  17.971  0.00  0.00    +0.000 A 
ATOM      6  C   UNL     1       1.734  11.324  18.310  0.00  0.00    +0.000 A 
ATOM      7  C   UNL     1       1.106  11.554  19.536  0.00  0.00    +0.000 A 
ATOM      8  C   UNL     1       0.860  10.528  20.450  0.00  0.00    +0.000 A 
ATOM      9  N   UNL     1       0.500  10.826  21.717  0.00  0.00    +0.000 NA
ATOM     10  C   UNL     1       0.165   9.838  22.561  0.00  0.00    +0.000 A 
ATOM     11  C   UNL     1       0.025   8.534  22.160  0.00  0.00    +0.000 A 
ATOM     12  C   UNL     1       0.489   8.199  20.890  0.00  0.00    +0.000 A 
ATOM     13  C   UNL     1       1.036   9.190  20.032  0.00  0.00    +0.000 A 
BRANCH   7  14
ATOM     14  O   UNL     1       0.788  12.886  19.747  0.00  0.00    +0.000 OA
ATOM     15  C   UNL     1      -0.373  13.308  19.028  0.00  0.00    +0.000 C 
ENDBRANCH   7  14
ENDBRANCH   1   4
BRANCH   1  16
ATOM     16  N   UNL     1       2.682   6.693  19.976  0.00  0.00    +0.000 N 
ATOM     17  H   UNL     1       2.069   7.199  20.617  0.00  0.00    +0.000 HD
BRANCH  16  23
ATOM     18  C   UNL     1       3.640   4.403  19.858  0.00  0.00    +0.000 A 
ATOM     19  C   UNL     1       3.467   3.028  20.064  0.00  0.00    +0.000 A 
ATOM     20  C   UNL     1       2.273   2.526  20.571  0.00  0.00    +0.000 A 
ATOM     21  C   UNL     1       1.221   3.389  20.845  0.00  0.00    +0.000 A 
ATOM     22  C   UNL     1       1.356   4.758  20.603  0.00  0.00    +0.000 A 
ATOM     23  C   UNL     1       2.559   5.269  20.110  0.00  0.00    +0.000 A 
BRANCH  18  25
ATOM     24  C   UNL     1       5.318   4.408  18.188  0.00  0.00    +0.000 C 
ATOM     25  O   UNL     1       4.832   4.930  19.428  0.00  0.00    +0.000 OA
ENDBRANCH  18  25
ENDBRANCH  16  23
ENDBRANCH   1  16
TORSDOF 5
ENDMDL
