MODEL 1
REMARK VINA RESULT:      -8.7      0.000      0.000
REMARK  Name = 
REMARK  8 active torsions:
REMARK  status: ('A' for Active; 'I' for Inactive)
REMARK    1  A    between atoms: C_1  and  O_2
REMARK    2  A    between atoms: O_2  and  C_3
REMARK    3  A    between atoms: C_8  and  O_9
REMARK    4  A    between atoms: O_9  and  C_10
REMARK    5  A    between atoms: N_12  and  C_13
REMARK    6  A    between atoms: C_13  and  C_14
REMARK    7  A    between atoms: C_17  and  C_18
REMARK    8  A    between atoms: C_21  and  O_22
REMARK                            x       y       z     vdW  Elec       q    Type
REMARK                         _______ _______ _______ _____ _____    ______ ____
ROOT
ATOM      1  C   UNL     1       1.325  10.247  19.840  0.00  0.00    +0.000 C 
ENDROOT
BRANCH   1   9
ATOM      2  C   UNL     1      -4.288  11.354  17.089  0.00  0.00    +0.000 A 
ATOM      3  C   UNL     1      -3.676  11.702  18.299  0.00  0.00    +0.000 A 
ATOM      4  C   UNL     1      -2.379  11.278  18.583  0.00  0.00    +0.000 A 
ATOM      5  C   UNL     1      -1.690  10.465  17.675  0.00  0.00    +0.000 A 
ATOM      6  C   UNL     1      -2.301  10.110  16.466  0.00  0.00    +0.000 A 
ATOM      7  C   UNL     1      -3.587  10.575  16.146  0.00  0.00    +0.000 A 
ATOM      8  C   UNL     1      -0.320   9.945  18.066  0.00  0.00    +0.000 C 
ATOM      9  N   UNL     1       0.546  10.914  18.782  0.00  0.00    +0.000 NA
ATOM     10  C   UNL     1      -0.201  12.055  19.354  0.00  0.00    +0.000 C 
ATOM     11  C   UNL     1      -1.629  11.720  19.808  0.00  0.00    +0.000 C 
BRANCH   2  13
ATOM     12  C   UNL     1      -6.464  11.667  18.002  0.00  0.00    +0.000 C 
ATOM     13  O   UNL     1      -5.539  11.901  16.949  0.00  0.00    +0.000 OA
ENDBRANCH   2  13
BRANCH   7  14
ATOM     14  O   UNL     1      -4.193  10.335  14.942  0.00  0.00    +0.000 OA
ATOM     15  C   UNL     1      -3.371  10.068  13.814  0.00  0.00    +0.000 C 
ENDBRANCH   7  14
ENDBRANCH   1   9
BRANCH   1  16
ATOM     16  C   UNL     1       1.647   8.799  19.567  0.00  0.00    +0.000 A 
ATOM     17  C   UNL     1       2.162   8.379  18.336  0.00  0.00    +0.000 A 
ATOM     18  C   UNL     1       2.522   7.037  18.138  0.00  0.00    +0.000 A 
ATOM     19  C   UNL     1       2.401   6.076  19.161  0.00  0.00    +0.000 A 
ATOM     20  C   UNL     1       1.872   6.518  20.386  0.00  0.00    +0.000 A 
ATOM     21  C   UNL     1       1.501   7.848  20.574  0.00  0.00    +0.000 A 
ATOM     22  F   UNL     1       0.998   8.208  21.765  0.00  0.00    +0.000 F 
BRANCH  19  23
ATOM     23  C   UNL     1       2.821   4.666  18.967  0.00  0.00    +0.000 A 
ATOM     24  C   UNL     1       3.150   4.165  17.693  0.00  0.00    +0.000 A 
ATOM     25  C   UNL     1       3.551   2.837  17.507  0.00  0.00    +0.000 A 
ATOM     26  C   UNL     1       3.643   1.991  18.603  0.00  0.00    +0.000 A 
ATOM     27  C   UNL     1       3.340   2.451  19.874  0.00  0.00    +0.000 A 
ATOM     28  C   UNL     1       2.924   3.775  20.052  0.00  0.00    +0.000 A 
BRANCH  26  29
ATOM     29  O   UNL     1       4.033   0.692  18.473  0.00  0.00    +0.000 OA
ATOM     30  H   UNL     1       3.751   0.368  17.601  0.00  0.00    +0.000 HD
ENDBRANCH  26  29
ENDBRANCH  19  23
ENDBRANCH   1  16
TORSDOF 6
ENDMDL
MODEL 2
REMARK VINA RESULT:      -8.5      2.926      4.254
REMARK  Name = 
REMARK  8 active torsions:
REMARK  status: ('A' for Active; 'I' for Inactive)
REMARK    1  A    between atoms: C_1  and  O_2
REMARK    2  A    between atoms: O_2  and  C_3
REMARK    3  A    between atoms: C_8  and  O_9
REMARK    4  A    between atoms: O_9  and  C_10
REMARK    5  A    between atoms: N_12  and  C_13
REMARK    6  A    between atoms: C_13  and  C_14
REMARK    7  A    between atoms: C_17  and  C_18
REMARK    8  A    between atoms: C_21  and  O_22
REMARK                            x       y       z     vdW  Elec       q    Type
REMARK                         _______ _______ _______ _____ _____    ______ ____
ROOT
ATOM      1  C   UNL     1       1.060  10.151  19.728  0.00  0.00    +0.000 C 
ENDROOT
BRANCH   1   9
ATOM      2  C   UNL     1      -3.561  13.735  22.198  0.00  0.00    +0.000 A 
ATOM      3  C   UNL     1      -2.997  13.558  20.929  0.00  0.00    +0.000 A 
ATOM      4  C   UNL     1      -1.962  12.644  20.738  0.00  0.00    +0.000 A 
ATOM      5  C   UNL     1      -1.451  11.922  21.823  0.00  0.00    +0.000 A 
ATOM      6  C   UNL     1      -2.009  12.102  23.094  0.00  0.00    +0.000 A 
ATOM      7  C   UNL     1      -3.086  12.980  23.290  0.00  0.00    +0.000 A 
ATOM      8  C   UNL     1      -0.261  11.012  21.589  0.00  0.00    +0.000 C 
ATOM      9  N   UNL     1      -0.288  10.247  20.318  0.00  0.00    +0.000 NA
ATOM     10  C   UNL     1      -1.232  10.799  19.322  0.00  0.00    +0.000 C 
ATOM     11  C   UNL     1      -1.401  12.324  19.381  0.00  0.00    +0.000 C 
BRANCH   2  13
ATOM     12  C   UNL     1      -5.658  14.384  21.278  0.00  0.00    +0.000 C 
ATOM     13  O   UNL     1      -4.602  14.629  22.196  0.00  0.00    +0.000 OA
ENDBRANCH   2  13
BRANCH   7  14
ATOM     14  O   UNL     1      -3.728  13.125  24.491  0.00  0.00    +0.000 OA
ATOM     15  C   UNL     1      -4.816  12.259  24.783  0.00  0.00    +0.000 C 
ENDBRANCH   7  14
ENDBRANCH   1   9
BRANCH   1  16
ATOM     16  C   UNL     1       1.574   8.742  19.561  0.00  0.00    +0.000 A 
ATOM     17  C   UNL     1       1.516   7.810  20.601  0.00  0.00    +0.000 A 
ATOM     18  C   UNL     1       1.933   6.486  20.392  0.00  0.00    +0.000 A 
ATOM     19  C   UNL     1       2.401   6.043  19.139  0.00  0.00    +0.000 A 
ATOM     20  C   UNL     1       2.460   7.000  18.111  0.00  0.00    +0.000 A 
ATOM     21  C   UNL     1       2.060   8.317  18.326  0.00  0.00    +0.000 A 
ATOM     22  F   UNL     1       2.144   9.185  17.307  0.00  0.00    +0.000 F 
BRANCH  19  23
ATOM     23  C   UNL     1       2.802   4.635  18.904  0.00  0.00    +0.000 A 
ATOM     24  C   UNL     1       2.210   3.861  17.887  0.00  0.00    +0.000 A 
ATOM     25  C   UNL     1       2.590   2.533  17.659  0.00  0.00    +0.000 A 
ATOM     26  C   UNL     1       3.584   1.962  18.440  0.00  0.00    +0.000 A 
ATOM     27  C   UNL     1       4.199   2.696  19.443  0.00  0.00    +0.000 A 
ATOM     28  C   UNL     1       3.805   4.017  19.677  0.00  0.00    +0.000 A 
BRANCH  26  29
ATOM     29  O   UNL     1       3.991   0.675  18.253  0.00  0.00    +0.000 OA
ATOM     30  H   UNL     1       3.906   0.197  19.095  0.00  0.00    +0.000 HD
ENDBRANCH  26  29
ENDBRANCH  19  23
ENDBRANCH   1  16
TORSDOF 6
ENDMDL
MODEL 3
REMARK VINA RESULT:      -8.4      1.874      3.179
REMARK  Name = 
REMARK  8 active torsions:
REMARK  status: ('A' for Active; 'I' for Inactive)
REMARK    1  A    between atoms: C_1  and  O_2
REMARK    2  A    between atoms: O_2  and  C_3
REMARK    3  A    between atoms: C_8  and  O_9
REMARK    4  A    between atoms: O_9  and  C_10
REMARK    5  A    between atoms: N_12  and  C_13
REMARK    6  A    between atoms: C_13  and  C_14
REMARK    7  A    between atoms: C_17  and  C_18
REMARK    8  A    between atoms: C_21  and  O_22
REMARK                            x       y       z     vdW  Elec       q    Type
REMARK                         _______ _______ _______ _____ _____    ______ ____
ROOT
ATOM      1  C   UNL     1       0.240  10.685  19.313  0.00  0.00    +0.000 C 
ENDROOT
BRANCH   1   9
ATOM      2  C   UNL     1      -5.704  12.513  18.040  0.00  0.00    +0.000 A 
ATOM      3  C   UNL     1      -4.687  11.848  17.344  0.00  0.00    +0.000 A 
ATOM      4  C   UNL     1      -3.461  11.595  17.958  0.00  0.00    +0.000 A 
ATOM      5  C   UNL     1      -3.223  12.038  19.265  0.00  0.00    +0.000 A 
ATOM      6  C   UNL     1      -4.237  12.707  19.961  0.00  0.00    +0.000 A 
ATOM      7  C   UNL     1      -5.494  12.922  19.372  0.00  0.00    +0.000 A 
ATOM      8  C   UNL     1      -1.844  11.828  19.859  0.00  0.00    +0.000 C 
ATOM      9  N   UNL     1      -1.207  10.526  19.541  0.00  0.00    +0.000 NA
ATOM     10  C   UNL     1      -1.823   9.841  18.383  0.00  0.00    +0.000 C 
ATOM     11  C   UNL     1      -2.378  10.783  17.305  0.00  0.00    +0.000 C 
BRANCH   2  13
ATOM     12  C   UNL     1      -7.083  13.868  16.650  0.00  0.00    +0.000 C 
ATOM     13  O   UNL     1      -6.860  12.628  17.308  0.00  0.00    +0.000 OA
ENDBRANCH   2  13
BRANCH   7  14
ATOM     14  O   UNL     1      -6.548  13.488  20.039  0.00  0.00    +0.000 OA
ATOM     15  C   UNL     1      -6.316  14.025  21.334  0.00  0.00    +0.000 C 
ENDBRANCH   7  14
ENDBRANCH   1   9
BRANCH   1  16
ATOM     16  C   UNL     1       1.039   9.411  19.434  0.00  0.00    +0.000 A 
ATOM     17  C   UNL     1       1.002   8.627  20.591  0.00  0.00    +0.000 A 
ATOM     18  C   UNL     1       1.697   7.408  20.645  0.00  0.00    +0.000 A 
ATOM     19  C   UNL     1       2.432   6.922  19.546  0.00  0.00    +0.000 A 
ATOM     20  C   UNL     1       2.464   7.732  18.397  0.00  0.00    +0.000 A 
ATOM     21  C   UNL     1       1.786   8.948  18.352  0.00  0.00    +0.000 A 
ATOM     22  F   UNL     1       1.857   9.678  17.229  0.00  0.00    +0.000 F 
BRANCH  19  23
ATOM     23  C   UNL     1       3.132   5.615  19.586  0.00  0.00    +0.000 A 
ATOM     24  C   UNL     1       4.440   5.465  19.086  0.00  0.00    +0.000 A 
ATOM     25  C   UNL     1       5.106   4.234  19.127  0.00  0.00    +0.000 A 
ATOM     26  C   UNL     1       4.473   3.133  19.686  0.00  0.00    +0.000 A 
ATOM     27  C   UNL     1       3.191   3.244  20.199  0.00  0.00    +0.000 A 
ATOM     28  C   UNL     1       2.524   4.473  20.142  0.00  0.00    +0.000 A 
BRANCH  26  29
ATOM     29  O   UNL     1       5.082   1.916  19.752  0.00  0.00    +0.000 OA
ATOM     30  H   UNL     1       5.512   1.737  18.899  0.00  0.00    +0.000 HD
ENDBRANCH  26  29
ENDBRANCH  19  23
ENDBRANCH   1  16
TORSDOF 6
ENDMDL
MODEL 4
REMARK VINA RESULT:      -8.3      4.056      5.382
REMARK  Name = 
REMARK  8 active torsions:
REMARK  status: ('A' for Active; 'I' for Inactive)
REMARK    1  A    between atoms: C_1  and  O_2
REMARK    2  A    between atoms: O_2  and  C_3
REMARK    3  A    between atoms: C_8  and  O_9
REMARK    4  A    between atoms: O_9  and  C_10
REMARK    5  A    between atoms: N_12  and  C_13
REMARK    6  A    between atoms: C_13  and  C_14
REMARK    7  A    between atoms: C_17  and  C_18
REMARK    8  A    between atoms: C_21  and  O_22
REMARK                            x       y       z     vdW  Elec       q    Type
REMARK                         _______ _______ _______ _____ _____    ______ ____
ROOT
ATOM      1  C   UNL     1       0.245  10.725  19.369  0.00  0.00    +0.000 C 
ENDROOT
BRANCH   1   9
ATOM      2  C   UNL     1       1.866  16.790  18.429  0.00  0.00    +0.000 A 
ATOM      3  C   UNL     1       0.686  16.101  18.738  0.00  0.00    +0.000 A 
ATOM      4  C   UNL     1       0.696  14.716  18.886  0.00  0.00    +0.000 A 
ATOM      5  C   UNL     1       1.880  13.994  18.688  0.00  0.00    +0.000 A 
ATOM      6  C   UNL     1       3.059  14.679  18.373  0.00  0.00    +0.000 A 
ATOM      7  C   UNL     1       3.074  16.080  18.273  0.00  0.00    +0.000 A 
ATOM      8  C   UNL     1       1.824  12.481  18.762  0.00  0.00    +0.000 C 
ATOM      9  N   UNL     1       0.957  11.929  19.832  0.00  0.00    +0.000 NA
ATOM     10  C   UNL     1      -0.014  12.911  20.363  0.00  0.00    +0.000 C 
ATOM     11  C   UNL     1      -0.510  13.938  19.335  0.00  0.00    +0.000 C 
BRANCH   2  13
ATOM     12  C   UNL     1       0.637  18.630  17.550  0.00  0.00    +0.000 C 
ATOM     13  O   UNL     1       1.689  18.150  18.376  0.00  0.00    +0.000 OA
ENDBRANCH   2  13
BRANCH   7  14
ATOM     14  O   UNL     1       4.216  16.805  18.059  0.00  0.00    +0.000 OA
ATOM     15  C   UNL     1       5.415  16.375  18.687  0.00  0.00    +0.000 C 
ENDBRANCH   7  14
ENDBRANCH   1   9
BRANCH   1  16
ATOM     16  C   UNL     1       1.035   9.444  19.484  0.00  0.00    +0.000 A 
ATOM     17  C   UNL     1       1.030   8.679  20.653  0.00  0.00    +0.000 A 
ATOM     18  C   UNL     1       1.714   7.454  20.703  0.00  0.00    +0.000 A 
ATOM     19  C   UNL     1       2.407   6.943  19.588  0.00  0.00    +0.000 A 
ATOM     20  C   UNL     1       2.407   7.734  18.427  0.00  0.00    +0.000 A 
ATOM     21  C   UNL     1       1.740   8.957  18.385  0.00  0.00    +0.000 A 
ATOM     22  F   UNL     1       1.780   9.668  17.248  0.00  0.00    +0.000 F 
BRANCH  19  23
ATOM     23  C   UNL     1       3.095   5.630  19.626  0.00  0.00    +0.000 A 
ATOM     24  C   UNL     1       4.398   5.467  19.117  0.00  0.00    +0.000 A 
ATOM     25  C   UNL     1       5.053   4.230  19.156  0.00  0.00    +0.000 A 
ATOM     26  C   UNL     1       4.414   3.136  19.720  0.00  0.00    +0.000 A 
ATOM     27  C   UNL     1       3.135   3.259  20.241  0.00  0.00    +0.000 A 
ATOM     28  C   UNL     1       2.480   4.494  20.187  0.00  0.00    +0.000 A 
BRANCH  26  29
ATOM     29  O   UNL     1       5.011   1.913  19.784  0.00  0.00    +0.000 OA
ATOM     30  H   UNL     1       5.548   1.871  20.593  0.00  0.00    +0.000 HD
ENDBRANCH  26  29
ENDBRANCH  19  23
ENDBRANCH   1  16
TORSDOF 6
ENDMDL
MODEL 5
REMARK VINA RESULT:      -8.2      4.097      5.439
REMARK  Name = 
REMARK  8 active torsions:
REMARK  status: ('A' for Active; 'I' for Inactive)
REMARK    1  A    between atoms: C_1  and  O_2
REMARK    2  A    between atoms: O_2  and  C_3
REMARK    3  A    between atoms: C_8  and  O_9
REMARK    4  A    between atoms: O_9  and  C_10
REMARK    5  A    between atoms: N_12  and  C_13
REMARK    6  A    between atoms: C_13  and  C_14
REMARK    7  A    between atoms: C_17  and  C_18
REMARK    8  A    between atoms: C_21  and  O_22
REMARK                            x       y       z     vdW  Elec       q    Type
REMARK                         _______ _______ _______ _____ _____    ______ ____
ROOT
ATOM      1  C   UNL     1       0.594  10.719  18.944  0.00  0.00    +0.000 C 
ENDROOT
BRANCH   1   9
ATOM      2  C   UNL     1       2.226  16.853  19.017  0.00  0.00    +0.000 A 
ATOM      3  C   UNL     1       1.115  16.104  19.423  0.00  0.00    +0.000 A 
ATOM      4  C   UNL     1       1.098  14.720  19.258  0.00  0.00    +0.000 A 
ATOM      5  C   UNL     1       2.178  14.070  18.649  0.00  0.00    +0.000 A 
ATOM      6  C   UNL     1       3.288  14.817  18.237  0.00  0.00    +0.000 A 
ATOM      7  C   UNL     1       3.340  16.205  18.446  0.00  0.00    +0.000 A 
ATOM      8  C   UNL     1       2.076  12.578  18.400  0.00  0.00    +0.000 C 
ATOM      9  N   UNL     1       1.441  11.795  19.489  0.00  0.00    +0.000 NA
ATOM     10  C   UNL     1       0.652  12.627  20.424  0.00  0.00    +0.000 C 
ATOM     11  C   UNL     1      -0.013  13.854  19.783  0.00  0.00    +0.000 C 
BRANCH   2  13
ATOM     12  C   UNL     1       0.831  18.631  19.766  0.00  0.00    +0.000 C 
ATOM     13  O   UNL     1       2.100  18.189  19.304  0.00  0.00    +0.000 OA
ENDBRANCH   2  13
BRANCH   7  14
ATOM     14  O   UNL     1       4.437  16.968  18.147  0.00  0.00    +0.000 OA
ATOM     15  C   UNL     1       5.568  16.887  19.002  0.00  0.00    +0.000 C 
ENDBRANCH   7  14
ENDBRANCH   1   9
BRANCH   1  16
ATOM     16  C   UNL     1       1.205   9.341  19.017  0.00  0.00    +0.000 A 
ATOM     17  C   UNL     1       1.816   8.747  17.909  0.00  0.00    +0.000 A 
ATOM     18  C   UNL     1       2.442   7.497  18.028  0.00  0.00    +0.000 A 
ATOM     19  C   UNL     1       2.498   6.807  19.255  0.00  0.00    +0.000 A 
ATOM     20  C   UNL     1       1.868   7.418  20.354  0.00  0.00    +0.000 A 
ATOM     21  C   UNL     1       1.234   8.652  20.228  0.00  0.00    +0.000 A 
ATOM     22  F   UNL     1       0.647   9.182  21.312  0.00  0.00    +0.000 F 
BRANCH  19  23
ATOM     23  C   UNL     1       3.195   5.505  19.394  0.00  0.00    +0.000 A 
ATOM     24  C   UNL     1       4.555   5.359  19.057  0.00  0.00    +0.000 A 
ATOM     25  C   UNL     1       5.217   4.133  19.192  0.00  0.00    +0.000 A 
ATOM     26  C   UNL     1       4.528   3.034  19.682  0.00  0.00    +0.000 A 
ATOM     27  C   UNL     1       3.192   3.141  20.036  0.00  0.00    +0.000 A 
ATOM     28  C   UNL     1       2.531   4.365  19.885  0.00  0.00    +0.000 A 
BRANCH  26  29
ATOM     29  O   UNL     1       5.131   1.821  19.834  0.00  0.00    +0.000 OA
ATOM     30  H   UNL     1       4.461   1.173  20.108  0.00  0.00    +0.000 HD
ENDBRANCH  26  29
ENDBRANCH  19  23
ENDBRANCH   1  16
TORSDOF 6
ENDMDL
MODEL 6
REMARK VINA RESULT:      -8.1      4.054      5.532
REMARK  Name = 
REMARK  8 active torsions:
REMARK  status: ('A' for Active; 'I' for Inactive)
REMARK    1  A    between atoms: C_1  and  O_2
REMARK    2  A    between atoms: O_2  and  C_3
REMARK    3  A    between atoms: C_8  and  O_9
REMARK    4  A    between atoms: O_9  and  C_10
REMARK    5  A    between atoms: N_12  and  C_13
REMARK    6  A    between atoms: C_13  and  C_14
REMARK    7  A    between atoms: C_17  and  C_18
REMARK    8  A    between atoms: C_21  and  O_22
REMARK                            x       y       z     vdW  Elec       q    Type
REMARK                         _______ _______ _______ _____ _____    ______ ____
ROOT
ATOM      1  C   UNL     1       0.510  10.562  19.360  0.00  0.00    +0.000 C 
ENDROOT
BRANCH   1   9
ATOM      2  C   UNL     1       1.991  16.707  18.765  0.00  0.00    +0.000 A 
ATOM      3  C   UNL     1       0.856  15.979  19.143  0.00  0.00    +0.000 A 
ATOM      4  C   UNL     1       0.888  14.585  19.171  0.00  0.00    +0.000 A 
ATOM      5  C   UNL     1       2.045  13.900  18.783  0.00  0.00    +0.000 A 
ATOM      6  C   UNL     1       3.179  14.625  18.399  0.00  0.00    +0.000 A 
ATOM      7  C   UNL     1       3.177  16.029  18.417  0.00  0.00    +0.000 A 
ATOM      8  C   UNL     1       2.005  12.385  18.734  0.00  0.00    +0.000 C 
ATOM      9  N   UNL     1       1.264  11.734  19.842  0.00  0.00    +0.000 NA
ATOM     10  C   UNL     1       0.354  12.654  20.559  0.00  0.00    +0.000 C 
ATOM     11  C   UNL     1      -0.257  13.757  19.682  0.00  0.00    +0.000 C 
BRANCH   2  13
ATOM     12  C   UNL     1       1.630  18.611  20.147  0.00  0.00    +0.000 C 
ATOM     13  O   UNL     1       1.803  18.064  18.847  0.00  0.00    +0.000 OA
ENDBRANCH   2  13
BRANCH   7  14
ATOM     14  O   UNL     1       4.285  16.785  18.141  0.00  0.00    +0.000 OA
ATOM     15  C   UNL     1       5.276  16.923  19.149  0.00  0.00    +0.000 C 
ENDBRANCH   7  14
ENDBRANCH   1   9
BRANCH   1  16
ATOM     16  C   UNL     1       1.240   9.248  19.490  0.00  0.00    +0.000 A 
ATOM     17  C   UNL     1       1.182   8.487  20.661  0.00  0.00    +0.000 A 
ATOM     18  C   UNL     1       1.809   7.233  20.725  0.00  0.00    +0.000 A 
ATOM     19  C   UNL     1       2.495   6.688  19.622  0.00  0.00    +0.000 A 
ATOM     20  C   UNL     1       2.549   7.475  18.458  0.00  0.00    +0.000 A 
ATOM     21  C   UNL     1       1.938   8.726  18.403  0.00  0.00    +0.000 A 
ATOM     22  F   UNL     1       2.029   9.431  17.266  0.00  0.00    +0.000 F 
BRANCH  19  23
ATOM     23  C   UNL     1       3.122   5.345  19.673  0.00  0.00    +0.000 A 
ATOM     24  C   UNL     1       2.663   4.351  20.560  0.00  0.00    +0.000 A 
ATOM     25  C   UNL     1       3.249   3.081  20.607  0.00  0.00    +0.000 A 
ATOM     26  C   UNL     1       4.300   2.780  19.752  0.00  0.00    +0.000 A 
ATOM     27  C   UNL     1       4.771   3.727  18.856  0.00  0.00    +0.000 A 
ATOM     28  C   UNL     1       4.192   5.000  18.824  0.00  0.00    +0.000 A 
BRANCH  26  29
ATOM     29  O   UNL     1       4.899   1.557  19.758  0.00  0.00    +0.000 OA
ATOM     30  H   UNL     1       4.268   0.903  20.102  0.00  0.00    +0.000 HD
ENDBRANCH  26  29
ENDBRANCH  19  23
ENDBRANCH   1  16
TORSDOF 6
ENDMDL
MODEL 7
REMARK VINA RESULT:      -8.1      3.578      4.604
REMARK  Name = 
REMARK  8 active torsions:
REMARK  status: ('A' for Active; 'I' for Inactive)
REMARK    1  A    between atoms: C_1  and  O_2
REMARK    2  A    between atoms: O_2  and  C_3
REMARK    3  A    between atoms: C_8  and  O_9
REMARK    4  A    between atoms: O_9  and  C_10
REMARK    5  A    between atoms: N_12  and  C_13
REMARK    6  A    between atoms: C_13  and  C_14
REMARK    7  A    between atoms: C_17  and  C_18
REMARK    8  A    between atoms: C_21  and  O_22
REMARK                            x       y       z     vdW  Elec       q    Type
REMARK                         _______ _______ _______ _____ _____    ______ ____
ROOT
ATOM      1  C   UNL     1       1.106   7.483  21.168  0.00  0.00    +0.000 C 
ENDROOT
BRANCH   1   9
ATOM      2  C   UNL     1      -1.818  12.988  22.369  0.00  0.00    +0.000 A 
ATOM      3  C   UNL     1      -1.456  11.859  23.114  0.00  0.00    +0.000 A 
ATOM      4  C   UNL     1      -0.790  10.796  22.507  0.00  0.00    +0.000 A 
ATOM      5  C   UNL     1      -0.511  10.831  21.135  0.00  0.00    +0.000 A 
ATOM      6  C   UNL     1      -0.877  11.956  20.386  0.00  0.00    +0.000 A 
ATOM      7  C   UNL     1      -1.501  13.056  20.997  0.00  0.00    +0.000 A 
ATOM      8  C   UNL     1       0.127   9.613  20.496  0.00  0.00    +0.000 C 
ATOM      9  N   UNL     1       1.178   8.948  21.306  0.00  0.00    +0.000 NA
ATOM     10  C   UNL     1       1.135   9.318  22.738  0.00  0.00    +0.000 C 
ATOM     11  C   UNL     1      -0.271   9.615  23.279  0.00  0.00    +0.000 C 
BRANCH   2  13
ATOM     12  C   UNL     1      -3.406  13.534  24.057  0.00  0.00    +0.000 C 
ATOM     13  O   UNL     1      -2.414  13.960  23.133  0.00  0.00    +0.000 OA
ENDBRANCH   2  13
BRANCH   7  14
ATOM     14  O   UNL     1      -1.796  14.215  20.332  0.00  0.00    +0.000 OA
ATOM     15  C   UNL     1      -0.736  14.919  19.700  0.00  0.00    +0.000 C 
ENDBRANCH   7  14
ENDBRANCH   1   9
BRANCH   1  16
ATOM     16  C   UNL     1       1.903   6.920  20.017  0.00  0.00    +0.000 A 
ATOM     17  C   UNL     1       2.305   7.717  18.942  0.00  0.00    +0.000 A 
ATOM     18  C   UNL     1       3.110   7.182  17.924  0.00  0.00    +0.000 A 
ATOM     19  C   UNL     1       3.558   5.847  17.953  0.00  0.00    +0.000 A 
ATOM     20  C   UNL     1       3.133   5.061  19.039  0.00  0.00    +0.000 A 
ATOM     21  C   UNL     1       2.321   5.591  20.040  0.00  0.00    +0.000 A 
ATOM     22  F   UNL     1       1.946   4.790  21.048  0.00  0.00    +0.000 F 
BRANCH  19  23
ATOM     23  C   UNL     1       4.443   5.292  16.901  0.00  0.00    +0.000 A 
ATOM     24  C   UNL     1       4.657   3.905  16.776  0.00  0.00    +0.000 A 
ATOM     25  C   UNL     1       5.488   3.377  15.780  0.00  0.00    +0.000 A 
ATOM     26  C   UNL     1       6.108   4.234  14.882  0.00  0.00    +0.000 A 
ATOM     27  C   UNL     1       5.912   5.603  14.966  0.00  0.00    +0.000 A 
ATOM     28  C   UNL     1       5.093   6.127  15.972  0.00  0.00    +0.000 A 
BRANCH  26  29
ATOM     29  O   UNL     1       6.922   3.767  13.894  0.00  0.00    +0.000 OA
ATOM     30  H   UNL     1       6.432   3.780  13.055  0.00  0.00    +0.000 HD
ENDBRANCH  26  29
ENDBRANCH  19  23
ENDBRANCH   1  16
TORSDOF 6
ENDMDL
MODEL 8
REMARK VINA RESULT:      -8.1      2.965      4.282
REMARK  Name = 
REMARK  8 active torsions:
REMARK  status: ('A' for Active; 'I' for Inactive)
REMARK    1  A    between atoms: C_1  and  O_2
REMARK    2  A    between atoms: O_2  and  C_3
REMARK    3  A    between atoms: C_8  and  O_9
REMARK    4  A    between atoms: O_9  and  C_10
REMARK    5  A    between atoms: N_12  and  C_13
REMARK    6  A    between atoms: C_13  and  C_14
REMARK    7  A    between atoms: C_17  and  C_18
REMARK    8  A    between atoms: C_21  and  O_22
REMARK                            x       y       z     vdW  Elec       q    Type
REMARK                         _______ _______ _______ _____ _____    ______ ____
ROOT
ATOM      1  C   UNL     1       1.224  10.144  19.764  0.00  0.00    +0.000 C 
ENDROOT
BRANCH   1   9
ATOM      2  C   UNL     1      -3.105  14.076  22.234  0.00  0.00    +0.000 A 
ATOM      3  C   UNL     1      -2.477  13.925  20.991  0.00  0.00    +0.000 A 
ATOM      4  C   UNL     1      -1.547  12.908  20.789  0.00  0.00    +0.000 A 
ATOM      5  C   UNL     1      -1.203  12.049  21.840  0.00  0.00    +0.000 A 
ATOM      6  C   UNL     1      -1.824  12.201  23.085  0.00  0.00    +0.000 A 
ATOM      7  C   UNL     1      -2.802  13.188  23.287  0.00  0.00    +0.000 A 
ATOM      8  C   UNL     1      -0.115  11.019  21.605  0.00  0.00    +0.000 C 
ATOM      9  N   UNL     1      -0.141  10.361  20.276  0.00  0.00    +0.000 NA
ATOM     10  C   UNL     1      -0.940  11.098  19.273  0.00  0.00    +0.000 C 
ATOM     11  C   UNL     1      -0.933  12.624  19.447  0.00  0.00    +0.000 C 
BRANCH   2  13
ATOM     12  C   UNL     1      -3.635  16.327  21.671  0.00  0.00    +0.000 C 
ATOM     13  O   UNL     1      -4.032  15.088  22.242  0.00  0.00    +0.000 OA
ENDBRANCH   2  13
BRANCH   7  14
ATOM     14  O   UNL     1      -3.506  13.321  24.454  0.00  0.00    +0.000 OA
ATOM     15  C   UNL     1      -4.591  12.435  24.691  0.00  0.00    +0.000 C 
ENDBRANCH   7  14
ENDBRANCH   1   9
BRANCH   1  16
ATOM     16  C   UNL     1       1.570   8.702  19.485  0.00  0.00    +0.000 A 
ATOM     17  C   UNL     1       1.967   8.274  18.215  0.00  0.00    +0.000 A 
ATOM     18  C   UNL     1       2.355   6.941  18.005  0.00  0.00    +0.000 A 
ATOM     19  C   UNL     1       2.380   6.000  19.053  0.00  0.00    +0.000 A 
ATOM     20  C   UNL     1       1.966   6.450  20.318  0.00  0.00    +0.000 A 
ATOM     21  C   UNL     1       1.567   7.769  20.520  0.00  0.00    +0.000 A 
ATOM     22  F   UNL     1       1.179   8.138  21.750  0.00  0.00    +0.000 F 
BRANCH  19  23
ATOM     23  C   UNL     1       2.829   4.602  18.842  0.00  0.00    +0.000 A 
ATOM     24  C   UNL     1       3.887   4.049  19.590  0.00  0.00    +0.000 A 
ATOM     25  C   UNL     1       4.310   2.728  19.398  0.00  0.00    +0.000 A 
ATOM     26  C   UNL     1       3.668   1.934  18.458  0.00  0.00    +0.000 A 
ATOM     27  C   UNL     1       2.616   2.439  17.712  0.00  0.00    +0.000 A 
ATOM     28  C   UNL     1       2.206   3.764  17.897  0.00  0.00    +0.000 A 
BRANCH  26  29
ATOM     29  O   UNL     1       4.042   0.642  18.238  0.00  0.00    +0.000 OA
ATOM     30  H   UNL     1       4.976   0.630  17.970  0.00  0.00    +0.000 HD
ENDBRANCH  26  29
ENDBRANCH  19  23
ENDBRANCH   1  16
TORSDOF 6
ENDMDL
MODEL 9
REMARK VINA RESULT:      -8.0      2.108      3.459
REMARK  Name = 
REMARK  8 active torsions:
REMARK  status: ('A' for Active; 'I' for Inactive)
REMARK    1  A    between atoms: C_1  and  O_2
REMARK    2  A    between atoms: O_2  and  C_3
REMARK    3  A    between atoms: C_8  and  O_9
REMARK    4  A    between atoms: O_9  and  C_10
REMARK    5  A    between atoms: N_12  and  C_13
REMARK    6  A    between atoms: C_13  and  C_14
REMARK    7  A    between atoms: C_17  and  C_18
REMARK    8  A    between atoms: C_21  and  O_22
REMARK                            x       y       z     vdW  Elec       q    Type
REMARK                         _______ _______ _______ _____ _____    ______ ____
ROOT
ATOM      1  C   UNL     1       0.370  10.625  19.297  0.00  0.00    +0.000 C 
ENDROOT
BRANCH   1   9
ATOM      2  C   UNL     1      -5.554  12.894  19.057  0.00  0.00    +0.000 A 
ATOM      3  C   UNL     1      -4.718  12.175  18.195  0.00  0.00    +0.000 A 
ATOM      4  C   UNL     1      -3.429  11.823  18.591  0.00  0.00    +0.000 A 
ATOM      5  C   UNL     1      -2.945  12.219  19.844  0.00  0.00    +0.000 A 
ATOM      6  C   UNL     1      -3.776  12.943  20.706  0.00  0.00    +0.000 A 
ATOM      7  C   UNL     1      -5.094  13.259  20.339  0.00  0.00    +0.000 A 
ATOM      8  C   UNL     1      -1.505  11.900  20.196  0.00  0.00    +0.000 C 
ATOM      9  N   UNL     1      -1.027  10.564  19.763  0.00  0.00    +0.000 NA
ATOM     10  C   UNL     1      -1.876   9.948  18.719  0.00  0.00    +0.000 C 
ATOM     11  C   UNL     1      -2.533  10.951  17.758  0.00  0.00    +0.000 C 
BRANCH   2  13
ATOM     12  C   UNL     1      -6.964  12.869  17.140  0.00  0.00    +0.000 C 
ATOM     13  O   UNL     1      -6.803  13.107  18.531  0.00  0.00    +0.000 OA
ENDBRANCH   2  13
BRANCH   7  14
ATOM     14  O   UNL     1      -5.978  13.883  21.179  0.00  0.00    +0.000 OA
ATOM     15  C   UNL     1      -5.574  14.134  22.518  0.00  0.00    +0.000 C 
ENDBRANCH   7  14
ENDBRANCH   1   9
BRANCH   1  16
ATOM     16  C   UNL     1       1.137   9.333  19.439  0.00  0.00    +0.000 A 
ATOM     17  C   UNL     1       1.076   8.565  20.605  0.00  0.00    +0.000 A 
ATOM     18  C   UNL     1       1.740   7.331  20.678  0.00  0.00    +0.000 A 
ATOM     19  C   UNL     1       2.467   6.812  19.589  0.00  0.00    +0.000 A 
ATOM     20  C   UNL     1       2.523   7.606  18.430  0.00  0.00    +0.000 A 
ATOM     21  C   UNL     1       1.875   8.837  18.366  0.00  0.00    +0.000 A 
ATOM     22  F   UNL     1       1.969   9.551  17.234  0.00  0.00    +0.000 F 
BRANCH  19  23
ATOM     23  C   UNL     1       3.135   5.489  19.649  0.00  0.00    +0.000 A 
ATOM     24  C   UNL     1       2.524   4.385  20.276  0.00  0.00    +0.000 A 
ATOM     25  C   UNL     1       3.149   3.133  20.329  0.00  0.00    +0.000 A 
ATOM     26  C   UNL     1       4.394   2.964  19.740  0.00  0.00    +0.000 A 
ATOM     27  C   UNL     1       5.020   4.024  19.103  0.00  0.00    +0.000 A 
ATOM     28  C   UNL     1       4.399   5.276  19.066  0.00  0.00    +0.000 A 
BRANCH  26  29
ATOM     29  O   UNL     1       5.039   1.764  19.763  0.00  0.00    +0.000 OA
ATOM     30  H   UNL     1       5.081   1.451  20.682  0.00  0.00    +0.000 HD
ENDBRANCH  26  29
ENDBRANCH  19  23
ENDBRANCH   1  16
TORSDOF 6
ENDMDL
