MODEL 1
REMARK VINA RESULT:      -7.5      0.000      0.000
REMARK  Name = 
REMARK  19 active torsions:
REMARK  status: ('A' for Active; 'I' for Inactive)
REMARK    1  A    between atoms: CD1_1  and  CG_2
REMARK    2  A    between atoms: CG_2  and  CD2_3
REMARK    3  A    between atoms: CG_2  and  CB_4
REMARK    4  A    between atoms: CB_4  and  CA_5
REMARK    5  A    between atoms: CA_5  and  N_6
REMARK    6  A    between atoms: CA_5  and  C_7
REMARK    7  A    between atoms: N_9  and  CA_10
REMARK    8  A    between atoms: CA_10  and  CB_11
REMARK    9  A    between atoms: CA_10  and  C_15
REMARK   10  A    between atoms: CB_11  and  CG_12
REMARK   11  A    between atoms: CG_12  and  CD1_13
REMARK   12  A    between atoms: CG_12  and  CD2_14
REMARK   13  A    between atoms: N_17  and  CA_18
REMARK   14  A    between atoms: CA_18  and  CB_19
REMARK   15  A    between atoms: CA_18  and  C_24
REMARK   16  A    between atoms: CB_19  and  CG_20
REMARK   17  A    between atoms: CG_20  and  CD_21
REMARK   18  A    between atoms: CD_21  and  OE2_23
REMARK   19  A    between atoms: C_24  and  OXT_26
REMARK                            x       y       z     vdW  Elec       q    Type
REMARK                         _______ _______ _______ _____ _____    ______ ____
ROOT
ATOM      1  CA  LEU A   2       3.516   5.387  17.422  0.00  0.00    +0.000 C 
ENDROOT
BRANCH   1   4
ATOM      2  C   LEU A   1       2.867   3.029  17.930  0.00  0.00    +0.000 C 
ATOM      3  O   LEU A   1       2.144   2.901  16.944  0.00  0.00    +0.000 OA
ATOM      4  N   LEU A   2       3.599   4.157  18.191  0.00  0.00    +0.000 N 
ATOM      5  H   LEU A   2       4.163   4.210  19.034  0.00  0.00    +0.000 HD
BRANCH   2   6
ATOM      6  CA  LEU A   1       2.997   1.939  19.016  0.00  0.00    +0.000 C 
BRANCH   6   7
ATOM      7  N   LEU A   1       3.901   0.878  18.525  0.00  0.00    +0.000 NA
ATOM      8  H1  LEU A   1       3.494  -0.020  18.812  0.00  0.00    +0.000 HD
ATOM      9  H2  LEU A   1       4.777   0.928  19.046  0.00  0.00    +0.000 HD
ENDBRANCH   6   7
BRANCH   6  10
ATOM     10  CB  LEU A   1       3.558   2.534  20.313  0.00  0.00    +0.000 C 
BRANCH  10  12
ATOM     11  CD1 LEU A   1       2.363   4.551  21.345  0.00  0.00    +0.000 C 
ATOM     12  CG  LEU A   1       2.504   3.028  21.325  0.00  0.00    +0.000 C 
ATOM     13  CD2 LEU A   1       1.151   2.390  20.994  0.00  0.00    +0.000 C 
ENDBRANCH  10  12
ENDBRANCH   6  10
ENDBRANCH   2   6
ENDBRANCH   1   4
BRANCH   1  14
ATOM     14  C   LEU A   2       4.673   5.343  16.401  0.00  0.00    +0.000 C 
ATOM     15  O   LEU A   2       5.068   6.358  15.822  0.00  0.00    +0.000 OA
ATOM     16  N   GLU A   3       5.207   4.103  16.157  0.00  0.00    +0.000 N 
ATOM     17  H   GLU A   3       4.864   3.290  16.663  0.00  0.00    +0.000 HD
BRANCH  16  18
ATOM     18  CA  GLU A   3       6.188   3.872  15.097  0.00  0.00    +0.000 C 
BRANCH  18  19
ATOM     19  C   GLU A   3       7.409   4.734  15.438  0.00  0.00    +0.000 C 
ATOM     20  O   GLU A   3       7.854   5.588  14.682  0.00  0.00    +0.000 OA
BRANCH  19  21
ATOM     21  OXT GLU A   3       7.940   4.500  16.656  0.00  0.00    +0.000 OA
ATOM     22  HXT GLU A   3       7.541   5.012  17.397  0.00  0.00    +0.000 HD
ENDBRANCH  19  21
ENDBRANCH  18  19
BRANCH  18  23
ATOM     23  CB  GLU A   3       5.619   4.239  13.714  0.00  0.00    +0.000 C 
BRANCH  23  24
ATOM     24  CG  GLU A   3       6.313   3.557  12.538  0.00  0.00    +0.000 C 
BRANCH  24  25
ATOM     25  CD  GLU A   3       5.345   2.669  11.807  0.00  0.00    +0.000 C 
ATOM     26  OE1 GLU A   3       4.269   3.080  11.400  0.00  0.00    +0.000 OA
BRANCH  25  27
ATOM     27  OE2 GLU A   3       5.816   1.434  11.543  0.00  0.00    +0.000 OA
ATOM     28  HE2 GLU A   3       6.139   0.942  12.326  0.00  0.00    +0.000 HD
ENDBRANCH  25  27
ENDBRANCH  24  25
ENDBRANCH  23  24
ENDBRANCH  18  23
ENDBRANCH  16  18
ENDBRANCH   1  14
BRANCH   1  29
ATOM     29  CB  LEU A   2       3.592   6.659  18.290  0.00  0.00    +0.000 C 
BRANCH  29  30
ATOM     30  CG  LEU A   2       2.280   7.466  18.444  0.00  0.00    +0.000 C 
ATOM     31  CD1 LEU A   2       2.002   7.722  19.927  0.00  0.00    +0.000 C 
ATOM     32  CD2 LEU A   2       2.279   8.806  17.706  0.00  0.00    +0.000 C 
ENDBRANCH  29  30
ENDBRANCH   1  29
TORSDOF 15
ENDMDL
MODEL 2
REMARK VINA RESULT:      -7.4      2.658      5.127
REMARK  Name = 
REMARK  19 active torsions:
REMARK  status: ('A' for Active; 'I' for Inactive)
REMARK    1  A    between atoms: CD1_1  and  CG_2
REMARK    2  A    between atoms: CG_2  and  CD2_3
REMARK    3  A    between atoms: CG_2  and  CB_4
REMARK    4  A    between atoms: CB_4  and  CA_5
REMARK    5  A    between atoms: CA_5  and  N_6
REMARK    6  A    between atoms: CA_5  and  C_7
REMARK    7  A    between atoms: N_9  and  CA_10
REMARK    8  A    between atoms: CA_10  and  CB_11
REMARK    9  A    between atoms: CA_10  and  C_15
REMARK   10  A    between atoms: CB_11  and  CG_12
REMARK   11  A    between atoms: CG_12  and  CD1_13
REMARK   12  A    between atoms: CG_12  and  CD2_14
REMARK   13  A    between atoms: N_17  and  CA_18
REMARK   14  A    between atoms: CA_18  and  CB_19
REMARK   15  A    between atoms: CA_18  and  C_24
REMARK   16  A    between atoms: CB_19  and  CG_20
REMARK   17  A    between atoms: CG_20  and  CD_21
REMARK   18  A    between atoms: CD_21  and  OE2_23
REMARK   19  A    between atoms: C_24  and  OXT_26
REMARK                            x       y       z     vdW  Elec       q    Type
REMARK                         _______ _______ _______ _____ _____    ______ ____
ROOT
ATOM      1  CA  LEU A   2       3.429   5.113  19.253  0.00  0.00    +0.000 C 
ENDROOT
BRANCH   1   4
ATOM      2  C   LEU A   1       2.429   7.402  19.254  0.00  0.00    +0.000 C 
ATOM      3  O   LEU A   1       1.801   7.245  20.299  0.00  0.00    +0.000 OA
ATOM      4  N   LEU A   2       3.271   6.458  18.728  0.00  0.00    +0.000 N 
ATOM      5  H   LEU A   2       3.747   6.639  17.848  0.00  0.00    +0.000 HD
BRANCH   2   6
ATOM      6  CA  LEU A   1       2.302   8.673  18.387  0.00  0.00    +0.000 C 
BRANCH   6   7
ATOM      7  N   LEU A   1       2.981   8.442  17.094  0.00  0.00    +0.000 NA
ATOM      8  H1  LEU A   1       2.874   7.445  16.873  0.00  0.00    +0.000 HD
ATOM      9  H2  LEU A   1       3.986   8.556  17.229  0.00  0.00    +0.000 HD
ENDBRANCH   6   7
BRANCH   6  10
ATOM     10  CB  LEU A   1       0.829   9.015  18.141  0.00  0.00    +0.000 C 
BRANCH  10  12
ATOM     11  CD1 LEU A   1      -1.084  10.711  18.308  0.00  0.00    +0.000 C 
ATOM     12  CG  LEU A   1       0.383  10.412  18.622  0.00  0.00    +0.000 C 
ATOM     13  CD2 LEU A   1       0.622  10.524  20.131  0.00  0.00    +0.000 C 
ENDBRANCH  10  12
ENDBRANCH   6  10
ENDBRANCH   2   6
ENDBRANCH   1   4
BRANCH   1  14
ATOM     14  C   LEU A   2       4.919   4.749  19.080  0.00  0.00    +0.000 C 
ATOM     15  O   LEU A   2       5.414   3.759  19.625  0.00  0.00    +0.000 OA
ATOM     16  N   GLU A   3       5.659   5.611  18.312  0.00  0.00    +0.000 N 
ATOM     17  H   GLU A   3       5.214   6.411  17.867  0.00  0.00    +0.000 HD
BRANCH  16  18
ATOM     18  CA  GLU A   3       7.113   5.498  18.194  0.00  0.00    +0.000 C 
BRANCH  18  19
ATOM     19  C   GLU A   3       7.645   6.920  17.982  0.00  0.00    +0.000 C 
ATOM     20  O   GLU A   3       7.307   7.625  17.040  0.00  0.00    +0.000 OA
BRANCH  19  21
ATOM     21  OXT GLU A   3       8.497   7.349  18.937  0.00  0.00    +0.000 OA
ATOM     22  HXT GLU A   3       9.330   7.760  18.608  0.00  0.00    +0.000 HD
ENDBRANCH  19  21
ENDBRANCH  18  19
BRANCH  18  23
ATOM     23  CB  GLU A   3       7.512   4.577  17.026  0.00  0.00    +0.000 C 
BRANCH  23  24
ATOM     24  CG  GLU A   3       6.358   4.167  16.116  0.00  0.00    +0.000 C 
BRANCH  24  25
ATOM     25  CD  GLU A   3       6.308   5.057  14.905  0.00  0.00    +0.000 C 
ATOM     26  OE1 GLU A   3       6.773   4.713  13.829  0.00  0.00    +0.000 OA
BRANCH  25  27
ATOM     27  OE2 GLU A   3       5.610   6.196  15.083  0.00  0.00    +0.000 OA
ATOM     28  HE2 GLU A   3       6.132   6.946  15.436  0.00  0.00    +0.000 HD
ENDBRANCH  25  27
ENDBRANCH  24  25
ENDBRANCH  23  24
ENDBRANCH  18  23
ENDBRANCH  16  18
ENDBRANCH   1  14
BRANCH   1  29
ATOM     29  CB  LEU A   2       2.522   4.075  18.564  0.00  0.00    +0.000 C 
BRANCH  29  30
ATOM     30  CG  LEU A   2       1.807   3.062  19.490  0.00  0.00    +0.000 C 
ATOM     31  CD1 LEU A   2       1.225   3.793  20.703  0.00  0.00    +0.000 C 
ATOM     32  CD2 LEU A   2       0.687   2.273  18.809  0.00  0.00    +0.000 C 
ENDBRANCH  29  30
ENDBRANCH   1  29
TORSDOF 15
ENDMDL
MODEL 3
REMARK VINA RESULT:      -7.2      1.945      2.952
REMARK  Name = 
REMARK  19 active torsions:
REMARK  status: ('A' for Active; 'I' for Inactive)
REMARK    1  A    between atoms: CD1_1  and  CG_2
REMARK    2  A    between atoms: CG_2  and  CD2_3
REMARK    3  A    between atoms: CG_2  and  CB_4
REMARK    4  A    between atoms: CB_4  and  CA_5
REMARK    5  A    between atoms: CA_5  and  N_6
REMARK    6  A    between atoms: CA_5  and  C_7
REMARK    7  A    between atoms: N_9  and  CA_10
REMARK    8  A    between atoms: CA_10  and  CB_11
REMARK    9  A    between atoms: CA_10  and  C_15
REMARK   10  A    between atoms: CB_11  and  CG_12
REMARK   11  A    between atoms: CG_12  and  CD1_13
REMARK   12  A    between atoms: CG_12  and  CD2_14
REMARK   13  A    between atoms: N_17  and  CA_18
REMARK   14  A    between atoms: CA_18  and  CB_19
REMARK   15  A    between atoms: CA_18  and  C_24
REMARK   16  A    between atoms: CB_19  and  CG_20
REMARK   17  A    between atoms: CG_20  and  CD_21
REMARK   18  A    between atoms: CD_21  and  OE2_23
REMARK   19  A    between atoms: C_24  and  OXT_26
REMARK                            x       y       z     vdW  Elec       q    Type
REMARK                         _______ _______ _______ _____ _____    ______ ____
ROOT
ATOM      1  CA  LEU A   2       5.490   5.208  16.144  0.00  0.00    +0.000 C 
ENDROOT
BRANCH   1   4
ATOM      2  C   LEU A   1       3.895   3.935  17.585  0.00  0.00    +0.000 C 
ATOM      3  O   LEU A   1       2.935   4.668  17.356  0.00  0.00    +0.000 OA
ATOM      4  N   LEU A   2       5.124   4.092  16.999  0.00  0.00    +0.000 N 
ATOM      5  H   LEU A   2       5.885   3.466  17.246  0.00  0.00    +0.000 HD
BRANCH   2   6
ATOM      6  CA  LEU A   1       3.836   2.776  18.603  0.00  0.00    +0.000 C 
BRANCH   6   7
ATOM      7  N   LEU A   1       4.930   2.942  19.583  0.00  0.00    +0.000 NA
ATOM      8  H1  LEU A   1       4.888   2.137  20.219  0.00  0.00    +0.000 HD
ATOM      9  H2  LEU A   1       4.713   3.740  20.182  0.00  0.00    +0.000 HD
ENDBRANCH   6   7
BRANCH   6  10
ATOM     10  CB  LEU A   1       2.489   2.765  19.333  0.00  0.00    +0.000 C 
BRANCH  10  12
ATOM     11  CD1 LEU A   1       1.862   4.889  20.621  0.00  0.00    +0.000 C 
ATOM     12  CG  LEU A   1       2.469   3.487  20.697  0.00  0.00    +0.000 C 
ATOM     13  CD2 LEU A   1       1.684   2.639  21.702  0.00  0.00    +0.000 C 
ENDBRANCH  10  12
ENDBRANCH   6  10
ENDBRANCH   2   6
ENDBRANCH   1   4
BRANCH   1  14
ATOM     14  C   LEU A   2       6.659   4.717  15.263  0.00  0.00    +0.000 C 
ATOM     15  O   LEU A   2       7.762   4.441  15.740  0.00  0.00    +0.000 OA
ATOM     16  N   GLU A   3       6.401   4.640  13.917  0.00  0.00    +0.000 N 
ATOM     17  H   GLU A   3       5.474   4.862  13.560  0.00  0.00    +0.000 HD
BRANCH  16  18
ATOM     18  CA  GLU A   3       7.449   4.357  12.937  0.00  0.00    +0.000 C 
BRANCH  18  19
ATOM     19  C   GLU A   3       8.120   5.697  12.617  0.00  0.00    +0.000 C 
ATOM     20  O   GLU A   3       7.768   6.412  11.688  0.00  0.00    +0.000 OA
BRANCH  19  21
ATOM     21  OXT GLU A   3       9.113   6.044  13.462  0.00  0.00    +0.000 OA
ATOM     22  HXT GLU A   3       9.691   5.305  13.762  0.00  0.00    +0.000 HD
ENDBRANCH  19  21
ENDBRANCH  18  19
BRANCH  18  23
ATOM     23  CB  GLU A   3       6.870   3.708  11.666  0.00  0.00    +0.000 C 
BRANCH  23  24
ATOM     24  CG  GLU A   3       7.316   2.269  11.425  0.00  0.00    +0.000 C 
BRANCH  24  25
ATOM     25  CD  GLU A   3       6.122   1.387  11.187  0.00  0.00    +0.000 C 
ATOM     26  OE1 GLU A   3       6.229   0.182  11.019  0.00  0.00    +0.000 OA
BRANCH  25  27
ATOM     27  OE2 GLU A   3       4.936   2.020  11.295  0.00  0.00    +0.000 OA
ATOM     28  HE2 GLU A   3       4.830   2.556  12.108  0.00  0.00    +0.000 HD
ENDBRANCH  25  27
ENDBRANCH  24  25
ENDBRANCH  23  24
ENDBRANCH  18  23
ENDBRANCH  16  18
ENDBRANCH   1  14
BRANCH   1  29
ATOM     29  CB  LEU A   2       5.882   6.477  16.926  0.00  0.00    +0.000 C 
BRANCH  29  30
ATOM     30  CG  LEU A   2       7.309   6.501  17.526  0.00  0.00    +0.000 C 
ATOM     31  CD1 LEU A   2       7.808   7.945  17.613  0.00  0.00    +0.000 C 
ATOM     32  CD2 LEU A   2       7.417   5.861  18.912  0.00  0.00    +0.000 C 
ENDBRANCH  29  30
ENDBRANCH   1  29
TORSDOF 15
ENDMDL
MODEL 4
REMARK VINA RESULT:      -7.2      2.813      5.360
REMARK  Name = 
REMARK  19 active torsions:
REMARK  status: ('A' for Active; 'I' for Inactive)
REMARK    1  A    between atoms: CD1_1  and  CG_2
REMARK    2  A    between atoms: CG_2  and  CD2_3
REMARK    3  A    between atoms: CG_2  and  CB_4
REMARK    4  A    between atoms: CB_4  and  CA_5
REMARK    5  A    between atoms: CA_5  and  N_6
REMARK    6  A    between atoms: CA_5  and  C_7
REMARK    7  A    between atoms: N_9  and  CA_10
REMARK    8  A    between atoms: CA_10  and  CB_11
REMARK    9  A    between atoms: CA_10  and  C_15
REMARK   10  A    between atoms: CB_11  and  CG_12
REMARK   11  A    between atoms: CG_12  and  CD1_13
REMARK   12  A    between atoms: CG_12  and  CD2_14
REMARK   13  A    between atoms: N_17  and  CA_18
REMARK   14  A    between atoms: CA_18  and  CB_19
REMARK   15  A    between atoms: CA_18  and  C_24
REMARK   16  A    between atoms: CB_19  and  CG_20
REMARK   17  A    between atoms: CG_20  and  CD_21
REMARK   18  A    between atoms: CD_21  and  OE2_23
REMARK   19  A    between atoms: C_24  and  OXT_26
REMARK                            x       y       z     vdW  Elec       q    Type
REMARK                         _______ _______ _______ _____ _____    ______ ____
ROOT
ATOM      1  CA  LEU A   2       2.874   5.262  18.863  0.00  0.00    +0.000 C 
ENDROOT
BRANCH   1   4
ATOM      2  C   LEU A   1       2.135   7.568  19.476  0.00  0.00    +0.000 C 
ATOM      3  O   LEU A   1       1.701   7.252  20.582  0.00  0.00    +0.000 OA
ATOM      4  N   LEU A   2       2.760   6.692  18.629  0.00  0.00    +0.000 N 
ATOM      5  H   LEU A   2       3.079   7.009  17.718  0.00  0.00    +0.000 HD
BRANCH   2   6
ATOM      6  CA  LEU A   1       1.980   8.990  18.895  0.00  0.00    +0.000 C 
BRANCH   6   7
ATOM      7  N   LEU A   1       2.132   8.926  17.425  0.00  0.00    +0.000 NA
ATOM      8  H1  LEU A   1       1.440   9.569  17.024  0.00  0.00    +0.000 HD
ATOM      9  H2  LEU A   1       1.826   8.006  17.106  0.00  0.00    +0.000 HD
ENDBRANCH   6   7
BRANCH   6  10
ATOM     10  CB  LEU A   1       0.605   9.570  19.245  0.00  0.00    +0.000 C 
BRANCH  10  12
ATOM     11  CD1 LEU A   1      -1.067  11.346  18.460  0.00  0.00    +0.000 C 
ATOM     12  CG  LEU A   1       0.385  11.042  18.837  0.00  0.00    +0.000 C 
ATOM     13  CD2 LEU A   1       0.820  11.953  19.989  0.00  0.00    +0.000 C 
ENDBRANCH  10  12
ENDBRANCH   6  10
ENDBRANCH   2   6
ENDBRANCH   1   4
BRANCH   1  14
ATOM     14  C   LEU A   2       4.226   4.827  18.259  0.00  0.00    +0.000 C 
ATOM     15  O   LEU A   2       4.325   3.833  17.535  0.00  0.00    +0.000 OA
ATOM     16  N   GLU A   3       5.309   5.595  18.603  0.00  0.00    +0.000 N 
ATOM     17  H   GLU A   3       5.188   6.417  19.191  0.00  0.00    +0.000 HD
BRANCH  16  18
ATOM     18  CA  GLU A   3       6.678   5.216  18.251  0.00  0.00    +0.000 C 
BRANCH  18  19
ATOM     19  C   GLU A   3       7.585   5.798  19.341  0.00  0.00    +0.000 C 
ATOM     20  O   GLU A   3       7.677   5.313  20.460  0.00  0.00    +0.000 OA
BRANCH  19  21
ATOM     21  OXT GLU A   3       8.304   6.874  18.957  0.00  0.00    +0.000 OA
ATOM     22  HXT GLU A   3       8.620   6.861  18.024  0.00  0.00    +0.000 HD
ENDBRANCH  19  21
ENDBRANCH  18  19
BRANCH  18  23
ATOM     23  CB  GLU A   3       7.069   5.750  16.861  0.00  0.00    +0.000 C 
BRANCH  23  24
ATOM     24  CG  GLU A   3       7.436   4.672  15.845  0.00  0.00    +0.000 C 
BRANCH  24  25
ATOM     25  CD  GLU A   3       6.640   4.855  14.582  0.00  0.00    +0.000 C 
ATOM     26  OE1 GLU A   3       5.425   4.726  14.558  0.00  0.00    +0.000 OA
BRANCH  25  27
ATOM     27  OE2 GLU A   3       7.363   5.285  13.529  0.00  0.00    +0.000 OA
ATOM     28  HE2 GLU A   3       8.314   5.055  13.564  0.00  0.00    +0.000 HD
ENDBRANCH  25  27
ENDBRANCH  24  25
ENDBRANCH  23  24
ENDBRANCH  18  23
ENDBRANCH  16  18
ENDBRANCH   1  14
BRANCH   1  29
ATOM     29  CB  LEU A   2       1.712   4.448  18.262  0.00  0.00    +0.000 C 
BRANCH  29  30
ATOM     30  CG  LEU A   2       1.029   3.425  19.202  0.00  0.00    +0.000 C 
ATOM     31  CD1 LEU A   2       1.597   2.028  18.945  0.00  0.00    +0.000 C 
ATOM     32  CD2 LEU A   2       1.177   3.748  20.690  0.00  0.00    +0.000 C 
ENDBRANCH  29  30
ENDBRANCH   1  29
TORSDOF 15
ENDMDL
MODEL 5
REMARK VINA RESULT:      -7.1      2.464      6.873
REMARK  Name = 
REMARK  19 active torsions:
REMARK  status: ('A' for Active; 'I' for Inactive)
REMARK    1  A    between atoms: CD1_1  and  CG_2
REMARK    2  A    between atoms: CG_2  and  CD2_3
REMARK    3  A    between atoms: CG_2  and  CB_4
REMARK    4  A    between atoms: CB_4  and  CA_5
REMARK    5  A    between atoms: CA_5  and  N_6
REMARK    6  A    between atoms: CA_5  and  C_7
REMARK    7  A    between atoms: N_9  and  CA_10
REMARK    8  A    between atoms: CA_10  and  CB_11
REMARK    9  A    between atoms: CA_10  and  C_15
REMARK   10  A    between atoms: CB_11  and  CG_12
REMARK   11  A    between atoms: CG_12  and  CD1_13
REMARK   12  A    between atoms: CG_12  and  CD2_14
REMARK   13  A    between atoms: N_17  and  CA_18
REMARK   14  A    between atoms: CA_18  and  CB_19
REMARK   15  A    between atoms: CA_18  and  C_24
REMARK   16  A    between atoms: CB_19  and  CG_20
REMARK   17  A    between atoms: CG_20  and  CD_21
REMARK   18  A    between atoms: CD_21  and  OE2_23
REMARK   19  A    between atoms: C_24  and  OXT_26
REMARK                            x       y       z     vdW  Elec       q    Type
REMARK                         _______ _______ _______ _____ _____    ______ ____
ROOT
ATOM      1  CA  LEU A   2       5.882   5.338  16.702  0.00  0.00    +0.000 C 
ENDROOT
BRANCH   1   4
ATOM      2  C   LEU A   1       6.940   4.802  14.503  0.00  0.00    +0.000 C 
ATOM      3  O   LEU A   1       8.019   4.462  14.983  0.00  0.00    +0.000 OA
ATOM      4  N   LEU A   2       5.859   5.172  15.259  0.00  0.00    +0.000 N 
ATOM      5  H   LEU A   2       4.999   5.463  14.802  0.00  0.00    +0.000 HD
BRANCH   2   6
ATOM      6  CA  LEU A   1       6.696   4.897  12.982  0.00  0.00    +0.000 C 
BRANCH   6   7
ATOM      7  N   LEU A   1       7.654   5.862  12.402  0.00  0.00    +0.000 NA
ATOM      8  H1  LEU A   1       8.596   5.501  12.591  0.00  0.00    +0.000 HD
ATOM      9  H2  LEU A   1       7.609   6.728  12.940  0.00  0.00    +0.000 HD
ENDBRANCH   6   7
BRANCH   6  10
ATOM     10  CB  LEU A   1       6.881   3.527  12.319  0.00  0.00    +0.000 C 
BRANCH  10  12
ATOM     11  CD1 LEU A   1       4.454   3.488  11.499  0.00  0.00    +0.000 C 
ATOM     12  CG  LEU A   1       5.593   2.696  12.145  0.00  0.00    +0.000 C 
ATOM     13  CD2 LEU A   1       5.904   1.458  11.299  0.00  0.00    +0.000 C 
ENDBRANCH  10  12
ENDBRANCH   6  10
ENDBRANCH   2   6
ENDBRANCH   1   4
BRANCH   1  14
ATOM     14  C   LEU A   2       4.497   4.888  17.216  0.00  0.00    +0.000 C 
ATOM     15  O   LEU A   2       3.717   4.248  16.507  0.00  0.00    +0.000 OA
ATOM     16  N   GLU A   3       4.181   5.273  18.494  0.00  0.00    +0.000 N 
ATOM     17  H   GLU A   3       4.855   5.789  19.055  0.00  0.00    +0.000 HD
BRANCH  16  18
ATOM     18  CA  GLU A   3       2.847   5.073  19.061  0.00  0.00    +0.000 C 
BRANCH  18  19
ATOM     19  C   GLU A   3       2.400   6.430  19.616  0.00  0.00    +0.000 C 
ATOM     20  O   GLU A   3       2.376   7.450  18.940  0.00  0.00    +0.000 OA
BRANCH  19  21
ATOM     21  OXT GLU A   3       2.002   6.406  20.905  0.00  0.00    +0.000 OA
ATOM     22  HXT GLU A   3       2.686   6.118  21.554  0.00  0.00    +0.000 HD
ENDBRANCH  19  21
ENDBRANCH  18  19
BRANCH  18  23
ATOM     23  CB  GLU A   3       2.862   4.000  20.166  0.00  0.00    +0.000 C 
BRANCH  23  24
ATOM     24  CG  GLU A   3       2.893   2.562  19.657  0.00  0.00    +0.000 C 
BRANCH  24  25
ATOM     25  CD  GLU A   3       1.743   2.316  18.721  0.00  0.00    +0.000 C 
ATOM     26  OE1 GLU A   3       0.587   2.545  19.042  0.00  0.00    +0.000 OA
BRANCH  25  27
ATOM     27  OE2 GLU A   3       2.110   1.942  17.479  0.00  0.00    +0.000 OA
ATOM     28  HE2 GLU A   3       3.069   1.779  17.366  0.00  0.00    +0.000 HD
ENDBRANCH  25  27
ENDBRANCH  24  25
ENDBRANCH  23  24
ENDBRANCH  18  23
ENDBRANCH  16  18
ENDBRANCH   1  14
BRANCH   1  29
ATOM     29  CB  LEU A   2       6.196   6.779  17.148  0.00  0.00    +0.000 C 
BRANCH  29  30
ATOM     30  CG  LEU A   2       7.640   7.049  17.635  0.00  0.00    +0.000 C 
ATOM     31  CD1 LEU A   2       7.857   8.555  17.798  0.00  0.00    +0.000 C 
ATOM     32  CD2 LEU A   2       7.996   6.357  18.952  0.00  0.00    +0.000 C 
ENDBRANCH  29  30
ENDBRANCH   1  29
TORSDOF 15
ENDMDL
MODEL 6
REMARK VINA RESULT:      -7.1      2.679      4.961
REMARK  Name = 
REMARK  19 active torsions:
REMARK  status: ('A' for Active; 'I' for Inactive)
REMARK    1  A    between atoms: CD1_1  and  CG_2
REMARK    2  A    between atoms: CG_2  and  CD2_3
REMARK    3  A    between atoms: CG_2  and  CB_4
REMARK    4  A    between atoms: CB_4  and  CA_5
REMARK    5  A    between atoms: CA_5  and  N_6
REMARK    6  A    between atoms: CA_5  and  C_7
REMARK    7  A    between atoms: N_9  and  CA_10
REMARK    8  A    between atoms: CA_10  and  CB_11
REMARK    9  A    between atoms: CA_10  and  C_15
REMARK   10  A    between atoms: CB_11  and  CG_12
REMARK   11  A    between atoms: CG_12  and  CD1_13
REMARK   12  A    between atoms: CG_12  and  CD2_14
REMARK   13  A    between atoms: N_17  and  CA_18
REMARK   14  A    between atoms: CA_18  and  CB_19
REMARK   15  A    between atoms: CA_18  and  C_24
REMARK   16  A    between atoms: CB_19  and  CG_20
REMARK   17  A    between atoms: CG_20  and  CD_21
REMARK   18  A    between atoms: CD_21  and  OE2_23
REMARK   19  A    between atoms: C_24  and  OXT_26
REMARK                            x       y       z     vdW  Elec       q    Type
REMARK                         _______ _______ _______ _____ _____    ______ ____
ROOT
ATOM      1  CA  LEU A   2       3.046   5.913  18.457  0.00  0.00    +0.000 C 
ENDROOT
BRANCH   1   4
ATOM      2  C   LEU A   1       1.994   7.962  19.424  0.00  0.00    +0.000 C 
ATOM      3  O   LEU A   1       1.826   7.480  20.542  0.00  0.00    +0.000 OA
ATOM      4  N   LEU A   2       2.621   7.302  18.401  0.00  0.00    +0.000 N 
ATOM      5  H   LEU A   2       2.712   7.746  17.492  0.00  0.00    +0.000 HD
BRANCH   2   6
ATOM      6  CA  LEU A   1       1.472   9.361  19.032  0.00  0.00    +0.000 C 
BRANCH   6   7
ATOM      7  N   LEU A   1       1.003   9.323  17.630  0.00  0.00    +0.000 NA
ATOM      8  H1  LEU A   1      -0.005   9.515  17.645  0.00  0.00    +0.000 HD
ATOM      9  H2  LEU A   1       1.066   8.361  17.292  0.00  0.00    +0.000 HD
ENDBRANCH   6   7
BRANCH   6  10
ATOM     10  CB  LEU A   1       0.319   9.784  19.948  0.00  0.00    +0.000 C 
BRANCH  10  12
ATOM     11  CD1 LEU A   1       0.656  12.318  20.117  0.00  0.00    +0.000 C 
ATOM     12  CG  LEU A   1       0.612  10.987  20.869  0.00  0.00    +0.000 C 
ATOM     13  CD2 LEU A   1      -0.455  11.050  21.967  0.00  0.00    +0.000 C 
ENDBRANCH  10  12
ENDBRANCH   6  10
ENDBRANCH   2   6
ENDBRANCH   1   4
BRANCH   1  14
ATOM     14  C   LEU A   2       4.297   5.802  17.559  0.00  0.00    +0.000 C 
ATOM     15  O   LEU A   2       4.737   6.770  16.935  0.00  0.00    +0.000 OA
ATOM     16  N   GLU A   3       4.864   4.555  17.477  0.00  0.00    +0.000 N 
ATOM     17  H   GLU A   3       4.482   3.782  18.018  0.00  0.00    +0.000 HD
BRANCH  16  18
ATOM     18  CA  GLU A   3       5.946   4.252  16.541  0.00  0.00    +0.000 C 
BRANCH  18  19
ATOM     19  C   GLU A   3       7.206   4.924  17.098  0.00  0.00    +0.000 C 
ATOM     20  O   GLU A   3       7.883   4.434  17.992  0.00  0.00    +0.000 OA
BRANCH  19  21
ATOM     21  OXT GLU A   3       7.532   6.089  16.500  0.00  0.00    +0.000 OA
ATOM     22  HXT GLU A   3       8.040   6.723  17.057  0.00  0.00    +0.000 HD
ENDBRANCH  19  21
ENDBRANCH  18  19
BRANCH  18  23
ATOM     23  CB  GLU A   3       5.625   4.763  15.125  0.00  0.00    +0.000 C 
BRANCH  23  24
ATOM     24  CG  GLU A   3       6.227   3.934  13.995  0.00  0.00    +0.000 C 
BRANCH  24  25
ATOM     25  CD  GLU A   3       7.218   4.755  13.218  0.00  0.00    +0.000 C 
ATOM     26  OE1 GLU A   3       7.950   5.570  13.760  0.00  0.00    +0.000 OA
BRANCH  25  27
ATOM     27  OE2 GLU A   3       7.308   4.427  11.914  0.00  0.00    +0.000 OA
ATOM     28  HE2 GLU A   3       7.420   3.470  11.738  0.00  0.00    +0.000 HD
ENDBRANCH  25  27
ENDBRANCH  24  25
ENDBRANCH  23  24
ENDBRANCH  18  23
ENDBRANCH  16  18
ENDBRANCH   1  14
BRANCH   1  29
ATOM     29  CB  LEU A   2       1.955   4.920  18.009  0.00  0.00    +0.000 C 
BRANCH  29  30
ATOM     30  CG  LEU A   2       1.323   4.047  19.120  0.00  0.00    +0.000 C 
ATOM     31  CD1 LEU A   2       1.094   2.628  18.595  0.00  0.00    +0.000 C 
ATOM     32  CD2 LEU A   2       2.153   3.967  20.403  0.00  0.00    +0.000 C 
ENDBRANCH  29  30
ENDBRANCH   1  29
TORSDOF 15
ENDMDL
MODEL 7
REMARK VINA RESULT:      -7.1      3.711      7.808
REMARK  Name = 
REMARK  19 active torsions:
REMARK  status: ('A' for Active; 'I' for Inactive)
REMARK    1  A    between atoms: CD1_1  and  CG_2
REMARK    2  A    between atoms: CG_2  and  CD2_3
REMARK    3  A    between atoms: CG_2  and  CB_4
REMARK    4  A    between atoms: CB_4  and  CA_5
REMARK    5  A    between atoms: CA_5  and  N_6
REMARK    6  A    between atoms: CA_5  and  C_7
REMARK    7  A    between atoms: N_9  and  CA_10
REMARK    8  A    between atoms: CA_10  and  CB_11
REMARK    9  A    between atoms: CA_10  and  C_15
REMARK   10  A    between atoms: CB_11  and  CG_12
REMARK   11  A    between atoms: CG_12  and  CD1_13
REMARK   12  A    between atoms: CG_12  and  CD2_14
REMARK   13  A    between atoms: N_17  and  CA_18
REMARK   14  A    between atoms: CA_18  and  CB_19
REMARK   15  A    between atoms: CA_18  and  C_24
REMARK   16  A    between atoms: CB_19  and  CG_20
REMARK   17  A    between atoms: CG_20  and  CD_21
REMARK   18  A    between atoms: CD_21  and  OE2_23
REMARK   19  A    between atoms: C_24  and  OXT_26
REMARK                            x       y       z     vdW  Elec       q    Type
REMARK                         _______ _______ _______ _____ _____    ______ ____
ROOT
ATOM      1  CA  LEU A   2       2.245   5.688  19.696  0.00  0.00    +0.000 C 
ENDROOT
BRANCH   1   4
ATOM      2  C   LEU A   1       3.736   4.729  17.936  0.00  0.00    +0.000 C 
ATOM      3  O   LEU A   1       2.830   4.168  17.322  0.00  0.00    +0.000 OA
ATOM      4  N   LEU A   2       3.528   5.518  19.036  0.00  0.00    +0.000 N 
ATOM      5  H   LEU A   2       4.321   5.939  19.513  0.00  0.00    +0.000 HD
BRANCH   2   6
ATOM      6  CA  LEU A   1       5.224   4.568  17.559  0.00  0.00    +0.000 C 
BRANCH   6   7
ATOM      7  N   LEU A   1       5.946   3.967  18.702  0.00  0.00    +0.000 NA
ATOM      8  H1  LEU A   1       5.302   3.302  19.147  0.00  0.00    +0.000 HD
ATOM      9  H2  LEU A   1       6.086   4.687  19.413  0.00  0.00    +0.000 HD
ENDBRANCH   6   7
BRANCH   6  10
ATOM     10  CB  LEU A   1       5.376   3.670  16.327  0.00  0.00    +0.000 C 
BRANCH  10  12
ATOM     11  CD1 LEU A   1       6.032   4.009  13.873  0.00  0.00    +0.000 C 
ATOM     12  CG  LEU A   1       6.481   4.088  15.334  0.00  0.00    +0.000 C 
ATOM     13  CD2 LEU A   1       6.932   5.515  15.658  0.00  0.00    +0.000 C 
ENDBRANCH  10  12
ENDBRANCH   6  10
ENDBRANCH   2   6
ENDBRANCH   1   4
BRANCH   1  14
ATOM     14  C   LEU A   2       1.971   7.207  19.736  0.00  0.00    +0.000 C 
ATOM     15  O   LEU A   2       2.444   7.975  18.895  0.00  0.00    +0.000 OA
ATOM     16  N   GLU A   3       1.199   7.647  20.781  0.00  0.00    +0.000 N 
ATOM     17  H   GLU A   3       0.814   6.982  21.449  0.00  0.00    +0.000 HD
BRANCH  16  18
ATOM     18  CA  GLU A   3       0.992   9.069  21.053  0.00  0.00    +0.000 C 
BRANCH  18  19
ATOM     19  C   GLU A   3       0.971   9.224  22.577  0.00  0.00    +0.000 C 
ATOM     20  O   GLU A   3       1.980   9.417  23.242  0.00  0.00    +0.000 OA
BRANCH  19  21
ATOM     21  OXT GLU A   3      -0.259   9.162  23.131  0.00  0.00    +0.000 OA
ATOM     22  HXT GLU A   3      -0.993   8.953  22.509  0.00  0.00    +0.000 HD
ENDBRANCH  19  21
ENDBRANCH  18  19
BRANCH  18  23
ATOM     23  CB  GLU A   3      -0.319   9.576  20.426  0.00  0.00    +0.000 C 
BRANCH  23  24
ATOM     24  CG  GLU A   3      -0.231  10.965  19.798  0.00  0.00    +0.000 C 
BRANCH  24  25
ATOM     25  CD  GLU A   3       0.827  10.986  18.730  0.00  0.00    +0.000 C 
ATOM     26  OE1 GLU A   3       1.822  11.690  18.819  0.00  0.00    +0.000 OA
BRANCH  25  27
ATOM     27  OE2 GLU A   3       0.639  10.086  17.745  0.00  0.00    +0.000 OA
ATOM     28  HE2 GLU A   3      -0.120  10.276  17.156  0.00  0.00    +0.000 HD
ENDBRANCH  25  27
ENDBRANCH  24  25
ENDBRANCH  23  24
ENDBRANCH  18  23
ENDBRANCH  16  18
ENDBRANCH   1  14
BRANCH   1  29
ATOM     29  CB  LEU A   2       2.199   5.080  21.112  0.00  0.00    +0.000 C 
BRANCH  29  30
ATOM     30  CG  LEU A   2       1.601   3.658  21.231  0.00  0.00    +0.000 C 
ATOM     31  CD1 LEU A   2       0.816   3.319  19.962  0.00  0.00    +0.000 C 
ATOM     32  CD2 LEU A   2       2.639   2.560  21.472  0.00  0.00    +0.000 C 
ENDBRANCH  29  30
ENDBRANCH   1  29
TORSDOF 15
ENDMDL
MODEL 8
REMARK VINA RESULT:      -7.1      2.740      5.197
REMARK  Name = 
REMARK  19 active torsions:
REMARK  status: ('A' for Active; 'I' for Inactive)
REMARK    1  A    between atoms: CD1_1  and  CG_2
REMARK    2  A    between atoms: CG_2  and  CD2_3
REMARK    3  A    between atoms: CG_2  and  CB_4
REMARK    4  A    between atoms: CB_4  and  CA_5
REMARK    5  A    between atoms: CA_5  and  N_6
REMARK    6  A    between atoms: CA_5  and  C_7
REMARK    7  A    between atoms: N_9  and  CA_10
REMARK    8  A    between atoms: CA_10  and  CB_11
REMARK    9  A    between atoms: CA_10  and  C_15
REMARK   10  A    between atoms: CB_11  and  CG_12
REMARK   11  A    between atoms: CG_12  and  CD1_13
REMARK   12  A    between atoms: CG_12  and  CD2_14
REMARK   13  A    between atoms: N_17  and  CA_18
REMARK   14  A    between atoms: CA_18  and  CB_19
REMARK   15  A    between atoms: CA_18  and  C_24
REMARK   16  A    between atoms: CB_19  and  CG_20
REMARK   17  A    between atoms: CG_20  and  CD_21
REMARK   18  A    between atoms: CD_21  and  OE2_23
REMARK   19  A    between atoms: C_24  and  OXT_26
REMARK                            x       y       z     vdW  Elec       q    Type
REMARK                         _______ _______ _______ _____ _____    ______ ____
ROOT
ATOM      1  CA  LEU A   2       3.243   5.130  19.479  0.00  0.00    +0.000 C 
ENDROOT
BRANCH   1   4
ATOM      2  C   LEU A   1       2.357   7.461  19.338  0.00  0.00    +0.000 C 
ATOM      3  O   LEU A   1       1.675   7.379  20.358  0.00  0.00    +0.000 OA
ATOM      4  N   LEU A   2       3.175   6.457  18.891  0.00  0.00    +0.000 N 
ATOM      5  H   LEU A   2       3.699   6.577  18.029  0.00  0.00    +0.000 HD
BRANCH   2   6
ATOM      6  CA  LEU A   1       2.332   8.698  18.415  0.00  0.00    +0.000 C 
BRANCH   6   7
ATOM      7  N   LEU A   1       3.067   8.383  17.171  0.00  0.00    +0.000 NA
ATOM      8  H1  LEU A   1       2.403   7.922  16.538  0.00  0.00    +0.000 HD
ATOM      9  H2  LEU A   1       3.756   7.658  17.375  0.00  0.00    +0.000 HD
ENDBRANCH   6   7
BRANCH   6  10
ATOM     10  CB  LEU A   1       0.890   9.090  18.075  0.00  0.00    +0.000 C 
BRANCH  10  12
ATOM     11  CD1 LEU A   1      -1.034  10.762  18.333  0.00  0.00    +0.000 C 
ATOM     12  CG  LEU A   1       0.458  10.496  18.543  0.00  0.00    +0.000 C 
ATOM     13  CD2 LEU A   1       0.808  10.661  20.025  0.00  0.00    +0.000 C 
ENDBRANCH  10  12
ENDBRANCH   6  10
ENDBRANCH   2   6
ENDBRANCH   1   4
BRANCH   1  14
ATOM     14  C   LEU A   2       4.639   4.569  19.131  0.00  0.00    +0.000 C 
ATOM     15  O   LEU A   2       5.006   3.456  19.514  0.00  0.00    +0.000 OA
ATOM     16  N   GLU A   3       5.450   5.399  18.400  0.00  0.00    +0.000 N 
ATOM     17  H   GLU A   3       5.108   6.306  18.089  0.00  0.00    +0.000 HD
BRANCH  16  18
ATOM     18  CA  GLU A   3       6.854   5.084  18.137  0.00  0.00    +0.000 C 
BRANCH  18  19
ATOM     19  C   GLU A   3       7.683   5.966  19.077  0.00  0.00    +0.000 C 
ATOM     20  O   GLU A   3       8.156   7.041  18.737  0.00  0.00    +0.000 OA
BRANCH  19  21
ATOM     21  OXT GLU A   3       7.825   5.476  20.327  0.00  0.00    +0.000 OA
ATOM     22  HXT GLU A   3       7.949   6.150  21.035  0.00  0.00    +0.000 HD
ENDBRANCH  19  21
ENDBRANCH  18  19
BRANCH  18  23
ATOM     23  CB  GLU A   3       7.223   5.344  16.665  0.00  0.00    +0.000 C 
BRANCH  23  24
ATOM     24  CG  GLU A   3       6.034   5.623  15.750  0.00  0.00    +0.000 C 
BRANCH  24  25
ATOM     25  CD  GLU A   3       5.515   4.339  15.165  0.00  0.00    +0.000 C 
ATOM     26  OE1 GLU A   3       6.051   3.799  14.209  0.00  0.00    +0.000 OA
BRANCH  25  27
ATOM     27  OE2 GLU A   3       4.498   3.787  15.856  0.00  0.00    +0.000 OA
ATOM     28  HE2 GLU A   3       3.610   4.125  15.619  0.00  0.00    +0.000 HD
ENDBRANCH  25  27
ENDBRANCH  24  25
ENDBRANCH  23  24
ENDBRANCH  18  23
ENDBRANCH  16  18
ENDBRANCH   1  14
BRANCH   1  29
ATOM     29  CB  LEU A   2       2.129   4.184  18.988  0.00  0.00    +0.000 C 
BRANCH  29  30
ATOM     30  CG  LEU A   2       1.446   3.308  20.066  0.00  0.00    +0.000 C 
ATOM     31  CD1 LEU A   2       1.606   1.829  19.707  0.00  0.00    +0.000 C 
ATOM     32  CD2 LEU A   2       1.980   3.529  21.483  0.00  0.00    +0.000 C 
ENDBRANCH  29  30
ENDBRANCH   1  29
TORSDOF 15
ENDMDL
MODEL 9
REMARK VINA RESULT:      -7.0      2.361      6.311
REMARK  Name = 
REMARK  19 active torsions:
REMARK  status: ('A' for Active; 'I' for Inactive)
REMARK    1  A    between atoms: CD1_1  and  CG_2
REMARK    2  A    between atoms: CG_2  and  CD2_3
REMARK    3  A    between atoms: CG_2  and  CB_4
REMARK    4  A    between atoms: CB_4  and  CA_5
REMARK    5  A    between atoms: CA_5  and  N_6
REMARK    6  A    between atoms: CA_5  and  C_7
REMARK    7  A    between atoms: N_9  and  CA_10
REMARK    8  A    between atoms: CA_10  and  CB_11
REMARK    9  A    between atoms: CA_10  and  C_15
REMARK   10  A    between atoms: CB_11  and  CG_12
REMARK   11  A    between atoms: CG_12  and  CD1_13
REMARK   12  A    between atoms: CG_12  and  CD2_14
REMARK   13  A    between atoms: N_17  and  CA_18
REMARK   14  A    between atoms: CA_18  and  CB_19
REMARK   15  A    between atoms: CA_18  and  C_24
REMARK   16  A    between atoms: CB_19  and  CG_20
REMARK   17  A    between atoms: CG_20  and  CD_21
REMARK   18  A    between atoms: CD_21  and  OE2_23
REMARK   19  A    between atoms: C_24  and  OXT_26
REMARK                            x       y       z     vdW  Elec       q    Type
REMARK                         _______ _______ _______ _____ _____    ______ ____
ROOT
ATOM      1  CA  LEU A   2       4.779   5.969  18.068  0.00  0.00    +0.000 C 
ENDROOT
BRANCH   1   4
ATOM      2  C   LEU A   1       5.712   5.961  15.751  0.00  0.00    +0.000 C 
ATOM      3  O   LEU A   1       5.129   6.984  15.396  0.00  0.00    +0.000 OA
ATOM      4  N   LEU A   2       5.644   5.452  17.020  0.00  0.00    +0.000 N 
ATOM      5  H   LEU A   2       6.132   4.591  17.247  0.00  0.00    +0.000 HD
BRANCH   2   6
ATOM      6  CA  LEU A   1       6.557   5.105  14.783  0.00  0.00    +0.000 C 
BRANCH   6   7
ATOM      7  N   LEU A   1       7.660   4.475  15.539  0.00  0.00    +0.000 NA
ATOM      8  H1  LEU A   1       7.264   3.665  16.029  0.00  0.00    +0.000 HD
ATOM      9  H2  LEU A   1       7.941   5.104  16.291  0.00  0.00    +0.000 HD
ENDBRANCH   6   7
BRANCH   6  10
ATOM     10  CB  LEU A   1       5.695   4.019  14.130  0.00  0.00    +0.000 C 
BRANCH  10  12
ATOM     11  CD1 LEU A   1       5.089   3.139  11.801  0.00  0.00    +0.000 C 
ATOM     12  CG  LEU A   1       6.214   3.484  12.779  0.00  0.00    +0.000 C 
ATOM     13  CD2 LEU A   1       7.142   4.528  12.149  0.00  0.00    +0.000 C 
ENDBRANCH  10  12
ENDBRANCH   6  10
ENDBRANCH   2   6
ENDBRANCH   1   4
BRANCH   1  14
ATOM     14  C   LEU A   2       4.798   4.925  19.205  0.00  0.00    +0.000 C 
ATOM     15  O   LEU A   2       5.829   4.663  19.830  0.00  0.00    +0.000 OA
ATOM     16  N   GLU A   3       3.608   4.288  19.451  0.00  0.00    +0.000 N 
ATOM     17  H   GLU A   3       2.774   4.539  18.925  0.00  0.00    +0.000 HD
BRANCH  16  18
ATOM     18  CA  GLU A   3       3.505   3.159  20.376  0.00  0.00    +0.000 C 
BRANCH  18  19
ATOM     19  C   GLU A   3       4.110   1.948  19.656  0.00  0.00    +0.000 C 
ATOM     20  O   GLU A   3       3.579   1.414  18.691  0.00  0.00    +0.000 OA
BRANCH  19  21
ATOM     21  OXT GLU A   3       5.295   1.535  20.151  0.00  0.00    +0.000 OA
ATOM     22  HXT GLU A   3       5.370   1.544  21.134  0.00  0.00    +0.000 HD
ENDBRANCH  19  21
ENDBRANCH  18  19
BRANCH  18  23
ATOM     23  CB  GLU A   3       2.042   2.892  20.776  0.00  0.00    +0.000 C 
BRANCH  23  24
ATOM     24  CG  GLU A   3       1.010   3.693  19.989  0.00  0.00    +0.000 C 
BRANCH  24  25
ATOM     25  CD  GLU A   3       0.803   3.082  18.631  0.00  0.00    +0.000 C 
ATOM     26  OE1 GLU A   3       1.047   3.693  17.601  0.00  0.00    +0.000 OA
BRANCH  25  27
ATOM     27  OE2 GLU A   3       0.445   1.783  18.657  0.00  0.00    +0.000 OA
ATOM     28  HE2 GLU A   3       0.452   1.339  17.784  0.00  0.00    +0.000 HD
ENDBRANCH  25  27
ENDBRANCH  24  25
ENDBRANCH  23  24
ENDBRANCH  18  23
ENDBRANCH  16  18
ENDBRANCH   1  14
BRANCH   1  29
ATOM     29  CB  LEU A   2       3.338   6.242  17.593  0.00  0.00    +0.000 C 
BRANCH  29  30
ATOM     30  CG  LEU A   2       2.633   7.474  18.211  0.00  0.00    +0.000 C 
ATOM     31  CD1 LEU A   2       3.253   8.758  17.655  0.00  0.00    +0.000 C 
ATOM     32  CD2 LEU A   2       1.122   7.516  17.971  0.00  0.00    +0.000 C 
ENDBRANCH  29  30
ENDBRANCH   1  29
TORSDOF 15
ENDMDL
