MODEL 1
REMARK VINA RESULT:      -7.7      0.000      0.000
REMARK  Name = 
REMARK  4 active torsions:
REMARK  status: ('A' for Active; 'I' for Inactive)
REMARK    1  A    between atoms: C_1  and  C_2
REMARK    2  A    between atoms: C_7  and  N_8
REMARK    3  A    between atoms: C_9  and  C_11
REMARK    4  A    between atoms: C_17  and  C_18
REMARK                            x       y       z     vdW  Elec       q    Type
REMARK                         _______ _______ _______ _____ _____    ______ ____
ROOT
ATOM      1  C   UNL     1       2.241   7.536  18.171  0.00  0.00    +0.000 C 
ATOM      2  C   UNL     1       2.406   6.869  19.523  0.00  0.00    +0.000 C 
ATOM      3  S   UNL     1       2.488   5.098  19.256  0.00  0.00    +0.000 S 
ATOM      4  C   UNL     1       3.659   4.953  17.960  0.00  0.00    +0.000 A 
ATOM      5  N   UNL     1       4.072   3.748  17.752  0.00  0.00    +0.000 NA
ATOM      6  C   UNL     1       4.966   3.547  16.745  0.00  0.00    +0.000 A 
ATOM      7  C   UNL     1       5.481   4.512  15.981  0.00  0.00    +0.000 A 
ATOM      8  C   UNL     1       6.476   4.280  14.892  0.00  0.00    +0.000 C 
ATOM      9  C   UNL     1       5.031   5.898  16.254  0.00  0.00    +0.000 A 
ATOM     10  O   UNL     1       5.536   6.834  15.631  0.00  0.00    +0.000 OA
ATOM     11  N   UNL     1       4.047   6.056  17.220  0.00  0.00    +0.000 N 
ATOM     12  C   UNL     1       3.600   7.437  17.469  0.00  0.00    +0.000 C 
ENDROOT
BRANCH   1  14
ATOM     13  N   UNL     1       1.014   9.183  19.544  0.00  0.00    +0.000 N 
ATOM     14  C   UNL     1       1.787   8.971  18.388  0.00  0.00    +0.000 C 
ATOM     15  O   UNL     1       2.171   9.852  17.622  0.00  0.00    +0.000 OA
ATOM     16  H   UNL     1       0.894   8.411  20.192  0.00  0.00    +0.000 HD
BRANCH  13  23
ATOM     17  C   UNL     1      -1.538  10.294  18.225  0.00  0.00    +0.000 C 
ATOM     18  C   UNL     1      -0.744  10.946  19.326  0.00  0.00    +0.000 A 
ATOM     19  C   UNL     1      -1.253  12.187  19.790  0.00  0.00    +0.000 A 
ATOM     20  C   UNL     1      -0.592  12.862  20.798  0.00  0.00    +0.000 A 
ATOM     21  N   UNL     1       0.535  12.423  21.361  0.00  0.00    +0.000 NA
ATOM     22  C   UNL     1       1.014  11.229  20.912  0.00  0.00    +0.000 A 
ATOM     23  C   UNL     1       0.426  10.434  19.920  0.00  0.00    +0.000 A 
ENDBRANCH  13  23
ENDBRANCH   1  14
TORSDOF 2
ENDMDL
MODEL 2
REMARK VINA RESULT:      -7.1      1.455      1.474
REMARK  Name = 
REMARK  4 active torsions:
REMARK  status: ('A' for Active; 'I' for Inactive)
REMARK    1  A    between atoms: C_1  and  C_2
REMARK    2  A    between atoms: C_7  and  N_8
REMARK    3  A    between atoms: C_9  and  C_11
REMARK    4  A    between atoms: C_17  and  C_18
REMARK                            x       y       z     vdW  Elec       q    Type
REMARK                         _______ _______ _______ _____ _____    ______ ____
ROOT
ATOM      1  C   UNL     1       2.418   7.044  18.475  0.00  0.00    +0.000 C 
ATOM      2  C   UNL     1       2.723   6.148  19.659  0.00  0.00    +0.000 C 
ATOM      3  S   UNL     1       2.884   4.469  19.052  0.00  0.00    +0.000 S 
ATOM      4  C   UNL     1       3.958   4.652  17.678  0.00  0.00    +0.000 A 
ATOM      5  N   UNL     1       4.420   3.539  17.216  0.00  0.00    +0.000 NA
ATOM      6  C   UNL     1       5.243   3.594  16.133  0.00  0.00    +0.000 A 
ATOM      7  C   UNL     1       5.643   4.719  15.537  0.00  0.00    +0.000 A 
ATOM      8  C   UNL     1       6.563   4.766  14.362  0.00  0.00    +0.000 C 
ATOM      9  C   UNL     1       5.138   5.994  16.100  0.00  0.00    +0.000 A 
ATOM     10  O   UNL     1       5.541   7.064  15.638  0.00  0.00    +0.000 OA
ATOM     11  N   UNL     1       4.225   5.899  17.141  0.00  0.00    +0.000 N 
ATOM     12  C   UNL     1       3.721   7.173  17.680  0.00  0.00    +0.000 C 
ENDROOT
BRANCH   1  14
ATOM     13  N   UNL     1       1.720   9.368  18.012  0.00  0.00    +0.000 N 
ATOM     14  C   UNL     1       1.902   8.377  18.993  0.00  0.00    +0.000 C 
ATOM     15  O   UNL     1       1.602   8.493  20.179  0.00  0.00    +0.000 OA
ATOM     16  H   UNL     1       1.846   9.111  17.038  0.00  0.00    +0.000 HD
BRANCH  13  23
ATOM     17  C   UNL     1      -1.225  10.145  18.471  0.00  0.00    +0.000 C 
ATOM     18  C   UNL     1      -0.041  11.076  18.488  0.00  0.00    +0.000 A 
ATOM     19  C   UNL     1      -0.341  12.436  18.757  0.00  0.00    +0.000 A 
ATOM     20  C   UNL     1       0.679  13.367  18.793  0.00  0.00    +0.000 A 
ATOM     21  N   UNL     1       1.957  13.065  18.560  0.00  0.00    +0.000 NA
ATOM     22  C   UNL     1       2.237  11.756  18.307  0.00  0.00    +0.000 A 
ATOM     23  C   UNL     1       1.303  10.713  18.271  0.00  0.00    +0.000 A 
ENDBRANCH  13  23
ENDBRANCH   1  14
TORSDOF 2
ENDMDL
MODEL 3
REMARK VINA RESULT:      -7.1      1.007      1.278
REMARK  Name = 
REMARK  4 active torsions:
REMARK  status: ('A' for Active; 'I' for Inactive)
REMARK    1  A    between atoms: C_1  and  C_2
REMARK    2  A    between atoms: C_7  and  N_8
REMARK    3  A    between atoms: C_9  and  C_11
REMARK    4  A    between atoms: C_17  and  C_18
REMARK                            x       y       z     vdW  Elec       q    Type
REMARK                         _______ _______ _______ _____ _____    ______ ____
ROOT
ATOM      1  C   UNL     1       2.332   7.332  18.185  0.00  0.00    +0.000 C 
ATOM      2  C   UNL     1       2.580   6.618  19.499  0.00  0.00    +0.000 C 
ATOM      3  S   UNL     1       2.749   4.867  19.150  0.00  0.00    +0.000 S 
ATOM      4  C   UNL     1       3.879   4.843  17.811  0.00  0.00    +0.000 A 
ATOM      5  N   UNL     1       4.349   3.673  17.535  0.00  0.00    +0.000 NA
ATOM      6  C   UNL     1       5.216   3.565  16.492  0.00  0.00    +0.000 A 
ATOM      7  C   UNL     1       5.651   4.590  15.754  0.00  0.00    +0.000 A 
ATOM      8  C   UNL     1       6.617   4.460  14.624  0.00  0.00    +0.000 C 
ATOM      9  C   UNL     1       5.136   5.935  16.104  0.00  0.00    +0.000 A 
ATOM     10  O   UNL     1       5.567   6.924  15.507  0.00  0.00    +0.000 OA
ATOM     11  N   UNL     1       4.180   5.997  17.108  0.00  0.00    +0.000 N 
ATOM     12  C   UNL     1       3.667   7.338  17.433  0.00  0.00    +0.000 C 
ENDROOT
BRANCH   1  14
ATOM     13  N   UNL     1       1.415   8.948  19.813  0.00  0.00    +0.000 N 
ATOM     14  C   UNL     1       1.808   8.728  18.480  0.00  0.00    +0.000 C 
ATOM     15  O   UNL     1       1.831   9.585  17.599  0.00  0.00    +0.000 OA
ATOM     16  H   UNL     1       1.591   8.216  20.494  0.00  0.00    +0.000 HD
BRANCH  13  23
ATOM     17  C   UNL     1      -0.412   9.035  22.291  0.00  0.00    +0.000 C 
ATOM     18  C   UNL     1       0.005  10.209  21.445  0.00  0.00    +0.000 A 
ATOM     19  C   UNL     1      -0.499  11.468  21.863  0.00  0.00    +0.000 A 
ATOM     20  C   UNL     1      -0.173  12.606  21.150  0.00  0.00    +0.000 A 
ATOM     21  N   UNL     1       0.585  12.592  20.052  0.00  0.00    +0.000 NA
ATOM     22  C   UNL     1       1.068  11.379  19.660  0.00  0.00    +0.000 A 
ATOM     23  C   UNL     1       0.836  10.160  20.309  0.00  0.00    +0.000 A 
ENDBRANCH  13  23
ENDBRANCH   1  14
TORSDOF 2
ENDMDL
MODEL 4
REMARK VINA RESULT:      -7.0      0.945      1.442
REMARK  Name = 
REMARK  4 active torsions:
REMARK  status: ('A' for Active; 'I' for Inactive)
REMARK    1  A    between atoms: C_1  and  C_2
REMARK    2  A    between atoms: C_7  and  N_8
REMARK    3  A    between atoms: C_9  and  C_11
REMARK    4  A    between atoms: C_17  and  C_18
REMARK                            x       y       z     vdW  Elec       q    Type
REMARK                         _______ _______ _______ _____ _____    ______ ____
ROOT
ATOM      1  C   UNL     1       2.198   7.647  18.134  0.00  0.00    +0.000 C 
ATOM      2  C   UNL     1       2.441   7.086  19.521  0.00  0.00    +0.000 C 
ATOM      3  S   UNL     1       2.606   5.307  19.374  0.00  0.00    +0.000 S 
ATOM      4  C   UNL     1       3.739   5.128  18.049  0.00  0.00    +0.000 A 
ATOM      5  N   UNL     1       4.206   3.933  17.910  0.00  0.00    +0.000 NA
ATOM      6  C   UNL     1       5.075   3.705  16.887  0.00  0.00    +0.000 A 
ATOM      7  C   UNL     1       5.515   4.638  16.040  0.00  0.00    +0.000 A 
ATOM      8  C   UNL     1       6.483   4.378  14.934  0.00  0.00    +0.000 C 
ATOM      9  C   UNL     1       5.003   6.016  16.233  0.00  0.00    +0.000 A 
ATOM     10  O   UNL     1       5.438   6.929  15.528  0.00  0.00    +0.000 OA
ATOM     11  N   UNL     1       4.045   6.194  17.221  0.00  0.00    +0.000 N 
ATOM     12  C   UNL     1       3.536   7.565  17.390  0.00  0.00    +0.000 C 
ENDROOT
BRANCH   1  14
ATOM     13  N   UNL     1       0.574   9.223  19.125  0.00  0.00    +0.000 N 
ATOM     14  C   UNL     1       1.678   9.070  18.267  0.00  0.00    +0.000 C 
ATOM     15  O   UNL     1       2.273   9.989  17.710  0.00  0.00    +0.000 OA
ATOM     16  H   UNL     1       0.264   8.417  19.661  0.00  0.00    +0.000 HD
BRANCH  13  23
ATOM     17  C   UNL     1       0.240  10.447  21.932  0.00  0.00    +0.000 C 
ATOM     18  C   UNL     1      -0.272  11.023  20.638  0.00  0.00    +0.000 A 
ATOM     19  C   UNL     1      -0.961  12.258  20.753  0.00  0.00    +0.000 A 
ATOM     20  C   UNL     1      -1.470  12.865  19.621  0.00  0.00    +0.000 A 
ATOM     21  N   UNL     1      -1.372  12.339  18.399  0.00  0.00    +0.000 NA
ATOM     22  C   UNL     1      -0.705  11.155  18.297  0.00  0.00    +0.000 A 
ATOM     23  C   UNL     1      -0.121  10.453  19.358  0.00  0.00    +0.000 A 
ENDBRANCH  13  23
ENDBRANCH   1  14
TORSDOF 2
ENDMDL
MODEL 5
REMARK VINA RESULT:      -6.9      2.113      8.048
REMARK  Name = 
REMARK  4 active torsions:
REMARK  status: ('A' for Active; 'I' for Inactive)
REMARK    1  A    between atoms: C_1  and  C_2
REMARK    2  A    between atoms: C_7  and  N_8
REMARK    3  A    between atoms: C_9  and  C_11
REMARK    4  A    between atoms: C_17  and  C_18
REMARK                            x       y       z     vdW  Elec       q    Type
REMARK                         _______ _______ _______ _____ _____    ______ ____
ROOT
ATOM      1  C   UNL     1       1.643   9.024  19.724  0.00  0.00    +0.000 C 
ATOM      2  C   UNL     1       1.394   8.131  20.924  0.00  0.00    +0.000 C 
ATOM      3  S   UNL     1       1.193   9.184  22.361  0.00  0.00    +0.000 S 
ATOM      4  C   UNL     1       0.051  10.392  21.803  0.00  0.00    +0.000 A 
ATOM      5  N   UNL     1      -0.440  11.129  22.741  0.00  0.00    +0.000 NA
ATOM      6  C   UNL     1      -1.317  12.108  22.387  0.00  0.00    +0.000 A 
ATOM      7  C   UNL     1      -1.741  12.337  21.142  0.00  0.00    +0.000 A 
ATOM      8  C   UNL     1      -2.719  13.401  20.770  0.00  0.00    +0.000 C 
ATOM      9  C   UNL     1      -1.201  11.459  20.077  0.00  0.00    +0.000 A 
ATOM     10  O   UNL     1      -1.620  11.575  18.924  0.00  0.00    +0.000 OA
ATOM     11  N   UNL     1      -0.236  10.536  20.457  0.00  0.00    +0.000 N 
ATOM     12  C   UNL     1       0.302   9.682  19.385  0.00  0.00    +0.000 C 
ENDROOT
BRANCH   1  14
ATOM     13  N   UNL     1       2.720   6.929  18.980  0.00  0.00    +0.000 N 
ATOM     14  C   UNL     1       2.192   8.173  18.590  0.00  0.00    +0.000 C 
ATOM     15  O   UNL     1       2.077   8.560  17.429  0.00  0.00    +0.000 OA
ATOM     16  H   UNL     1       2.616   6.643  19.948  0.00  0.00    +0.000 HD
BRANCH  13  23
ATOM     17  C   UNL     1       1.553   4.134  18.417  0.00  0.00    +0.000 C 
ATOM     18  C   UNL     1       2.814   4.712  17.830  0.00  0.00    +0.000 A 
ATOM     19  C   UNL     1       3.504   3.867  16.922  0.00  0.00    +0.000 A 
ATOM     20  C   UNL     1       4.673   4.308  16.332  0.00  0.00    +0.000 A 
ATOM     21  N   UNL     1       5.221   5.498  16.586  0.00  0.00    +0.000 NA
ATOM     22  C   UNL     1       4.549   6.304  17.456  0.00  0.00    +0.000 A 
ATOM     23  C   UNL     1       3.345   5.989  18.097  0.00  0.00    +0.000 A 
ENDBRANCH  13  23
ENDBRANCH   1  14
TORSDOF 2
ENDMDL
MODEL 6
REMARK VINA RESULT:      -6.9      2.725      8.083
REMARK  Name = 
REMARK  4 active torsions:
REMARK  status: ('A' for Active; 'I' for Inactive)
REMARK    1  A    between atoms: C_1  and  C_2
REMARK    2  A    between atoms: C_7  and  N_8
REMARK    3  A    between atoms: C_9  and  C_11
REMARK    4  A    between atoms: C_17  and  C_18
REMARK                            x       y       z     vdW  Elec       q    Type
REMARK                         _______ _______ _______ _____ _____    ______ ____
ROOT
ATOM      1  C   UNL     1       1.468   8.803  20.609  0.00  0.00    +0.000 C 
ATOM      2  C   UNL     1       0.366   8.264  21.499  0.00  0.00    +0.000 C 
ATOM      3  S   UNL     1       0.045   9.482  22.776  0.00  0.00    +0.000 S 
ATOM      4  C   UNL     1      -0.092  10.974  21.866  0.00  0.00    +0.000 A 
ATOM      5  N   UNL     1      -0.565  11.965  22.544  0.00  0.00    +0.000 NA
ATOM      6  C   UNL     1      -0.681  13.167  21.916  0.00  0.00    +0.000 A 
ATOM      7  C   UNL     1      -0.380  13.389  20.634  0.00  0.00    +0.000 A 
ATOM      8  C   UNL     1      -0.530  14.708  19.952  0.00  0.00    +0.000 C 
ATOM      9  C   UNL     1       0.125  12.234  19.854  0.00  0.00    +0.000 A 
ATOM     10  O   UNL     1       0.341  12.365  18.647  0.00  0.00    +0.000 OA
ATOM     11  N   UNL     1       0.324  11.049  20.549  0.00  0.00    +0.000 N 
ATOM     12  C   UNL     1       0.840   9.916  19.763  0.00  0.00    +0.000 C 
ENDROOT
BRANCH   1  14
ATOM     13  N   UNL     1       2.351   6.499  20.495  0.00  0.00    +0.000 N 
ATOM     14  C   UNL     1       2.022   7.660  19.773  0.00  0.00    +0.000 C 
ATOM     15  O   UNL     1       2.074   7.772  18.550  0.00  0.00    +0.000 OA
ATOM     16  H   UNL     1       2.115   6.461  21.482  0.00  0.00    +0.000 HD
BRANCH  13  23
ATOM     17  C   UNL     1       0.842   3.826  20.244  0.00  0.00    +0.000 C 
ATOM     18  C   UNL     1       2.257   4.098  19.808  0.00  0.00    +0.000 A 
ATOM     19  C   UNL     1       2.932   3.000  19.215  0.00  0.00    +0.000 A 
ATOM     20  C   UNL     1       4.236   3.151  18.784  0.00  0.00    +0.000 A 
ATOM     21  N   UNL     1       4.926   4.285  18.914  0.00  0.00    +0.000 NA
ATOM     22  C   UNL     1       4.269   5.336  19.481  0.00  0.00    +0.000 A 
ATOM     23  C   UNL     1       2.943   5.322  19.932  0.00  0.00    +0.000 A 
ENDBRANCH  13  23
ENDBRANCH   1  14
TORSDOF 2
ENDMDL
MODEL 7
REMARK VINA RESULT:      -6.8      2.546      7.996
REMARK  Name = 
REMARK  4 active torsions:
REMARK  status: ('A' for Active; 'I' for Inactive)
REMARK    1  A    between atoms: C_1  and  C_2
REMARK    2  A    between atoms: C_7  and  N_8
REMARK    3  A    between atoms: C_9  and  C_11
REMARK    4  A    between atoms: C_17  and  C_18
REMARK                            x       y       z     vdW  Elec       q    Type
REMARK                         _______ _______ _______ _____ _____    ______ ____
ROOT
ATOM      1  C   UNL     1       2.073   7.469  18.756  0.00  0.00    +0.000 C 
ATOM      2  C   UNL     1       2.423   8.614  17.825  0.00  0.00    +0.000 C 
ATOM      3  S   UNL     1       0.968   9.646  17.651  0.00  0.00    +0.000 S 
ATOM      4  C   UNL     1       0.452   9.876  19.311  0.00  0.00    +0.000 A 
ATOM      5  N   UNL     1      -0.445  10.791  19.464  0.00  0.00    +0.000 NA
ATOM      6  C   UNL     1      -0.916  11.015  20.721  0.00  0.00    +0.000 A 
ATOM      7  C   UNL     1      -0.489  10.385  21.818  0.00  0.00    +0.000 A 
ATOM      8  C   UNL     1      -1.001  10.654  23.194  0.00  0.00    +0.000 C 
ATOM      9  C   UNL     1       0.570   9.363  21.636  0.00  0.00    +0.000 A 
ATOM     10  O   UNL     1       1.056   8.810  22.625  0.00  0.00    +0.000 OA
ATOM     11  N   UNL     1       0.958   9.091  20.332  0.00  0.00    +0.000 N 
ATOM     12  C   UNL     1       1.999   8.063  20.167  0.00  0.00    +0.000 C 
ENDROOT
BRANCH   1  14
ATOM     13  N   UNL     1       4.390   6.839  18.173  0.00  0.00    +0.000 N 
ATOM     14  C   UNL     1       3.134   6.389  18.620  0.00  0.00    +0.000 C 
ATOM     15  O   UNL     1       2.879   5.239  18.971  0.00  0.00    +0.000 OA
ATOM     16  H   UNL     1       4.534   7.838  18.067  0.00  0.00    +0.000 HD
BRANCH  13  23
ATOM     17  C   UNL     1       5.207   5.972  15.333  0.00  0.00    +0.000 C 
ATOM     18  C   UNL     1       5.903   5.601  16.616  0.00  0.00    +0.000 A 
ATOM     19  C   UNL     1       7.052   4.781  16.470  0.00  0.00    +0.000 A 
ATOM     20  C   UNL     1       7.757   4.387  17.590  0.00  0.00    +0.000 A 
ATOM     21  N   UNL     1       7.404   4.716  18.834  0.00  0.00    +0.000 NA
ATOM     22  C   UNL     1       6.302   5.507  18.965  0.00  0.00    +0.000 A 
ATOM     23  C   UNL     1       5.519   5.997  17.913  0.00  0.00    +0.000 A 
ENDBRANCH  13  23
ENDBRANCH   1  14
TORSDOF 2
ENDMDL
MODEL 8
REMARK VINA RESULT:      -6.6      2.471      7.776
REMARK  Name = 
REMARK  4 active torsions:
REMARK  status: ('A' for Active; 'I' for Inactive)
REMARK    1  A    between atoms: C_1  and  C_2
REMARK    2  A    between atoms: C_7  and  N_8
REMARK    3  A    between atoms: C_9  and  C_11
REMARK    4  A    between atoms: C_17  and  C_18
REMARK                            x       y       z     vdW  Elec       q    Type
REMARK                         _______ _______ _______ _____ _____    ______ ____
ROOT
ATOM      1  C   UNL     1       1.359   9.285  18.620  0.00  0.00    +0.000 C 
ATOM      2  C   UNL     1       1.147   9.170  20.116  0.00  0.00    +0.000 C 
ATOM      3  S   UNL     1       0.365  10.682  20.679  0.00  0.00    +0.000 S 
ATOM      4  C   UNL     1      -0.944  10.894  19.533  0.00  0.00    +0.000 A 
ATOM      5  N   UNL     1      -1.806  11.792  19.875  0.00  0.00    +0.000 NA
ATOM      6  C   UNL     1      -2.842  12.035  19.026  0.00  0.00    +0.000 A 
ATOM      7  C   UNL     1      -3.057  11.382  17.881  0.00  0.00    +0.000 A 
ATOM      8  C   UNL     1      -4.208  11.645  16.968  0.00  0.00    +0.000 C 
ATOM      9  C   UNL     1      -2.083  10.325  17.517  0.00  0.00    +0.000 A 
ATOM     10  O   UNL     1      -2.280   9.639  16.512  0.00  0.00    +0.000 OA
ATOM     11  N   UNL     1      -0.987  10.171  18.354  0.00  0.00    +0.000 N 
ATOM     12  C   UNL     1      -0.021   9.128  17.971  0.00  0.00    +0.000 C 
ENDROOT
BRANCH   1  14
ATOM     13  N   UNL     1       2.360   7.056  18.981  0.00  0.00    +0.000 N 
ATOM     14  C   UNL     1       2.347   8.215  18.184  0.00  0.00    +0.000 C 
ATOM     15  O   UNL     1       2.997   8.372  17.153  0.00  0.00    +0.000 OA
ATOM     16  H   UNL     1       1.664   6.967  19.715  0.00  0.00    +0.000 HD
BRANCH  13  23
ATOM     17  C   UNL     1       1.487   4.421  17.645  0.00  0.00    +0.000 C 
ATOM     18  C   UNL     1       2.857   4.740  18.185  0.00  0.00    +0.000 A 
ATOM     19  C   UNL     1       3.822   3.710  18.037  0.00  0.00    +0.000 A 
ATOM     20  C   UNL     1       5.108   3.907  18.503  0.00  0.00    +0.000 A 
ATOM     21  N   UNL     1       5.503   5.023  19.118  0.00  0.00    +0.000 NA
ATOM     22  C   UNL     1       4.571   6.008  19.251  0.00  0.00    +0.000 A 
ATOM     23  C   UNL     1       3.247   5.945  18.800  0.00  0.00    +0.000 A 
ENDBRANCH  13  23
ENDBRANCH   1  14
TORSDOF 2
ENDMDL
MODEL 9
REMARK VINA RESULT:      -6.6      2.149      2.650
REMARK  Name = 
REMARK  4 active torsions:
REMARK  status: ('A' for Active; 'I' for Inactive)
REMARK    1  A    between atoms: C_1  and  C_2
REMARK    2  A    between atoms: C_7  and  N_8
REMARK    3  A    between atoms: C_9  and  C_11
REMARK    4  A    between atoms: C_17  and  C_18
REMARK                            x       y       z     vdW  Elec       q    Type
REMARK                         _______ _______ _______ _____ _____    ______ ____
ROOT
ATOM      1  C   UNL     1       2.466   7.410  19.435  0.00  0.00    +0.000 C 
ATOM      2  C   UNL     1       2.588   7.927  18.015  0.00  0.00    +0.000 C 
ATOM      3  S   UNL     1       4.029   7.162  17.272  0.00  0.00    +0.000 S 
ATOM      4  C   UNL     1       3.819   5.467  17.668  0.00  0.00    +0.000 A 
ATOM      5  N   UNL     1       4.611   4.673  17.031  0.00  0.00    +0.000 NA
ATOM      6  C   UNL     1       4.528   3.341  17.299  0.00  0.00    +0.000 A 
ATOM      7  C   UNL     1       3.655   2.788  18.145  0.00  0.00    +0.000 A 
ATOM      8  C   UNL     1       3.561   1.323  18.416  0.00  0.00    +0.000 C 
ATOM      9  C   UNL     1       2.722   3.706  18.842  0.00  0.00    +0.000 A 
ATOM     10  O   UNL     1       1.845   3.239  19.572  0.00  0.00    +0.000 OA
ATOM     11  N   UNL     1       2.899   5.064  18.620  0.00  0.00    +0.000 N 
ATOM     12  C   UNL     1       1.975   5.963  19.331  0.00  0.00    +0.000 C 
ENDROOT
BRANCH   1  14
ATOM     13  N   UNL     1       1.170   9.510  19.550  0.00  0.00    +0.000 N 
ATOM     14  C   UNL     1       1.510   8.311  20.201  0.00  0.00    +0.000 C 
ATOM     15  O   UNL     1       1.035   7.925  21.267  0.00  0.00    +0.000 OA
ATOM     16  H   UNL     1       1.496   9.652  18.599  0.00  0.00    +0.000 HD
BRANCH  13  23
ATOM     17  C   UNL     1      -1.563  10.270  18.351  0.00  0.00    +0.000 C 
ATOM     18  C   UNL     1      -0.916  10.886  19.564  0.00  0.00    +0.000 A 
ATOM     19  C   UNL     1      -1.669  11.905  20.203  0.00  0.00    +0.000 A 
ATOM     20  C   UNL     1      -1.158  12.531  21.323  0.00  0.00    +0.000 A 
ATOM     21  N   UNL     1       0.038  12.248  21.842  0.00  0.00    +0.000 NA
ATOM     22  C   UNL     1       0.752  11.266  21.224  0.00  0.00    +0.000 A 
ATOM     23  C   UNL     1       0.338  10.537  20.103  0.00  0.00    +0.000 A 
ENDBRANCH  13  23
ENDBRANCH   1  14
TORSDOF 2
ENDMDL
