MODEL 1
REMARK VINA RESULT:      -7.8      0.000      0.000
REMARK  Name = 
REMARK  6 active torsions:
REMARK  status: ('A' for Active; 'I' for Inactive)
REMARK    1  A    between atoms: C_1  and  N_2
REMARK    2  A    between atoms: N_2  and  C_3
REMARK    3  A    between atoms: N_2  and  C_4
REMARK    4  A    between atoms: C_4  and  C_5
REMARK    5  A    between atoms: C_5  and  N_6
REMARK    6  A    between atoms: C_18  and  N_19
REMARK                            x       y       z     vdW  Elec       q    Type
REMARK                         _______ _______ _______ _____ _____    ______ ____
ROOT
ATOM      1  N   UNL     1       4.008   4.516  16.980  0.00  0.00    +0.000 N 
ATOM      2  C   UNL     1       3.920   3.416  17.825  0.00  0.00    +0.000 C 
ATOM      3  O   UNL     1       4.466   2.337  17.612  0.00  0.00    +0.000 OA
ATOM      4  C   UNL     1       3.173   3.606  19.087  0.00  0.00    +0.000 A 
ATOM      5  C   UNL     1       2.962   2.501  19.922  0.00  0.00    +0.000 A 
ATOM      6  C   UNL     1       2.243   2.650  21.104  0.00  0.00    +0.000 A 
ATOM      7  C   UNL     1       1.735   3.900  21.445  0.00  0.00    +0.000 A 
ATOM      8  C   UNL     1       1.943   5.017  20.615  0.00  0.00    +0.000 A 
ATOM      9  C   UNL     1       1.436   6.274  20.963  0.00  0.00    +0.000 A 
ATOM     10  C   UNL     1       1.622   7.396  20.143  0.00  0.00    +0.000 A 
ATOM     11  C   UNL     1       1.067   8.631  20.517  0.00  0.00    +0.000 A 
ATOM     12  C   UNL     1       1.213   9.764  19.715  0.00  0.00    +0.000 A 
ATOM     13  C   UNL     1       1.943   9.695  18.536  0.00  0.00    +0.000 A 
ATOM     14  C   UNL     1       2.448   8.454  18.140  0.00  0.00    +0.000 A 
ATOM     15  C   UNL     1       2.351   7.282  18.938  0.00  0.00    +0.000 A 
ATOM     16  C   UNL     1       2.908   6.006  18.610  0.00  0.00    +0.000 A 
ATOM     17  C   UNL     1       2.681   4.875  19.418  0.00  0.00    +0.000 A 
ATOM     18  C   UNL     1       3.808   5.818  17.432  0.00  0.00    +0.000 C 
ATOM     19  O   UNL     1       4.407   6.777  16.948  0.00  0.00    +0.000 OA
ENDROOT
BRANCH  13  20
ATOM     20  N   UNL     1       1.971  10.780  17.651  0.00  0.00    +0.000 N 
ATOM     21  H   UNL     1       2.819  11.336  17.710  0.00  0.00    +0.000 HD
ATOM     22  H   UNL     1       1.751  10.522  16.693  0.00  0.00    +0.000 HD
ENDBRANCH  13  20
BRANCH   1  23
ATOM     23  C   UNL     1       4.772   4.352  15.741  0.00  0.00    +0.000 C 
BRANCH  23  24
ATOM     24  C   UNL     1       6.118   3.609  15.908  0.00  0.00    +0.000 C 
BRANCH  24  26
ATOM     25  C   UNL     1       7.164   5.761  15.431  0.00  0.00    +0.000 C 
ATOM     26  N   UNL     1       7.300   4.474  16.115  0.00  0.00    +0.000 NA
ATOM     27  C   UNL     1       7.494   4.699  17.552  0.00  0.00    +0.000 C 
ENDBRANCH  24  26
ENDBRANCH  23  24
ENDBRANCH   1  23
TORSDOF 4
ENDMDL
MODEL 2
REMARK VINA RESULT:      -7.6      1.132      1.379
REMARK  Name = 
REMARK  6 active torsions:
REMARK  status: ('A' for Active; 'I' for Inactive)
REMARK    1  A    between atoms: C_1  and  N_2
REMARK    2  A    between atoms: N_2  and  C_3
REMARK    3  A    between atoms: N_2  and  C_4
REMARK    4  A    between atoms: C_4  and  C_5
REMARK    5  A    between atoms: C_5  and  N_6
REMARK    6  A    between atoms: C_18  and  N_19
REMARK                            x       y       z     vdW  Elec       q    Type
REMARK                         _______ _______ _______ _____ _____    ______ ____
ROOT
ATOM      1  N   UNL     1       4.490   5.375  16.947  0.00  0.00    +0.000 N 
ATOM      2  C   UNL     1       4.547   4.205  17.693  0.00  0.00    +0.000 C 
ATOM      3  O   UNL     1       5.276   3.253  17.430  0.00  0.00    +0.000 OA
ATOM      4  C   UNL     1       3.719   4.157  18.917  0.00  0.00    +0.000 A 
ATOM      5  C   UNL     1       3.655   2.963  19.647  0.00  0.00    +0.000 A 
ATOM      6  C   UNL     1       2.865   2.887  20.789  0.00  0.00    +0.000 A 
ATOM      7  C   UNL     1       2.138   4.001  21.196  0.00  0.00    +0.000 A 
ATOM      8  C   UNL     1       2.196   5.207  20.473  0.00  0.00    +0.000 A 
ATOM      9  C   UNL     1       1.469   6.328  20.887  0.00  0.00    +0.000 A 
ATOM     10  C   UNL     1       1.503   7.535  20.174  0.00  0.00    +0.000 A 
ATOM     11  C   UNL     1       0.731   8.624  20.609  0.00  0.00    +0.000 A 
ATOM     12  C   UNL     1       0.724   9.832  19.911  0.00  0.00    +0.000 A 
ATOM     13  C   UNL     1       1.511   9.989  18.778  0.00  0.00    +0.000 A 
ATOM     14  C   UNL     1       2.236   8.887  18.316  0.00  0.00    +0.000 A 
ATOM     15  C   UNL     1       2.299   7.649  19.011  0.00  0.00    +0.000 A 
ATOM     16  C   UNL     1       3.077   6.515  18.618  0.00  0.00    +0.000 A 
ATOM     17  C   UNL     1       3.004   5.295  19.317  0.00  0.00    +0.000 A 
ATOM     18  C   UNL     1       4.052   6.582  17.487  0.00  0.00    +0.000 C 
ATOM     19  O   UNL     1       4.505   7.665  17.120  0.00  0.00    +0.000 OA
ENDROOT
BRANCH  13  20
ATOM     20  N   UNL     1       1.400  11.138  17.986  0.00  0.00    +0.000 N 
ATOM     21  H   UNL     1       0.937  10.979  17.096  0.00  0.00    +0.000 HD
ATOM     22  H   UNL     1       1.007  11.932  18.483  0.00  0.00    +0.000 HD
ENDBRANCH  13  20
BRANCH   1  23
ATOM     23  C   UNL     1       5.330   5.449  15.748  0.00  0.00    +0.000 C 
BRANCH  23  24
ATOM     24  C   UNL     1       5.074   4.329  14.713  0.00  0.00    +0.000 C 
BRANCH  24  26
ATOM     25  C   UNL     1       5.963   3.471  12.609  0.00  0.00    +0.000 C 
ATOM     26  N   UNL     1       6.271   3.846  13.990  0.00  0.00    +0.000 NA
ATOM     27  C   UNL     1       7.300   4.893  13.998  0.00  0.00    +0.000 C 
ENDBRANCH  24  26
ENDBRANCH  23  24
ENDBRANCH   1  23
TORSDOF 4
ENDMDL
MODEL 3
REMARK VINA RESULT:      -7.1      4.298      7.404
REMARK  Name = 
REMARK  6 active torsions:
REMARK  status: ('A' for Active; 'I' for Inactive)
REMARK    1  A    between atoms: C_1  and  N_2
REMARK    2  A    between atoms: N_2  and  C_3
REMARK    3  A    between atoms: N_2  and  C_4
REMARK    4  A    between atoms: C_4  and  C_5
REMARK    5  A    between atoms: C_5  and  N_6
REMARK    6  A    between atoms: C_18  and  N_19
REMARK                            x       y       z     vdW  Elec       q    Type
REMARK                         _______ _______ _______ _____ _____    ______ ____
ROOT
ATOM      1  N   UNL     1       0.676   9.448  20.179  0.00  0.00    +0.000 N 
ATOM      2  C   UNL     1       0.562  10.134  21.382  0.00  0.00    +0.000 C 
ATOM      3  O   UNL     1       1.391  10.084  22.287  0.00  0.00    +0.000 OA
ATOM      4  C   UNL     1      -0.606  11.029  21.528  0.00  0.00    +0.000 A 
ATOM      5  C   UNL     1      -0.827  11.659  22.760  0.00  0.00    +0.000 A 
ATOM      6  C   UNL     1      -1.931  12.488  22.929  0.00  0.00    +0.000 A 
ATOM      7  C   UNL     1      -2.813  12.681  21.869  0.00  0.00    +0.000 A 
ATOM      8  C   UNL     1      -2.600  12.055  20.628  0.00  0.00    +0.000 A 
ATOM      9  C   UNL     1      -3.485  12.254  19.562  0.00  0.00    +0.000 A 
ATOM     10  C   UNL     1      -3.297  11.630  18.321  0.00  0.00    +0.000 A 
ATOM     11  C   UNL     1      -4.228  11.834  17.290  0.00  0.00    +0.000 A 
ATOM     12  C   UNL     1      -4.085  11.212  16.049  0.00  0.00    +0.000 A 
ATOM     13  C   UNL     1      -2.991  10.394  15.801  0.00  0.00    +0.000 A 
ATOM     14  C   UNL     1      -2.095  10.149  16.845  0.00  0.00    +0.000 A 
ATOM     15  C   UNL     1      -2.183  10.785  18.113  0.00  0.00    +0.000 A 
ATOM     16  C   UNL     1      -1.255  10.621  19.190  0.00  0.00    +0.000 A 
ATOM     17  C   UNL     1      -1.475  11.220  20.445  0.00  0.00    +0.000 A 
ATOM     18  C   UNL     1       0.021   9.862  19.022  0.00  0.00    +0.000 C 
ATOM     19  O   UNL     1       0.503   9.695  17.903  0.00  0.00    +0.000 OA
ENDROOT
BRANCH  13  20
ATOM     20  N   UNL     1      -2.913   9.647  14.619  0.00  0.00    +0.000 N 
ATOM     21  H   UNL     1      -2.554  10.170  13.826  0.00  0.00    +0.000 HD
ATOM     22  H   UNL     1      -2.435   8.758  14.737  0.00  0.00    +0.000 HD
ENDBRANCH  13  20
BRANCH   1  23
ATOM     23  C   UNL     1       1.845   8.582  20.008  0.00  0.00    +0.000 C 
BRANCH  23  24
ATOM     24  C   UNL     1       1.666   7.144  20.548  0.00  0.00    +0.000 C 
BRANCH  24  26
ATOM     25  C   UNL     1       1.780   4.790  19.917  0.00  0.00    +0.000 C 
ATOM     26  N   UNL     1       2.433   6.097  19.837  0.00  0.00    +0.000 NA
ATOM     27  C   UNL     1       2.594   6.483  18.430  0.00  0.00    +0.000 C 
ENDBRANCH  24  26
ENDBRANCH  23  24
ENDBRANCH   1  23
TORSDOF 4
ENDMDL
MODEL 4
REMARK VINA RESULT:      -7.1      3.312      7.433
REMARK  Name = 
REMARK  6 active torsions:
REMARK  status: ('A' for Active; 'I' for Inactive)
REMARK    1  A    between atoms: C_1  and  N_2
REMARK    2  A    between atoms: N_2  and  C_3
REMARK    3  A    between atoms: N_2  and  C_4
REMARK    4  A    between atoms: C_4  and  C_5
REMARK    5  A    between atoms: C_5  and  N_6
REMARK    6  A    between atoms: C_18  and  N_19
REMARK                            x       y       z     vdW  Elec       q    Type
REMARK                         _______ _______ _______ _____ _____    ______ ____
ROOT
ATOM      1  N   UNL     1       1.498  11.783  18.945  0.00  0.00    +0.000 N 
ATOM      2  C   UNL     1       0.641  12.175  19.966  0.00  0.00    +0.000 C 
ATOM      3  O   UNL     1       0.151  13.297  20.063  0.00  0.00    +0.000 OA
ATOM      4  C   UNL     1       0.254  11.136  20.944  0.00  0.00    +0.000 A 
ATOM      5  C   UNL     1      -0.519  11.504  22.053  0.00  0.00    +0.000 A 
ATOM      6  C   UNL     1      -0.876  10.548  22.999  0.00  0.00    +0.000 A 
ATOM      7  C   UNL     1      -0.456   9.231  22.837  0.00  0.00    +0.000 A 
ATOM      8  C   UNL     1       0.319   8.850  21.726  0.00  0.00    +0.000 A 
ATOM      9  C   UNL     1       0.735   7.524  21.561  0.00  0.00    +0.000 A 
ATOM     10  C   UNL     1       1.518   7.127  20.468  0.00  0.00    +0.000 A 
ATOM     11  C   UNL     1       1.939   5.792  20.361  0.00  0.00    +0.000 A 
ATOM     12  C   UNL     1       2.738   5.366  19.298  0.00  0.00    +0.000 A 
ATOM     13  C   UNL     1       3.108   6.260  18.302  0.00  0.00    +0.000 A 
ATOM     14  C   UNL     1       2.733   7.599  18.439  0.00  0.00    +0.000 A 
ATOM     15  C   UNL     1       1.895   8.071  19.485  0.00  0.00    +0.000 A 
ATOM     16  C   UNL     1       1.428   9.415  19.633  0.00  0.00    +0.000 A 
ATOM     17  C   UNL     1       0.677   9.813  20.755  0.00  0.00    +0.000 A 
ATOM     18  C   UNL     1       1.657  10.449  18.578  0.00  0.00    +0.000 C 
ATOM     19  O   UNL     1       1.890  10.113  17.418  0.00  0.00    +0.000 OA
ENDROOT
BRANCH  13  20
ATOM     20  N   UNL     1       4.028   5.886  17.315  0.00  0.00    +0.000 N 
ATOM     21  H   UNL     1       4.916   6.374  17.376  0.00  0.00    +0.000 HD
ATOM     22  H   UNL     1       4.150   4.880  17.241  0.00  0.00    +0.000 HD
ENDBRANCH  13  20
BRANCH   1  23
ATOM     23  C   UNL     1       1.864  12.794  17.949  0.00  0.00    +0.000 C 
BRANCH  23  24
ATOM     24  C   UNL     1       3.028  13.720  18.371  0.00  0.00    +0.000 C 
BRANCH  24  26
ATOM     25  C   UNL     1       2.755  15.763  19.677  0.00  0.00    +0.000 C 
ATOM     26  N   UNL     1       2.731  15.170  18.340  0.00  0.00    +0.000 NA
ATOM     27  C   UNL     1       3.709  15.849  17.482  0.00  0.00    +0.000 C 
ENDBRANCH  24  26
ENDBRANCH  23  24
ENDBRANCH   1  23
TORSDOF 4
ENDMDL
MODEL 5
REMARK VINA RESULT:      -6.9      7.770     10.789
REMARK  Name = 
REMARK  6 active torsions:
REMARK  status: ('A' for Active; 'I' for Inactive)
REMARK    1  A    between atoms: C_1  and  N_2
REMARK    2  A    between atoms: N_2  and  C_3
REMARK    3  A    between atoms: N_2  and  C_4
REMARK    4  A    between atoms: C_4  and  C_5
REMARK    5  A    between atoms: C_5  and  N_6
REMARK    6  A    between atoms: C_18  and  N_19
REMARK                            x       y       z     vdW  Elec       q    Type
REMARK                         _______ _______ _______ _____ _____    ______ ____
ROOT
ATOM      1  N   UNL     1      -4.703  11.765  18.917  0.00  0.00    +0.000 N 
ATOM      2  C   UNL     1      -3.702  11.179  18.152  0.00  0.00    +0.000 C 
ATOM      3  O   UNL     1      -3.881  10.689  17.040  0.00  0.00    +0.000 OA
ATOM      4  C   UNL     1      -2.331  11.224  18.704  0.00  0.00    +0.000 A 
ATOM      5  C   UNL     1      -1.305  10.553  18.026  0.00  0.00    +0.000 A 
ATOM      6  C   UNL     1      -0.012  10.563  18.538  0.00  0.00    +0.000 A 
ATOM      7  C   UNL     1       0.251  11.237  19.726  0.00  0.00    +0.000 A 
ATOM      8  C   UNL     1      -0.771  11.916  20.415  0.00  0.00    +0.000 A 
ATOM      9  C   UNL     1      -0.504  12.598  21.607  0.00  0.00    +0.000 A 
ATOM     10  C   UNL     1      -1.511  13.270  22.314  0.00  0.00    +0.000 A 
ATOM     11  C   UNL     1      -1.202  13.914  23.523  0.00  0.00    +0.000 A 
ATOM     12  C   UNL     1      -2.183  14.574  24.265  0.00  0.00    +0.000 A 
ATOM     13  C   UNL     1      -3.490  14.629  23.799  0.00  0.00    +0.000 A 
ATOM     14  C   UNL     1      -3.806  13.942  22.624  0.00  0.00    +0.000 A 
ATOM     15  C   UNL     1      -2.835  13.285  21.820  0.00  0.00    +0.000 A 
ATOM     16  C   UNL     1      -3.095  12.626  20.577  0.00  0.00    +0.000 A 
ATOM     17  C   UNL     1      -2.085  11.920  19.896  0.00  0.00    +0.000 A 
ATOM     18  C   UNL     1      -4.428  12.705  19.907  0.00  0.00    +0.000 C 
ATOM     19  O   UNL     1      -5.204  13.622  20.171  0.00  0.00    +0.000 OA
ENDROOT
BRANCH  13  20
ATOM     20  N   UNL     1      -4.511  15.154  24.601  0.00  0.00    +0.000 N 
ATOM     21  H   UNL     1      -4.594  14.703  25.507  0.00  0.00    +0.000 HD
ATOM     22  H   UNL     1      -4.478  16.167  24.681  0.00  0.00    +0.000 HD
ENDBRANCH  13  20
BRANCH   1  23
ATOM     23  C   UNL     1      -6.061  11.757  18.367  0.00  0.00    +0.000 C 
BRANCH  23  24
ATOM     24  C   UNL     1      -6.898  10.511  18.741  0.00  0.00    +0.000 C 
BRANCH  24  26
ATOM     25  C   UNL     1      -7.733  11.139  20.946  0.00  0.00    +0.000 C 
ATOM     26  N   UNL     1      -6.935  10.178  20.183  0.00  0.00    +0.000 NA
ATOM     27  C   UNL     1      -7.487   8.830  20.358  0.00  0.00    +0.000 C 
ENDBRANCH  24  26
ENDBRANCH  23  24
ENDBRANCH   1  23
TORSDOF 4
ENDMDL
MODEL 6
REMARK VINA RESULT:      -6.9      2.516      6.639
REMARK  Name = 
REMARK  6 active torsions:
REMARK  status: ('A' for Active; 'I' for Inactive)
REMARK    1  A    between atoms: C_1  and  N_2
REMARK    2  A    between atoms: N_2  and  C_3
REMARK    3  A    between atoms: N_2  and  C_4
REMARK    4  A    between atoms: C_4  and  C_5
REMARK    5  A    between atoms: C_5  and  N_6
REMARK    6  A    between atoms: C_18  and  N_19
REMARK                            x       y       z     vdW  Elec       q    Type
REMARK                         _______ _______ _______ _____ _____    ______ ____
ROOT
ATOM      1  N   UNL     1       1.881   8.131  18.983  0.00  0.00    +0.000 N 
ATOM      2  C   UNL     1       2.750   8.426  17.940  0.00  0.00    +0.000 C 
ATOM      3  O   UNL     1       2.895   9.546  17.457  0.00  0.00    +0.000 OA
ATOM      4  C   UNL     1       3.594   7.317  17.445  0.00  0.00    +0.000 A 
ATOM      5  C   UNL     1       4.408   7.532  16.325  0.00  0.00    +0.000 A 
ATOM      6  C   UNL     1       5.193   6.498  15.827  0.00  0.00    +0.000 A 
ATOM      7  C   UNL     1       5.161   5.252  16.447  0.00  0.00    +0.000 A 
ATOM      8  C   UNL     1       4.349   5.025  17.573  0.00  0.00    +0.000 A 
ATOM      9  C   UNL     1       4.322   3.773  18.198  0.00  0.00    +0.000 A 
ATOM     10  C   UNL     1       3.511   3.524  19.315  0.00  0.00    +0.000 A 
ATOM     11  C   UNL     1       3.492   2.242  19.889  0.00  0.00    +0.000 A 
ATOM     12  C   UNL     1       2.681   1.952  20.987  0.00  0.00    +0.000 A 
ATOM     13  C   UNL     1       1.892   2.944  21.554  0.00  0.00    +0.000 A 
ATOM     14  C   UNL     1       1.872   4.203  20.947  0.00  0.00    +0.000 A 
ATOM     15  C   UNL     1       2.704   4.553  19.850  0.00  0.00    +0.000 A 
ATOM     16  C   UNL     1       2.770   5.844  19.237  0.00  0.00    +0.000 A 
ATOM     17  C   UNL     1       3.556   6.074  18.091  0.00  0.00    +0.000 A 
ATOM     18  C   UNL     1       2.062   7.027  19.813  0.00  0.00    +0.000 C 
ATOM     19  O   UNL     1       1.737   7.041  20.999  0.00  0.00    +0.000 OA
ENDROOT
BRANCH  13  20
ATOM     20  N   UNL     1       0.965   2.632  22.555  0.00  0.00    +0.000 N 
ATOM     21  H   UNL     1       0.946   3.301  23.320  0.00  0.00    +0.000 HD
ATOM     22  H   UNL     1       0.034   2.440  22.195  0.00  0.00    +0.000 HD
ENDBRANCH  13  20
BRANCH   1  23
ATOM     23  C   UNL     1       1.062   9.228  19.505  0.00  0.00    +0.000 C 
BRANCH  23  24
ATOM     24  C   UNL     1       0.016   9.779  18.509  0.00  0.00    +0.000 C 
BRANCH  24  26
ATOM     25  C   UNL     1      -1.471  11.469  19.453  0.00  0.00    +0.000 C 
ATOM     26  N   UNL     1      -0.282  11.224  18.635  0.00  0.00    +0.000 NA
ATOM     27  C   UNL     1       0.872  11.909  19.227  0.00  0.00    +0.000 C 
ENDBRANCH  24  26
ENDBRANCH  23  24
ENDBRANCH   1  23
TORSDOF 4
ENDMDL
MODEL 7
REMARK VINA RESULT:      -6.8      1.853      5.835
REMARK  Name = 
REMARK  6 active torsions:
REMARK  status: ('A' for Active; 'I' for Inactive)
REMARK    1  A    between atoms: C_1  and  N_2
REMARK    2  A    between atoms: N_2  and  C_3
REMARK    3  A    between atoms: N_2  and  C_4
REMARK    4  A    between atoms: C_4  and  C_5
REMARK    5  A    between atoms: C_5  and  N_6
REMARK    6  A    between atoms: C_18  and  N_19
REMARK                            x       y       z     vdW  Elec       q    Type
REMARK                         _______ _______ _______ _____ _____    ______ ____
ROOT
ATOM      1  N   UNL     1       2.437   7.350  19.320  0.00  0.00    +0.000 N 
ATOM      2  C   UNL     1       1.650   6.530  20.118  0.00  0.00    +0.000 C 
ATOM      3  O   UNL     1       0.784   6.939  20.887  0.00  0.00    +0.000 OA
ATOM      4  C   UNL     1       1.837   5.072  19.960  0.00  0.00    +0.000 A 
ATOM      5  C   UNL     1       1.147   4.203  20.816  0.00  0.00    +0.000 A 
ATOM      6  C   UNL     1       1.325   2.828  20.701  0.00  0.00    +0.000 A 
ATOM      7  C   UNL     1       2.192   2.326  19.735  0.00  0.00    +0.000 A 
ATOM      8  C   UNL     1       2.887   3.189  18.869  0.00  0.00    +0.000 A 
ATOM      9  C   UNL     1       3.755   2.682  17.894  0.00  0.00    +0.000 A 
ATOM     10  C   UNL     1       4.466   3.525  17.030  0.00  0.00    +0.000 A 
ATOM     11  C   UNL     1       5.350   2.972  16.089  0.00  0.00    +0.000 A 
ATOM     12  C   UNL     1       6.091   3.783  15.227  0.00  0.00    +0.000 A 
ATOM     13  C   UNL     1       5.943   5.163  15.266  0.00  0.00    +0.000 A 
ATOM     14  C   UNL     1       5.104   5.713  16.240  0.00  0.00    +0.000 A 
ATOM     15  C   UNL     1       4.307   4.927  17.115  0.00  0.00    +0.000 A 
ATOM     16  C   UNL     1       3.384   5.439  18.081  0.00  0.00    +0.000 A 
ATOM     17  C   UNL     1       2.705   4.586  18.973  0.00  0.00    +0.000 A 
ATOM     18  C   UNL     1       3.045   6.893  18.153  0.00  0.00    +0.000 C 
ATOM     19  O   UNL     1       3.222   7.622  17.180  0.00  0.00    +0.000 OA
ENDROOT
BRANCH  13  20
ATOM     20  N   UNL     1       6.786   5.992  14.517  0.00  0.00    +0.000 N 
ATOM     21  H   UNL     1       7.205   5.533  13.713  0.00  0.00    +0.000 HD
ATOM     22  H   UNL     1       6.359   6.879  14.268  0.00  0.00    +0.000 HD
ENDBRANCH  13  20
BRANCH   1  23
ATOM     23  C   UNL     1       2.240   8.797  19.443  0.00  0.00    +0.000 C 
BRANCH  23  24
ATOM     24  C   UNL     1       1.060   9.358  18.615  0.00  0.00    +0.000 C 
BRANCH  24  26
ATOM     25  C   UNL     1      -1.111  10.403  19.002  0.00  0.00    +0.000 C 
ATOM     26  N   UNL     1       0.332  10.489  19.232  0.00  0.00    +0.000 NA
ATOM     27  C   UNL     1       0.600  10.512  20.675  0.00  0.00    +0.000 C 
ENDBRANCH  24  26
ENDBRANCH  23  24
ENDBRANCH   1  23
TORSDOF 4
ENDMDL
MODEL 8
REMARK VINA RESULT:      -6.8      9.808     11.334
REMARK  Name = 
REMARK  6 active torsions:
REMARK  status: ('A' for Active; 'I' for Inactive)
REMARK    1  A    between atoms: C_1  and  N_2
REMARK    2  A    between atoms: N_2  and  C_3
REMARK    3  A    between atoms: N_2  and  C_4
REMARK    4  A    between atoms: C_4  and  C_5
REMARK    5  A    between atoms: C_5  and  N_6
REMARK    6  A    between atoms: C_18  and  N_19
REMARK                            x       y       z     vdW  Elec       q    Type
REMARK                         _______ _______ _______ _____ _____    ______ ____
ROOT
ATOM      1  N   UNL     1       6.730  15.700  19.858  0.00  0.00    +0.000 N 
ATOM      2  C   UNL     1       6.330  15.336  21.138  0.00  0.00    +0.000 C 
ATOM      3  O   UNL     1       5.330  15.772  21.700  0.00  0.00    +0.000 OA
ATOM      4  C   UNL     1       7.140  14.301  21.818  0.00  0.00    +0.000 A 
ATOM      5  C   UNL     1       6.846  13.977  23.149  0.00  0.00    +0.000 A 
ATOM      6  C   UNL     1       7.608  13.023  23.816  0.00  0.00    +0.000 A 
ATOM      7  C   UNL     1       8.663  12.401  23.154  0.00  0.00    +0.000 A 
ATOM      8  C   UNL     1       8.965  12.718  21.817  0.00  0.00    +0.000 A 
ATOM      9  C   UNL     1      10.023  12.087  21.151  0.00  0.00    +0.000 A 
ATOM     10  C   UNL     1      10.348  12.397  19.823  0.00  0.00    +0.000 A 
ATOM     11  C   UNL     1      11.438  11.762  19.207  0.00  0.00    +0.000 A 
ATOM     12  C   UNL     1      11.804  12.062  17.893  0.00  0.00    +0.000 A 
ATOM     13  C   UNL     1      11.070  12.983  17.157  0.00  0.00    +0.000 A 
ATOM     14  C   UNL     1      10.020  13.653  17.791  0.00  0.00    +0.000 A 
ATOM     15  C   UNL     1       9.591  13.357  19.113  0.00  0.00    +0.000 A 
ATOM     16  C   UNL     1       8.483  13.966  19.782  0.00  0.00    +0.000 A 
ATOM     17  C   UNL     1       8.190  13.678  21.129  0.00  0.00    +0.000 A 
ATOM     18  C   UNL     1       7.543  14.886  19.073  0.00  0.00    +0.000 C 
ATOM     19  O   UNL     1       7.444  14.851  17.848  0.00  0.00    +0.000 OA
ENDROOT
BRANCH  13  20
ATOM     20  N   UNL     1      11.513  13.403  15.898  0.00  0.00    +0.000 N 
ATOM     21  H   UNL     1      10.997  12.995  15.124  0.00  0.00    +0.000 HD
ATOM     22  H   UNL     1      11.586  14.413  15.815  0.00  0.00    +0.000 HD
ENDBRANCH  13  20
BRANCH   1  23
ATOM     23  C   UNL     1       5.918  16.700  19.160  0.00  0.00    +0.000 C 
BRANCH  23  24
ATOM     24  C   UNL     1       4.592  16.159  18.578  0.00  0.00    +0.000 C 
BRANCH  24  26
ATOM     25  C   UNL     1       2.827  16.990  17.111  0.00  0.00    +0.000 C 
ATOM     26  N   UNL     1       3.524  17.166  18.386  0.00  0.00    +0.000 NA
ATOM     27  C   UNL     1       2.562  17.072  19.490  0.00  0.00    +0.000 C 
ENDBRANCH  24  26
ENDBRANCH  23  24
ENDBRANCH   1  23
TORSDOF 4
ENDMDL
MODEL 9
REMARK VINA RESULT:      -6.8      2.166      5.895
REMARK  Name = 
REMARK  6 active torsions:
REMARK  status: ('A' for Active; 'I' for Inactive)
REMARK    1  A    between atoms: C_1  and  N_2
REMARK    2  A    between atoms: N_2  and  C_3
REMARK    3  A    between atoms: N_2  and  C_4
REMARK    4  A    between atoms: C_4  and  C_5
REMARK    5  A    between atoms: C_5  and  N_6
REMARK    6  A    between atoms: C_18  and  N_19
REMARK                            x       y       z     vdW  Elec       q    Type
REMARK                         _______ _______ _______ _____ _____    ______ ____
ROOT
ATOM      1  N   UNL     1       2.161   6.593  20.072  0.00  0.00    +0.000 N 
ATOM      2  C   UNL     1       1.239   5.558  20.166  0.00  0.00    +0.000 C 
ATOM      3  O   UNL     1       0.169   5.638  20.762  0.00  0.00    +0.000 OA
ATOM      4  C   UNL     1       1.559   4.315  19.431  0.00  0.00    +0.000 A 
ATOM      5  C   UNL     1       0.719   3.204  19.580  0.00  0.00    +0.000 A 
ATOM      6  C   UNL     1       1.012   2.017  18.918  0.00  0.00    +0.000 A 
ATOM      7  C   UNL     1       2.145   1.941  18.113  0.00  0.00    +0.000 A 
ATOM      8  C   UNL     1       2.995   3.051  17.955  0.00  0.00    +0.000 A 
ATOM      9  C   UNL     1       4.131   2.975  17.141  0.00  0.00    +0.000 A 
ATOM     10  C   UNL     1       4.997   4.066  16.979  0.00  0.00    +0.000 A 
ATOM     11  C   UNL     1       6.142   3.933  16.178  0.00  0.00    +0.000 A 
ATOM     12  C   UNL     1       7.038   4.991  16.013  0.00  0.00    +0.000 A 
ATOM     13  C   UNL     1       6.794   6.214  16.621  0.00  0.00    +0.000 A 
ATOM     14  C   UNL     1       5.682   6.327  17.462  0.00  0.00    +0.000 A 
ATOM     15  C   UNL     1       4.727   5.289  17.634  0.00  0.00    +0.000 A 
ATOM     16  C   UNL     1       3.540   5.377  18.427  0.00  0.00    +0.000 A 
ATOM     17  C   UNL     1       2.698   4.264  18.616  0.00  0.00    +0.000 A 
ATOM     18  C   UNL     1       3.098   6.665  19.044  0.00  0.00    +0.000 C 
ATOM     19  O   UNL     1       3.490   7.738  18.591  0.00  0.00    +0.000 OA
ENDROOT
BRANCH  13  20
ATOM     20  N   UNL     1       7.754   7.232  16.588  0.00  0.00    +0.000 N 
ATOM     21  H   UNL     1       8.702   6.897  16.442  0.00  0.00    +0.000 HD
ATOM     22  H   UNL     1       7.516   7.989  15.953  0.00  0.00    +0.000 HD
ENDBRANCH  13  20
BRANCH   1  23
ATOM     23  C   UNL     1       1.841   7.843  20.768  0.00  0.00    +0.000 C 
BRANCH  23  24
ATOM     24  C   UNL     1       1.015   8.850  19.934  0.00  0.00    +0.000 C 
BRANCH  24  26
ATOM     25  C   UNL     1      -0.319   8.957  21.974  0.00  0.00    +0.000 C 
ATOM     26  N   UNL     1      -0.041   9.574  20.676  0.00  0.00    +0.000 NA
ATOM     27  C   UNL     1       0.370  10.969  20.871  0.00  0.00    +0.000 C 
ENDBRANCH  24  26
ENDBRANCH  23  24
ENDBRANCH   1  23
TORSDOF 4
ENDMDL
