MODEL 1
REMARK VINA RESULT:      -6.9      0.000      0.000
REMARK  Name = 
REMARK  11 active torsions:
REMARK  status: ('A' for Active; 'I' for Inactive)
REMARK    1  A    between atoms: C_1  and  C_2
REMARK    2  A    between atoms: C_2  and  C_3
REMARK    3  A    between atoms: C_3  and  N_4
REMARK    4  A    between atoms: N_4  and  C_5
REMARK    5  A    between atoms: C_5  and  C_6
REMARK    6  A    between atoms: C_6  and  C_7
REMARK    7  A    between atoms: C_8  and  C_10
REMARK    8  A    between atoms: C_10  and  C_12
REMARK    9  A    between atoms: C_13  and  C_14
REMARK   10  A    between atoms: C_17  and  N_18
REMARK   11  A    between atoms: N_23  and  C_24
REMARK                            x       y       z     vdW  Elec       q    Type
REMARK                         _______ _______ _______ _____ _____    ______ ____
ROOT
ATOM      1  C   UNL     1      -0.465  11.134  19.795  0.00  0.00    +0.000 A 
ATOM      2  C   UNL     1      -0.454  11.115  21.210  0.00  0.00    +0.000 A 
ATOM      3  N   UNL     1       0.366  10.050  21.576  0.00  0.00    +0.000 N 
ATOM      4  C   UNL     1       0.659   9.555  22.910  0.00  0.00    +0.000 C 
ATOM      5  C   UNL     1       0.907   9.426  20.461  0.00  0.00    +0.000 A 
ATOM      6  C   UNL     1       1.803   8.348  20.363  0.00  0.00    +0.000 A 
ATOM      7  C   UNL     1       2.164   7.890  19.097  0.00  0.00    +0.000 A 
ATOM      8  C   UNL     1       1.642   8.488  17.959  0.00  0.00    +0.000 A 
ATOM      9  C   UNL     1       0.760   9.565  18.066  0.00  0.00    +0.000 A 
ATOM     10  C   UNL     1       0.387  10.065  19.339  0.00  0.00    +0.000 A 
ENDROOT
BRANCH   2  11
ATOM     11  C   UNL     1      -1.113  12.023  22.186  0.00  0.00    +0.000 A 
ATOM     12  C   UNL     1      -2.331  11.674  22.787  0.00  0.00    +0.000 A 
ATOM     13  C   UNL     1      -3.030  12.559  23.617  0.00  0.00    +0.000 A 
ATOM     14  C   UNL     1      -2.455  13.783  23.951  0.00  0.00    +0.000 A 
ATOM     15  C   UNL     1      -1.202  14.131  23.438  0.00  0.00    +0.000 A 
ATOM     16  C   UNL     1      -0.564  13.272  22.529  0.00  0.00    +0.000 A 
BRANCH  14  17
ATOM     17  N   UNL     1      -3.169  14.703  24.845  0.00  0.00    +0.000 N 
ATOM     18  O   UNL     1      -4.272  15.128  24.474  0.00  0.00    +0.000 OA
ATOM     19  O   UNL     1      -2.627  14.995  25.920  0.00  0.00    +0.000 OA
ENDBRANCH  14  17
ENDBRANCH   2  11
BRANCH   1  20
ATOM     20  C   UNL     1      -1.182  12.069  18.898  0.00  0.00    +0.000 C 
ATOM     21  O   UNL     1      -0.628  12.961  18.250  0.00  0.00    +0.000 OA
BRANCH  20  23
ATOM     22  N   UNL     1      -3.258  11.305  17.656  0.00  0.00    +0.000 N 
ATOM     23  C   UNL     1      -2.701  12.007  18.754  0.00  0.00    +0.000 C 
ATOM     24  O   UNL     1      -3.367  12.582  19.613  0.00  0.00    +0.000 OA
BRANCH  22  25
ATOM     25  C   UNL     1      -4.724  11.215  17.596  0.00  0.00    +0.000 C 
BRANCH  25  27
ATOM     26  C   UNL     1      -6.862  12.647  17.466  0.00  0.00    +0.000 C 
ATOM     27  C   UNL     1      -5.497  12.331  16.884  0.00  0.00    +0.000 C 
ENDBRANCH  25  27
ENDBRANCH  22  25
BRANCH  22  28
ATOM     28  C   UNL     1      -2.400  10.639  16.657  0.00  0.00    +0.000 C 
BRANCH  28  29
ATOM     29  C   UNL     1      -3.040   9.664  15.663  0.00  0.00    +0.000 C 
ATOM     30  C   UNL     1      -2.959  10.095  14.207  0.00  0.00    +0.000 C 
ENDBRANCH  28  29
ENDBRANCH  22  28
ENDBRANCH  20  23
ENDBRANCH   1  20
TORSDOF 8
ENDMDL
MODEL 2
REMARK VINA RESULT:      -6.6      1.324      2.290
REMARK  Name = 
REMARK  11 active torsions:
REMARK  status: ('A' for Active; 'I' for Inactive)
REMARK    1  A    between atoms: C_1  and  C_2
REMARK    2  A    between atoms: C_2  and  C_3
REMARK    3  A    between atoms: C_3  and  N_4
REMARK    4  A    between atoms: N_4  and  C_5
REMARK    5  A    between atoms: C_5  and  C_6
REMARK    6  A    between atoms: C_6  and  C_7
REMARK    7  A    between atoms: C_8  and  C_10
REMARK    8  A    between atoms: C_10  and  C_12
REMARK    9  A    between atoms: C_13  and  C_14
REMARK   10  A    between atoms: C_17  and  N_18
REMARK   11  A    between atoms: N_23  and  C_24
REMARK                            x       y       z     vdW  Elec       q    Type
REMARK                         _______ _______ _______ _____ _____    ______ ____
ROOT
ATOM      1  C   UNL     1      -0.282  11.086  19.721  0.00  0.00    +0.000 A 
ATOM      2  C   UNL     1      -0.329  11.036  21.135  0.00  0.00    +0.000 A 
ATOM      3  N   UNL     1       0.421   9.923  21.506  0.00  0.00    +0.000 N 
ATOM      4  C   UNL     1       0.635   9.384  22.839  0.00  0.00    +0.000 C 
ATOM      5  C   UNL     1       0.975   9.297  20.398  0.00  0.00    +0.000 A 
ATOM      6  C   UNL     1       1.819   8.177  20.310  0.00  0.00    +0.000 A 
ATOM      7  C   UNL     1       2.207   7.729  19.048  0.00  0.00    +0.000 A 
ATOM      8  C   UNL     1       1.762   8.379  17.906  0.00  0.00    +0.000 A 
ATOM      9  C   UNL     1       0.931   9.496  18.004  0.00  0.00    +0.000 A 
ATOM     10  C   UNL     1       0.533   9.987  19.274  0.00  0.00    +0.000 A 
ENDROOT
BRANCH   2  11
ATOM     11  C   UNL     1      -0.981  11.955  22.106  0.00  0.00    +0.000 A 
ATOM     12  C   UNL     1      -2.106  11.549  22.838  0.00  0.00    +0.000 A 
ATOM     13  C   UNL     1      -2.808  12.431  23.669  0.00  0.00    +0.000 A 
ATOM     14  C   UNL     1      -2.318  13.719  23.868  0.00  0.00    +0.000 A 
ATOM     15  C   UNL     1      -1.151  14.133  23.221  0.00  0.00    +0.000 A 
ATOM     16  C   UNL     1      -0.519  13.267  22.316  0.00  0.00    +0.000 A 
BRANCH  14  17
ATOM     17  N   UNL     1      -3.033  14.640  24.762  0.00  0.00    +0.000 N 
ATOM     18  O   UNL     1      -2.419  15.088  25.740  0.00  0.00    +0.000 OA
ATOM     19  O   UNL     1      -4.207  14.917  24.480  0.00  0.00    +0.000 OA
ENDBRANCH  14  17
ENDBRANCH   2  11
BRANCH   1  20
ATOM     20  C   UNL     1      -0.915  12.077  18.820  0.00  0.00    +0.000 C 
ATOM     21  O   UNL     1      -0.498  13.228  18.662  0.00  0.00    +0.000 OA
BRANCH  20  23
ATOM     22  N   UNL     1      -3.443  12.016  18.625  0.00  0.00    +0.000 N 
ATOM     23  C   UNL     1      -2.183  11.731  18.043  0.00  0.00    +0.000 C 
ATOM     24  O   UNL     1      -2.036  11.211  16.938  0.00  0.00    +0.000 OA
BRANCH  22  25
ATOM     25  C   UNL     1      -4.634  11.727  17.813  0.00  0.00    +0.000 C 
BRANCH  25  27
ATOM     26  C   UNL     1      -6.800  10.671  18.728  0.00  0.00    +0.000 C 
ATOM     27  C   UNL     1      -5.431  10.451  18.110  0.00  0.00    +0.000 C 
ENDBRANCH  25  27
ENDBRANCH  22  25
BRANCH  22  28
ATOM     28  C   UNL     1      -3.549  12.637  19.959  0.00  0.00    +0.000 C 
BRANCH  28  29
ATOM     29  C   UNL     1      -4.806  13.442  20.305  0.00  0.00    +0.000 C 
ATOM     30  C   UNL     1      -5.612  12.893  21.472  0.00  0.00    +0.000 C 
ENDBRANCH  28  29
ENDBRANCH  22  28
ENDBRANCH  20  23
ENDBRANCH   1  20
TORSDOF 8
ENDMDL
MODEL 3
REMARK VINA RESULT:      -6.5      1.152      2.384
REMARK  Name = 
REMARK  11 active torsions:
REMARK  status: ('A' for Active; 'I' for Inactive)
REMARK    1  A    between atoms: C_1  and  C_2
REMARK    2  A    between atoms: C_2  and  C_3
REMARK    3  A    between atoms: C_3  and  N_4
REMARK    4  A    between atoms: N_4  and  C_5
REMARK    5  A    between atoms: C_5  and  C_6
REMARK    6  A    between atoms: C_6  and  C_7
REMARK    7  A    between atoms: C_8  and  C_10
REMARK    8  A    between atoms: C_10  and  C_12
REMARK    9  A    between atoms: C_13  and  C_14
REMARK   10  A    between atoms: C_17  and  N_18
REMARK   11  A    between atoms: N_23  and  C_24
REMARK                            x       y       z     vdW  Elec       q    Type
REMARK                         _______ _______ _______ _____ _____    ______ ____
ROOT
ATOM      1  C   UNL     1      -0.530  11.096  19.630  0.00  0.00    +0.000 A 
ATOM      2  C   UNL     1      -0.564  11.128  21.044  0.00  0.00    +0.000 A 
ATOM      3  N   UNL     1       0.259  10.090  21.474  0.00  0.00    +0.000 N 
ATOM      4  C   UNL     1       0.516   9.648  22.834  0.00  0.00    +0.000 C 
ATOM      5  C   UNL     1       0.844   9.435  20.400  0.00  0.00    +0.000 A 
ATOM      6  C   UNL     1       1.757   8.368  20.370  0.00  0.00    +0.000 A 
ATOM      7  C   UNL     1       2.166   7.869  19.134  0.00  0.00    +0.000 A 
ATOM      8  C   UNL     1       1.673   8.419  17.959  0.00  0.00    +0.000 A 
ATOM      9  C   UNL     1       0.773   9.485  17.998  0.00  0.00    +0.000 A 
ATOM     10  C   UNL     1       0.351  10.025  19.241  0.00  0.00    +0.000 A 
ENDROOT
BRANCH   2  11
ATOM     11  C   UNL     1      -1.267  12.061  21.965  0.00  0.00    +0.000 A 
ATOM     12  C   UNL     1      -0.953  13.427  21.985  0.00  0.00    +0.000 A 
ATOM     13  C   UNL     1      -1.513  14.304  22.921  0.00  0.00    +0.000 A 
ATOM     14  C   UNL     1      -2.496  13.839  23.792  0.00  0.00    +0.000 A 
ATOM     15  C   UNL     1      -2.897  12.501  23.745  0.00  0.00    +0.000 A 
ATOM     16  C   UNL     1      -2.251  11.616  22.867  0.00  0.00    +0.000 A 
BRANCH  14  17
ATOM     17  N   UNL     1      -3.110  14.760  24.757  0.00  0.00    +0.000 N 
ATOM     18  O   UNL     1      -2.508  14.968  25.820  0.00  0.00    +0.000 OA
ATOM     19  O   UNL     1      -4.191  15.279  24.447  0.00  0.00    +0.000 OA
ENDBRANCH  14  17
ENDBRANCH   2  11
BRANCH   1  20
ATOM     20  C   UNL     1      -1.230  11.988  18.677  0.00  0.00    +0.000 C 
ATOM     21  O   UNL     1      -0.876  13.144  18.430  0.00  0.00    +0.000 OA
BRANCH  20  23
ATOM     22  N   UNL     1      -3.757  11.833  18.520  0.00  0.00    +0.000 N 
ATOM     23  C   UNL     1      -2.494  11.525  17.956  0.00  0.00    +0.000 C 
ATOM     24  O   UNL     1      -2.341  10.896  16.910  0.00  0.00    +0.000 OA
BRANCH  22  25
ATOM     25  C   UNL     1      -4.946  11.425  17.757  0.00  0.00    +0.000 C 
BRANCH  25  27
ATOM     26  C   UNL     1      -7.194  12.683  17.664  0.00  0.00    +0.000 C 
ATOM     27  C   UNL     1      -5.797  12.514  17.093  0.00  0.00    +0.000 C 
ENDBRANCH  25  27
ENDBRANCH  22  25
BRANCH  22  28
ATOM     28  C   UNL     1      -3.870  12.588  19.782  0.00  0.00    +0.000 C 
BRANCH  28  29
ATOM     29  C   UNL     1      -5.118  12.399  20.650  0.00  0.00    +0.000 C 
ATOM     30  C   UNL     1      -5.541  13.632  21.434  0.00  0.00    +0.000 C 
ENDBRANCH  28  29
ENDBRANCH  22  28
ENDBRANCH  20  23
ENDBRANCH   1  20
TORSDOF 8
ENDMDL
MODEL 4
REMARK VINA RESULT:      -6.2      0.965      1.482
REMARK  Name = 
REMARK  11 active torsions:
REMARK  status: ('A' for Active; 'I' for Inactive)
REMARK    1  A    between atoms: C_1  and  C_2
REMARK    2  A    between atoms: C_2  and  C_3
REMARK    3  A    between atoms: C_3  and  N_4
REMARK    4  A    between atoms: N_4  and  C_5
REMARK    5  A    between atoms: C_5  and  C_6
REMARK    6  A    between atoms: C_6  and  C_7
REMARK    7  A    between atoms: C_8  and  C_10
REMARK    8  A    between atoms: C_10  and  C_12
REMARK    9  A    between atoms: C_13  and  C_14
REMARK   10  A    between atoms: C_17  and  N_18
REMARK   11  A    between atoms: N_23  and  C_24
REMARK                            x       y       z     vdW  Elec       q    Type
REMARK                         _______ _______ _______ _____ _____    ______ ____
ROOT
ATOM      1  C   UNL     1      -0.355  11.061  20.123  0.00  0.00    +0.000 A 
ATOM      2  C   UNL     1      -0.557  11.097  21.523  0.00  0.00    +0.000 A 
ATOM      3  N   UNL     1       0.102   9.982  22.036  0.00  0.00    +0.000 N 
ATOM      4  C   UNL     1       0.148   9.517  23.412  0.00  0.00    +0.000 C 
ATOM      5  C   UNL     1       0.745   9.272  21.033  0.00  0.00    +0.000 A 
ATOM      6  C   UNL     1       1.547   8.120  21.101  0.00  0.00    +0.000 A 
ATOM      7  C   UNL     1       2.051   7.584  19.916  0.00  0.00    +0.000 A 
ATOM      8  C   UNL     1       1.760   8.179  18.698  0.00  0.00    +0.000 A 
ATOM      9  C   UNL     1       0.970   9.329  18.641  0.00  0.00    +0.000 A 
ATOM     10  C   UNL     1       0.457   9.908  19.830  0.00  0.00    +0.000 A 
ENDROOT
BRANCH   2  11
ATOM     11  C   UNL     1      -1.271  12.095  22.364  0.00  0.00    +0.000 A 
ATOM     12  C   UNL     1      -0.650  13.291  22.747  0.00  0.00    +0.000 A 
ATOM     13  C   UNL     1      -1.254  14.191  23.632  0.00  0.00    +0.000 A 
ATOM     14  C   UNL     1      -2.557  13.955  24.065  0.00  0.00    +0.000 A 
ATOM     15  C   UNL     1      -3.240  12.814  23.637  0.00  0.00    +0.000 A 
ATOM     16  C   UNL     1      -2.581  11.875  22.829  0.00  0.00    +0.000 A 
BRANCH  14  17
ATOM     17  N   UNL     1      -3.208  14.910  24.971  0.00  0.00    +0.000 N 
ATOM     18  O   UNL     1      -2.618  15.205  26.020  0.00  0.00    +0.000 OA
ATOM     19  O   UNL     1      -4.307  15.368  24.628  0.00  0.00    +0.000 OA
ENDBRANCH  14  17
ENDBRANCH   2  11
BRANCH   1  20
ATOM     20  C   UNL     1      -0.845  12.017  19.103  0.00  0.00    +0.000 C 
ATOM     21  O   UNL     1      -0.118  12.567  18.271  0.00  0.00    +0.000 OA
BRANCH  20  23
ATOM     22  N   UNL     1      -3.240  11.564  18.403  0.00  0.00    +0.000 N 
ATOM     23  C   UNL     1      -2.316  12.421  19.051  0.00  0.00    +0.000 C 
ATOM     24  O   UNL     1      -2.621  13.488  19.581  0.00  0.00    +0.000 OA
BRANCH  22  25
ATOM     25  C   UNL     1      -4.655  11.962  18.437  0.00  0.00    +0.000 C 
BRANCH  25  27
ATOM     26  C   UNL     1      -5.823  12.438  20.684  0.00  0.00    +0.000 C 
ATOM     27  C   UNL     1      -5.535  11.439  19.579  0.00  0.00    +0.000 C 
ENDBRANCH  25  27
ENDBRANCH  22  25
BRANCH  22  28
ATOM     28  C   UNL     1      -2.807  10.299  17.782  0.00  0.00    +0.000 C 
BRANCH  28  29
ATOM     29  C   UNL     1      -2.300  10.317  16.336  0.00  0.00    +0.000 C 
ATOM     30  C   UNL     1      -3.357  10.658  15.296  0.00  0.00    +0.000 C 
ENDBRANCH  28  29
ENDBRANCH  22  28
ENDBRANCH  20  23
ENDBRANCH   1  20
TORSDOF 8
ENDMDL
MODEL 5
REMARK VINA RESULT:      -6.1      2.670      3.966
REMARK  Name = 
REMARK  11 active torsions:
REMARK  status: ('A' for Active; 'I' for Inactive)
REMARK    1  A    between atoms: C_1  and  C_2
REMARK    2  A    between atoms: C_2  and  C_3
REMARK    3  A    between atoms: C_3  and  N_4
REMARK    4  A    between atoms: N_4  and  C_5
REMARK    5  A    between atoms: C_5  and  C_6
REMARK    6  A    between atoms: C_6  and  C_7
REMARK    7  A    between atoms: C_8  and  C_10
REMARK    8  A    between atoms: C_10  and  C_12
REMARK    9  A    between atoms: C_13  and  C_14
REMARK   10  A    between atoms: C_17  and  N_18
REMARK   11  A    between atoms: N_23  and  C_24
REMARK                            x       y       z     vdW  Elec       q    Type
REMARK                         _______ _______ _______ _____ _____    ______ ____
ROOT
ATOM      1  C   UNL     1      -0.343  12.418  19.935  0.00  0.00    +0.000 A 
ATOM      2  C   UNL     1      -1.097  13.371  20.659  0.00  0.00    +0.000 A 
ATOM      3  N   UNL     1      -0.453  14.593  20.476  0.00  0.00    +0.000 N 
ATOM      4  C   UNL     1      -0.781  15.882  21.062  0.00  0.00    +0.000 C 
ATOM      5  C   UNL     1       0.643  14.462  19.636  0.00  0.00    +0.000 A 
ATOM      6  C   UNL     1       1.545  15.426  19.157  0.00  0.00    +0.000 A 
ATOM      7  C   UNL     1       2.596  15.012  18.339  0.00  0.00    +0.000 A 
ATOM      8  C   UNL     1       2.744  13.673  18.012  0.00  0.00    +0.000 A 
ATOM      9  C   UNL     1       1.837  12.723  18.485  0.00  0.00    +0.000 A 
ATOM     10  C   UNL     1       0.748  13.114  19.305  0.00  0.00    +0.000 A 
ENDROOT
BRANCH   2  11
ATOM     11  C   UNL     1      -2.350  13.207  21.446  0.00  0.00    +0.000 A 
ATOM     12  C   UNL     1      -3.583  13.632  20.933  0.00  0.00    +0.000 A 
ATOM     13  C   UNL     1      -4.756  13.598  21.697  0.00  0.00    +0.000 A 
ATOM     14  C   UNL     1      -4.729  13.025  22.966  0.00  0.00    +0.000 A 
ATOM     15  C   UNL     1      -3.534  12.513  23.479  0.00  0.00    +0.000 A 
ATOM     16  C   UNL     1      -2.350  12.648  22.737  0.00  0.00    +0.000 A 
BRANCH  14  17
ATOM     17  N   UNL     1      -5.962  12.959  23.762  0.00  0.00    +0.000 N 
ATOM     18  O   UNL     1      -6.697  13.956  23.771  0.00  0.00    +0.000 OA
ATOM     19  O   UNL     1      -6.195  11.905  24.372  0.00  0.00    +0.000 OA
ENDBRANCH  14  17
ENDBRANCH   2  11
BRANCH   1  20
ATOM     20  C   UNL     1      -0.597  10.965  19.797  0.00  0.00    +0.000 C 
ATOM     21  O   UNL     1      -0.602  10.175  20.745  0.00  0.00    +0.000 OA
BRANCH  20  23
ATOM     22  N   UNL     1      -2.091  10.504  17.800  0.00  0.00    +0.000 N 
ATOM     23  C   UNL     1      -0.830  10.339  18.424  0.00  0.00    +0.000 C 
ATOM     24  O   UNL     1       0.106   9.712  17.931  0.00  0.00    +0.000 OA
BRANCH  22  25
ATOM     25  C   UNL     1      -2.246   9.941  16.451  0.00  0.00    +0.000 C 
BRANCH  25  27
ATOM     26  C   UNL     1      -3.419  10.087  14.160  0.00  0.00    +0.000 C 
ATOM     27  C   UNL     1      -2.841  10.829  15.351  0.00  0.00    +0.000 C 
ENDBRANCH  25  27
ENDBRANCH  22  25
BRANCH  22  28
ATOM     28  C   UNL     1      -3.174  11.266  18.450  0.00  0.00    +0.000 C 
BRANCH  28  29
ATOM     29  C   UNL     1      -4.628  10.868  18.176  0.00  0.00    +0.000 C 
ATOM     30  C   UNL     1      -5.532  12.015  17.748  0.00  0.00    +0.000 C 
ENDBRANCH  28  29
ENDBRANCH  22  28
ENDBRANCH  20  23
ENDBRANCH   1  20
TORSDOF 8
ENDMDL
MODEL 6
REMARK VINA RESULT:      -6.1      6.272     10.799
REMARK  Name = 
REMARK  11 active torsions:
REMARK  status: ('A' for Active; 'I' for Inactive)
REMARK    1  A    between atoms: C_1  and  C_2
REMARK    2  A    between atoms: C_2  and  C_3
REMARK    3  A    between atoms: C_3  and  N_4
REMARK    4  A    between atoms: N_4  and  C_5
REMARK    5  A    between atoms: C_5  and  C_6
REMARK    6  A    between atoms: C_6  and  C_7
REMARK    7  A    between atoms: C_8  and  C_10
REMARK    8  A    between atoms: C_10  and  C_12
REMARK    9  A    between atoms: C_13  and  C_14
REMARK   10  A    between atoms: C_17  and  N_18
REMARK   11  A    between atoms: N_23  and  C_24
REMARK                            x       y       z     vdW  Elec       q    Type
REMARK                         _______ _______ _______ _____ _____    ______ ____
ROOT
ATOM      1  C   UNL     1       3.696   5.027  18.452  0.00  0.00    +0.000 A 
ATOM      2  C   UNL     1       4.196   4.087  17.520  0.00  0.00    +0.000 A 
ATOM      3  N   UNL     1       3.620   2.864  17.857  0.00  0.00    +0.000 N 
ATOM      4  C   UNL     1       3.854   1.562  17.257  0.00  0.00    +0.000 C 
ATOM      5  C   UNL     1       2.748   2.998  18.928  0.00  0.00    +0.000 A 
ATOM      6  C   UNL     1       1.936   2.047  19.567  0.00  0.00    +0.000 A 
ATOM      7  C   UNL     1       1.167   2.447  20.659  0.00  0.00    +0.000 A 
ATOM      8  C   UNL     1       1.212   3.761  21.104  0.00  0.00    +0.000 A 
ATOM      9  C   UNL     1       2.015   4.701  20.457  0.00  0.00    +0.000 A 
ATOM     10  C   UNL     1       2.795   4.329  19.332  0.00  0.00    +0.000 A 
ENDROOT
BRANCH   2  11
ATOM     11  C   UNL     1       5.114   4.277  16.364  0.00  0.00    +0.000 A 
ATOM     12  C   UNL     1       6.458   4.624  16.561  0.00  0.00    +0.000 A 
ATOM     13  C   UNL     1       7.311   4.924  15.493  0.00  0.00    +0.000 A 
ATOM     14  C   UNL     1       6.852   4.769  14.187  0.00  0.00    +0.000 A 
ATOM     15  C   UNL     1       5.543   4.343  13.950  0.00  0.00    +0.000 A 
ATOM     16  C   UNL     1       4.674   4.144  15.035  0.00  0.00    +0.000 A 
BRANCH  14  17
ATOM     17  N   UNL     1       7.751   5.053  13.060  0.00  0.00    +0.000 N 
ATOM     18  O   UNL     1       8.711   5.809  13.264  0.00  0.00    +0.000 OA
ATOM     19  O   UNL     1       7.498   4.514  11.974  0.00  0.00    +0.000 OA
ENDBRANCH  14  17
ENDBRANCH   2  11
BRANCH   1  20
ATOM     20  C   UNL     1       3.991   6.476  18.538  0.00  0.00    +0.000 C 
ATOM     21  O   UNL     1       4.983   6.943  19.105  0.00  0.00    +0.000 OA
BRANCH  20  23
ATOM     22  N   UNL     1       2.088   8.132  18.803  0.00  0.00    +0.000 N 
ATOM     23  C   UNL     1       3.030   7.506  17.949  0.00  0.00    +0.000 C 
ATOM     24  O   UNL     1       3.128   7.737  16.746  0.00  0.00    +0.000 OA
BRANCH  22  25
ATOM     25  C   UNL     1       1.230   9.166  18.206  0.00  0.00    +0.000 C 
BRANCH  25  27
ATOM     26  C   UNL     1       0.836  11.529  19.154  0.00  0.00    +0.000 C 
ATOM     27  C   UNL     1       1.686  10.628  18.279  0.00  0.00    +0.000 C 
ENDBRANCH  25  27
ENDBRANCH  22  25
BRANCH  22  28
ATOM     28  C   UNL     1       2.020   7.806  20.240  0.00  0.00    +0.000 C 
BRANCH  28  29
ATOM     29  C   UNL     1       0.814   8.286  21.053  0.00  0.00    +0.000 C 
ATOM     30  C   UNL     1       1.161   9.143  22.262  0.00  0.00    +0.000 C 
ENDBRANCH  28  29
ENDBRANCH  22  28
ENDBRANCH  20  23
ENDBRANCH   1  20
TORSDOF 8
ENDMDL
MODEL 7
REMARK VINA RESULT:      -6.1      5.041      8.721
REMARK  Name = 
REMARK  11 active torsions:
REMARK  status: ('A' for Active; 'I' for Inactive)
REMARK    1  A    between atoms: C_1  and  C_2
REMARK    2  A    between atoms: C_2  and  C_3
REMARK    3  A    between atoms: C_3  and  N_4
REMARK    4  A    between atoms: N_4  and  C_5
REMARK    5  A    between atoms: C_5  and  C_6
REMARK    6  A    between atoms: C_6  and  C_7
REMARK    7  A    between atoms: C_8  and  C_10
REMARK    8  A    between atoms: C_10  and  C_12
REMARK    9  A    between atoms: C_13  and  C_14
REMARK   10  A    between atoms: C_17  and  N_18
REMARK   11  A    between atoms: N_23  and  C_24
REMARK                            x       y       z     vdW  Elec       q    Type
REMARK                         _______ _______ _______ _____ _____    ______ ____
ROOT
ATOM      1  C   UNL     1       3.440   5.810  18.202  0.00  0.00    +0.000 A 
ATOM      2  C   UNL     1       2.372   6.149  19.066  0.00  0.00    +0.000 A 
ATOM      3  N   UNL     1       1.827   4.942  19.498  0.00  0.00    +0.000 N 
ATOM      4  C   UNL     1       0.666   4.729  20.345  0.00  0.00    +0.000 C 
ATOM      5  C   UNL     1       2.529   3.861  18.984  0.00  0.00    +0.000 A 
ATOM      6  C   UNL     1       2.354   2.481  19.183  0.00  0.00    +0.000 A 
ATOM      7  C   UNL     1       3.192   1.595  18.507  0.00  0.00    +0.000 A 
ATOM      8  C   UNL     1       4.175   2.073  17.653  0.00  0.00    +0.000 A 
ATOM      9  C   UNL     1       4.348   3.446  17.468  0.00  0.00    +0.000 A 
ATOM     10  C   UNL     1       3.523   4.373  18.155  0.00  0.00    +0.000 A 
ENDROOT
BRANCH   2  11
ATOM     11  C   UNL     1       1.884   7.482  19.511  0.00  0.00    +0.000 A 
ATOM     12  C   UNL     1       1.694   7.762  20.871  0.00  0.00    +0.000 A 
ATOM     13  C   UNL     1       1.125   8.964  21.309  0.00  0.00    +0.000 A 
ATOM     14  C   UNL     1       0.838   9.963  20.382  0.00  0.00    +0.000 A 
ATOM     15  C   UNL     1       1.093   9.752  19.024  0.00  0.00    +0.000 A 
ATOM     16  C   UNL     1       1.570   8.503  18.596  0.00  0.00    +0.000 A 
BRANCH  14  17
ATOM     17  N   UNL     1       0.269  11.238  20.837  0.00  0.00    +0.000 N 
ATOM     18  O   UNL     1      -0.458  11.860  20.050  0.00  0.00    +0.000 OA
ATOM     19  O   UNL     1       0.547  11.612  21.985  0.00  0.00    +0.000 OA
ENDBRANCH  14  17
ENDBRANCH   2  11
BRANCH   1  20
ATOM     20  C   UNL     1       4.353   6.722  17.474  0.00  0.00    +0.000 C 
ATOM     21  O   UNL     1       4.478   7.922  17.735  0.00  0.00    +0.000 OA
BRANCH  20  23
ATOM     22  N   UNL     1       6.474   5.689  16.543  0.00  0.00    +0.000 N 
ATOM     23  C   UNL     1       5.184   6.221  16.295  0.00  0.00    +0.000 C 
ATOM     24  O   UNL     1       4.679   6.313  15.178  0.00  0.00    +0.000 OA
BRANCH  22  25
ATOM     25  C   UNL     1       7.209   5.158  15.386  0.00  0.00    +0.000 C 
BRANCH  25  27
ATOM     26  C   UNL     1       6.309   3.922  13.311  0.00  0.00    +0.000 C 
ATOM     27  C   UNL     1       6.740   3.837  14.764  0.00  0.00    +0.000 C 
ENDBRANCH  25  27
ENDBRANCH  22  25
BRANCH  22  28
ATOM     28  C   UNL     1       7.023   5.613  17.910  0.00  0.00    +0.000 C 
BRANCH  28  29
ATOM     29  C   UNL     1       7.911   6.754  18.417  0.00  0.00    +0.000 C 
ATOM     30  C   UNL     1       7.849   8.026  17.586  0.00  0.00    +0.000 C 
ENDBRANCH  28  29
ENDBRANCH  22  28
ENDBRANCH  20  23
ENDBRANCH   1  20
TORSDOF 8
ENDMDL
MODEL 8
REMARK VINA RESULT:      -6.0      2.675      4.271
REMARK  Name = 
REMARK  11 active torsions:
REMARK  status: ('A' for Active; 'I' for Inactive)
REMARK    1  A    between atoms: C_1  and  C_2
REMARK    2  A    between atoms: C_2  and  C_3
REMARK    3  A    between atoms: C_3  and  N_4
REMARK    4  A    between atoms: N_4  and  C_5
REMARK    5  A    between atoms: C_5  and  C_6
REMARK    6  A    between atoms: C_6  and  C_7
REMARK    7  A    between atoms: C_8  and  C_10
REMARK    8  A    between atoms: C_10  and  C_12
REMARK    9  A    between atoms: C_13  and  C_14
REMARK   10  A    between atoms: C_17  and  N_18
REMARK   11  A    between atoms: N_23  and  C_24
REMARK                            x       y       z     vdW  Elec       q    Type
REMARK                         _______ _______ _______ _____ _____    ______ ____
ROOT
ATOM      1  C   UNL     1       0.062  11.442  19.614  0.00  0.00    +0.000 A 
ATOM      2  C   UNL     1      -0.456  11.300  20.922  0.00  0.00    +0.000 A 
ATOM      3  N   UNL     1      -0.038  10.049  21.370  0.00  0.00    +0.000 N 
ATOM      4  C   UNL     1      -0.357   9.388  22.624  0.00  0.00    +0.000 C 
ATOM      5  C   UNL     1       0.755   9.417  20.424  0.00  0.00    +0.000 A 
ATOM      6  C   UNL     1       1.412   8.176  20.467  0.00  0.00    +0.000 A 
ATOM      7  C   UNL     1       2.129   7.757  19.347  0.00  0.00    +0.000 A 
ATOM      8  C   UNL     1       2.185   8.554  18.213  0.00  0.00    +0.000 A 
ATOM      9  C   UNL     1       1.537   9.790  18.182  0.00  0.00    +0.000 A 
ATOM     10  C   UNL     1       0.814  10.251  19.312  0.00  0.00    +0.000 A 
ENDROOT
BRANCH   2  11
ATOM     11  C   UNL     1      -1.255  12.248  21.746  0.00  0.00    +0.000 A 
ATOM     12  C   UNL     1      -0.641  13.060  22.709  0.00  0.00    +0.000 A 
ATOM     13  C   UNL     1      -1.381  13.872  23.576  0.00  0.00    +0.000 A 
ATOM     14  C   UNL     1      -2.761  13.968  23.413  0.00  0.00    +0.000 A 
ATOM     15  C   UNL     1      -3.400  13.238  22.407  0.00  0.00    +0.000 A 
ATOM     16  C   UNL     1      -2.652  12.354  21.614  0.00  0.00    +0.000 A 
BRANCH  14  17
ATOM     17  N   UNL     1      -3.541  14.841  24.300  0.00  0.00    +0.000 N 
ATOM     18  O   UNL     1      -3.038  15.157  25.388  0.00  0.00    +0.000 OA
ATOM     19  O   UNL     1      -4.654  15.214  23.904  0.00  0.00    +0.000 OA
ENDBRANCH  14  17
ENDBRANCH   2  11
BRANCH   1  20
ATOM     20  C   UNL     1      -0.088  12.590  18.689  0.00  0.00    +0.000 C 
ATOM     21  O   UNL     1      -0.995  12.691  17.860  0.00  0.00    +0.000 OA
BRANCH  20  23
ATOM     22  N   UNL     1       0.554  14.988  19.212  0.00  0.00    +0.000 N 
ATOM     23  C   UNL     1       0.930  13.728  18.683  0.00  0.00    +0.000 C 
ATOM     24  O   UNL     1       2.038  13.484  18.208  0.00  0.00    +0.000 OA
BRANCH  22  25
ATOM     25  C   UNL     1       1.587  16.033  19.247  0.00  0.00    +0.000 C 
BRANCH  25  27
ATOM     26  C   UNL     1       0.919  18.099  17.859  0.00  0.00    +0.000 C 
ATOM     27  C   UNL     1       1.814  16.880  17.989  0.00  0.00    +0.000 C 
ENDBRANCH  25  27
ENDBRANCH  22  25
BRANCH  22  28
ATOM     28  C   UNL     1      -0.795  15.216  19.764  0.00  0.00    +0.000 C 
BRANCH  28  29
ATOM     29  C   UNL     1      -1.053  16.477  20.595  0.00  0.00    +0.000 C 
ATOM     30  C   UNL     1      -2.492  16.651  21.056  0.00  0.00    +0.000 C 
ENDBRANCH  28  29
ENDBRANCH  22  28
ENDBRANCH  20  23
ENDBRANCH   1  20
TORSDOF 8
ENDMDL
MODEL 9
REMARK VINA RESULT:      -6.0      2.634      3.861
REMARK  Name = 
REMARK  11 active torsions:
REMARK  status: ('A' for Active; 'I' for Inactive)
REMARK    1  A    between atoms: C_1  and  C_2
REMARK    2  A    between atoms: C_2  and  C_3
REMARK    3  A    between atoms: C_3  and  N_4
REMARK    4  A    between atoms: N_4  and  C_5
REMARK    5  A    between atoms: C_5  and  C_6
REMARK    6  A    between atoms: C_6  and  C_7
REMARK    7  A    between atoms: C_8  and  C_10
REMARK    8  A    between atoms: C_10  and  C_12
REMARK    9  A    between atoms: C_13  and  C_14
REMARK   10  A    between atoms: C_17  and  N_18
REMARK   11  A    between atoms: N_23  and  C_24
REMARK                            x       y       z     vdW  Elec       q    Type
REMARK                         _______ _______ _______ _____ _____    ______ ____
ROOT
ATOM      1  C   UNL     1      -0.469  11.606  19.993  0.00  0.00    +0.000 A 
ATOM      2  C   UNL     1      -0.825  11.515  21.360  0.00  0.00    +0.000 A 
ATOM      3  N   UNL     1      -0.254  10.334  21.830  0.00  0.00    +0.000 N 
ATOM      4  C   UNL     1      -0.373   9.739  23.150  0.00  0.00    +0.000 C 
ATOM      5  C   UNL     1       0.481   9.702  20.838  0.00  0.00    +0.000 A 
ATOM      6  C   UNL     1       1.243   8.522  20.878  0.00  0.00    +0.000 A 
ATOM      7  C   UNL     1       1.863   8.085  19.709  0.00  0.00    +0.000 A 
ATOM      8  C   UNL     1       1.724   8.803  18.530  0.00  0.00    +0.000 A 
ATOM      9  C   UNL     1       0.973   9.979  18.501  0.00  0.00    +0.000 A 
ATOM     10  C   UNL     1       0.343  10.459  19.678  0.00  0.00    +0.000 A 
ENDROOT
BRANCH   2  11
ATOM     11  C   UNL     1      -1.606  12.451  22.213  0.00  0.00    +0.000 A 
ATOM     12  C   UNL     1      -3.007  12.432  22.208  0.00  0.00    +0.000 A 
ATOM     13  C   UNL     1      -3.765  13.378  22.908  0.00  0.00    +0.000 A 
ATOM     14  C   UNL     1      -3.119  14.302  23.726  0.00  0.00    +0.000 A 
ATOM     15  C   UNL     1      -1.725  14.298  23.822  0.00  0.00    +0.000 A 
ATOM     16  C   UNL     1      -0.981  13.406  23.035  0.00  0.00    +0.000 A 
BRANCH  14  17
ATOM     17  N   UNL     1      -3.910  15.279  24.487  0.00  0.00    +0.000 N 
ATOM     18  O   UNL     1      -3.357  15.857  25.433  0.00  0.00    +0.000 OA
ATOM     19  O   UNL     1      -5.082  15.469  24.133  0.00  0.00    +0.000 OA
ENDBRANCH  14  17
ENDBRANCH   2  11
BRANCH   1  20
ATOM     20  C   UNL     1      -0.819  12.671  19.026  0.00  0.00    +0.000 C 
ATOM     21  O   UNL     1      -1.312  12.457  17.915  0.00  0.00    +0.000 OA
BRANCH  20  23
ATOM     22  N   UNL     1       0.732  14.679  19.031  0.00  0.00    +0.000 N 
ATOM     23  C   UNL     1      -0.541  14.139  19.343  0.00  0.00    +0.000 C 
ATOM     24  O   UNL     1      -1.452  14.779  19.865  0.00  0.00    +0.000 OA
BRANCH  22  25
ATOM     25  C   UNL     1       0.930  16.112  19.293  0.00  0.00    +0.000 C 
BRANCH  25  27
ATOM     26  C   UNL     1      -0.494  17.668  17.813  0.00  0.00    +0.000 C 
ATOM     27  C   UNL     1       0.875  17.086  18.110  0.00  0.00    +0.000 C 
ENDBRANCH  25  27
ENDBRANCH  22  25
BRANCH  22  28
ATOM     28  C   UNL     1       1.783  13.853  18.410  0.00  0.00    +0.000 C 
BRANCH  28  29
ATOM     29  C   UNL     1       3.196  13.880  19.003  0.00  0.00    +0.000 C 
ATOM     30  C   UNL     1       4.230  14.602  18.152  0.00  0.00    +0.000 C 
ENDBRANCH  28  29
ENDBRANCH  22  28
ENDBRANCH  20  23
ENDBRANCH   1  20
TORSDOF 8
ENDMDL
