MODEL 1
REMARK VINA RESULT:      -6.4      0.000      0.000
REMARK  Name = 
REMARK  1 active torsions:
REMARK  status: ('A' for Active; 'I' for Inactive)
REMARK    1  A    between atoms: O_1  and  C_2
REMARK                            x       y       z     vdW  Elec       q    Type
REMARK                         _______ _______ _______ _____ _____    ______ ____
ROOT
ATOM      1  C   UNL     1       6.829   4.707  18.424  0.00  0.00    +0.000 A 
ATOM      2  N   UNL     1       5.901   4.470  19.293  0.00  0.00    +0.000 NA
ATOM      3  C   UNL     1       4.633   4.093  18.773  0.00  0.00    +0.000 A 
ATOM      4  C   UNL     1       3.595   3.825  19.658  0.00  0.00    +0.000 A 
ATOM      5  C   UNL     1       2.344   3.452  19.168  0.00  0.00    +0.000 A 
ATOM      6  C   UNL     1       2.166   3.358  17.793  0.00  0.00    +0.000 A 
ATOM      7  N   UNL     1       3.138   3.606  16.886  0.00  0.00    +0.000 NA
ATOM      8  C   UNL     1       4.343   3.966  17.398  0.00  0.00    +0.000 A 
ATOM      9  N   UNL     1       5.419   4.245  16.531  0.00  0.00    +0.000 N 
ATOM     10  C   UNL     1       5.499   4.227  15.164  0.00  0.00    +0.000 A 
ATOM     11  C   UNL     1       6.799   4.588  14.882  0.00  0.00    +0.000 A 
ATOM     12  N   UNL     1       7.509   4.826  16.035  0.00  0.00    +0.000 NA
ATOM     13  C   UNL     1       6.648   4.612  17.010  0.00  0.00    +0.000 A 
ENDROOT
BRANCH   1  14
ATOM     14  O   UNL     1       8.053   5.069  18.836  0.00  0.00    +0.000 OA
ATOM     15  H   UNL     1       7.975   5.931  19.271  0.00  0.00    +0.000 HD
ENDBRANCH   1  14
TORSDOF 1
ENDMDL
MODEL 2
REMARK VINA RESULT:      -6.3      2.737      4.768
REMARK  Name = 
REMARK  1 active torsions:
REMARK  status: ('A' for Active; 'I' for Inactive)
REMARK    1  A    between atoms: O_1  and  C_2
REMARK                            x       y       z     vdW  Elec       q    Type
REMARK                         _______ _______ _______ _____ _____    ______ ____
ROOT
ATOM      1  C   UNL     1       4.517   2.914  19.738  0.00  0.00    +0.000 A 
ATOM      2  N   UNL     1       5.119   3.718  18.923  0.00  0.00    +0.000 NA
ATOM      3  C   UNL     1       4.425   4.912  18.589  0.00  0.00    +0.000 A 
ATOM      4  C   UNL     1       5.021   5.816  17.717  0.00  0.00    +0.000 A 
ATOM      5  C   UNL     1       4.356   6.994  17.378  0.00  0.00    +0.000 A 
ATOM      6  C   UNL     1       3.102   7.235  17.927  0.00  0.00    +0.000 A 
ATOM      7  N   UNL     1       2.475   6.394  18.779  0.00  0.00    +0.000 NA
ATOM      8  C   UNL     1       3.150   5.257  19.087  0.00  0.00    +0.000 A 
ATOM      9  N   UNL     1       2.577   4.317  19.968  0.00  0.00    +0.000 N 
ATOM     10  C   UNL     1       1.377   4.319  20.628  0.00  0.00    +0.000 A 
ATOM     11  C   UNL     1       1.365   3.141  21.342  0.00  0.00    +0.000 A 
ATOM     12  N   UNL     1       2.520   2.423  21.136  0.00  0.00    +0.000 NA
ATOM     13  C   UNL     1       3.228   3.160  20.303  0.00  0.00    +0.000 A 
ENDROOT
BRANCH   1  14
ATOM     14  O   UNL     1       5.107   1.766  20.101  0.00  0.00    +0.000 OA
ATOM     15  H   UNL     1       4.491   1.043  19.907  0.00  0.00    +0.000 HD
ENDBRANCH   1  14
TORSDOF 1
ENDMDL
MODEL 3
REMARK VINA RESULT:      -6.2      2.262      2.846
REMARK  Name = 
REMARK  1 active torsions:
REMARK  status: ('A' for Active; 'I' for Inactive)
REMARK    1  A    between atoms: O_1  and  C_2
REMARK                            x       y       z     vdW  Elec       q    Type
REMARK                         _______ _______ _______ _____ _____    ______ ____
ROOT
ATOM      1  C   UNL     1       5.515   4.256  18.700  0.00  0.00    +0.000 A 
ATOM      2  N   UNL     1       5.026   3.338  19.471  0.00  0.00    +0.000 NA
ATOM      3  C   UNL     1       3.675   3.510  19.876  0.00  0.00    +0.000 A 
ATOM      4  C   UNL     1       3.095   2.557  20.706  0.00  0.00    +0.000 A 
ATOM      5  C   UNL     1       1.770   2.707  21.113  0.00  0.00    +0.000 A 
ATOM      6  C   UNL     1       1.058   3.816  20.676  0.00  0.00    +0.000 A 
ATOM      7  N   UNL     1       1.569   4.775  19.871  0.00  0.00    +0.000 NA
ATOM      8  C   UNL     1       2.861   4.597  19.492  0.00  0.00    +0.000 A 
ATOM      9  N   UNL     1       3.483   5.543  18.653  0.00  0.00    +0.000 N 
ATOM     10  C   UNL     1       3.008   6.701  18.097  0.00  0.00    +0.000 A 
ATOM     11  C   UNL     1       4.066   7.205  17.373  0.00  0.00    +0.000 A 
ATOM     12  N   UNL     1       5.169   6.390  17.472  0.00  0.00    +0.000 NA
ATOM     13  C   UNL     1       4.784   5.399  18.250  0.00  0.00    +0.000 A 
ENDROOT
BRANCH   1  14
ATOM     14  O   UNL     1       6.783   4.166  18.274  0.00  0.00    +0.000 OA
ATOM     15  H   UNL     1       6.862   4.699  17.469  0.00  0.00    +0.000 HD
ENDBRANCH   1  14
TORSDOF 1
ENDMDL
MODEL 4
REMARK VINA RESULT:      -6.1      1.453      1.579
REMARK  Name = 
REMARK  1 active torsions:
REMARK  status: ('A' for Active; 'I' for Inactive)
REMARK    1  A    between atoms: O_1  and  C_2
REMARK                            x       y       z     vdW  Elec       q    Type
REMARK                         _______ _______ _______ _____ _____    ______ ____
ROOT
ATOM      1  C   UNL     1       6.963   6.332  17.029  0.00  0.00    +0.000 A 
ATOM      2  N   UNL     1       6.303   6.250  18.139  0.00  0.00    +0.000 NA
ATOM      3  C   UNL     1       5.352   5.198  18.229  0.00  0.00    +0.000 A 
ATOM      4  C   UNL     1       4.612   5.057  19.398  0.00  0.00    +0.000 A 
ATOM      5  C   UNL     1       3.675   4.031  19.506  0.00  0.00    +0.000 A 
ATOM      6  C   UNL     1       3.504   3.166  18.433  0.00  0.00    +0.000 A 
ATOM      7  N   UNL     1       4.194   3.254  17.273  0.00  0.00    +0.000 NA
ATOM      8  C   UNL     1       5.098   4.264  17.201  0.00  0.00    +0.000 A 
ATOM      9  N   UNL     1       5.866   4.437  16.032  0.00  0.00    +0.000 N 
ATOM     10  C   UNL     1       5.885   3.734  14.857  0.00  0.00    +0.000 A 
ATOM     11  C   UNL     1       6.835   4.364  14.084  0.00  0.00    +0.000 A 
ATOM     12  N   UNL     1       7.394   5.428  14.752  0.00  0.00    +0.000 NA
ATOM     13  C   UNL     1       6.787   5.444  15.923  0.00  0.00    +0.000 A 
ENDROOT
BRANCH   1  14
ATOM     14  O   UNL     1       7.879   7.298  16.866  0.00  0.00    +0.000 OA
ATOM     15  H   UNL     1       7.405   8.133  16.728  0.00  0.00    +0.000 HD
ENDBRANCH   1  14
TORSDOF 1
ENDMDL
MODEL 5
REMARK VINA RESULT:      -6.1      1.646      2.792
REMARK  Name = 
REMARK  1 active torsions:
REMARK  status: ('A' for Active; 'I' for Inactive)
REMARK    1  A    between atoms: O_1  and  C_2
REMARK                            x       y       z     vdW  Elec       q    Type
REMARK                         _______ _______ _______ _____ _____    ______ ____
ROOT
ATOM      1  C   UNL     1       5.638   4.084  16.245  0.00  0.00    +0.000 A 
ATOM      2  N   UNL     1       4.364   3.865  16.280  0.00  0.00    +0.000 NA
ATOM      3  C   UNL     1       3.697   4.221  17.484  0.00  0.00    +0.000 A 
ATOM      4  C   UNL     1       2.326   4.009  17.582  0.00  0.00    +0.000 A 
ATOM      5  C   UNL     1       1.654   4.352  18.755  0.00  0.00    +0.000 A 
ATOM      6  C   UNL     1       2.379   4.901  19.804  0.00  0.00    +0.000 A 
ATOM      7  N   UNL     1       3.711   5.129  19.766  0.00  0.00    +0.000 NA
ATOM      8  C   UNL     1       4.335   4.784  18.610  0.00  0.00    +0.000 A 
ATOM      9  N   UNL     1       5.723   4.984  18.474  0.00  0.00    +0.000 N 
ATOM     10  C   UNL     1       6.647   5.497  19.346  0.00  0.00    +0.000 A 
ATOM     11  C   UNL     1       7.843   5.445  18.664  0.00  0.00    +0.000 A 
ATOM     12  N   UNL     1       7.675   4.916  17.406  0.00  0.00    +0.000 NA
ATOM     13  C   UNL     1       6.386   4.648  17.324  0.00  0.00    +0.000 A 
ENDROOT
BRANCH   1  14
ATOM     14  O   UNL     1       6.339   3.776  15.144  0.00  0.00    +0.000 OA
ATOM     15  H   UNL     1       7.266   4.003  15.312  0.00  0.00    +0.000 HD
ENDBRANCH   1  14
TORSDOF 1
ENDMDL
MODEL 6
REMARK VINA RESULT:      -6.1      1.854      2.979
REMARK  Name = 
REMARK  1 active torsions:
REMARK  status: ('A' for Active; 'I' for Inactive)
REMARK    1  A    between atoms: O_1  and  C_2
REMARK                            x       y       z     vdW  Elec       q    Type
REMARK                         _______ _______ _______ _____ _____    ______ ____
ROOT
ATOM      1  C   UNL     1       5.557   5.345  16.079  0.00  0.00    +0.000 A 
ATOM      2  N   UNL     1       4.643   4.431  16.122  0.00  0.00    +0.000 NA
ATOM      3  C   UNL     1       4.482   3.757  17.363  0.00  0.00    +0.000 A 
ATOM      4  C   UNL     1       3.515   2.764  17.470  0.00  0.00    +0.000 A 
ATOM      5  C   UNL     1       3.342   2.093  18.679  0.00  0.00    +0.000 A 
ATOM      6  C   UNL     1       4.148   2.437  19.757  0.00  0.00    +0.000 A 
ATOM      7  N   UNL     1       5.104   3.393  19.711  0.00  0.00    +0.000 NA
ATOM      8  C   UNL     1       5.246   4.027  18.519  0.00  0.00    +0.000 A 
ATOM      9  N   UNL     1       6.216   5.038  18.373  0.00  0.00    +0.000 N 
ATOM     10  C   UNL     1       7.120   5.552  19.264  0.00  0.00    +0.000 A 
ATOM     11  C   UNL     1       7.804   6.516  18.557  0.00  0.00    +0.000 A 
ATOM     12  N   UNL     1       7.345   6.604  17.264  0.00  0.00    +0.000 NA
ATOM     13  C   UNL     1       6.389   5.700  17.186  0.00  0.00    +0.000 A 
ENDROOT
BRANCH   1  14
ATOM     14  O   UNL     1       5.770   6.026  14.944  0.00  0.00    +0.000 OA
ATOM     15  H   UNL     1       6.307   6.802  15.163  0.00  0.00    +0.000 HD
ENDBRANCH   1  14
TORSDOF 1
ENDMDL
MODEL 7
REMARK VINA RESULT:      -6.0      2.727      4.869
REMARK  Name = 
REMARK  1 active torsions:
REMARK  status: ('A' for Active; 'I' for Inactive)
REMARK    1  A    between atoms: O_1  and  C_2
REMARK                            x       y       z     vdW  Elec       q    Type
REMARK                         _______ _______ _______ _____ _____    ______ ____
ROOT
ATOM      1  C   UNL     1       3.568   2.379  18.257  0.00  0.00    +0.000 A 
ATOM      2  N   UNL     1       4.268   3.114  17.456  0.00  0.00    +0.000 NA
ATOM      3  C   UNL     1       4.049   4.516  17.534  0.00  0.00    +0.000 A 
ATOM      4  C   UNL     1       4.773   5.359  16.697  0.00  0.00    +0.000 A 
ATOM      5  C   UNL     1       4.572   6.737  16.760  0.00  0.00    +0.000 A 
ATOM      6  C   UNL     1       3.645   7.237  17.665  0.00  0.00    +0.000 A 
ATOM      7  N   UNL     1       2.913   6.467  18.502  0.00  0.00    +0.000 NA
ATOM      8  C   UNL     1       3.133   5.130  18.415  0.00  0.00    +0.000 A 
ATOM      9  N   UNL     1       2.418   4.245  19.247  0.00  0.00    +0.000 N 
ATOM     10  C   UNL     1       1.466   4.482  20.203  0.00  0.00    +0.000 A 
ATOM     11  C   UNL     1       1.130   3.235  20.682  0.00  0.00    +0.000 A 
ATOM     12  N   UNL     1       1.846   2.248  20.047  0.00  0.00    +0.000 NA
ATOM     13  C   UNL     1       2.613   2.891  19.188  0.00  0.00    +0.000 A 
ENDROOT
BRANCH   1  14
ATOM     14  O   UNL     1       3.717   1.046  18.244  0.00  0.00    +0.000 OA
ATOM     15  H   UNL     1       4.181   0.794  19.056  0.00  0.00    +0.000 HD
ENDBRANCH   1  14
TORSDOF 1
ENDMDL
MODEL 8
REMARK VINA RESULT:      -6.0      1.840      4.281
REMARK  Name = 
REMARK  1 active torsions:
REMARK  status: ('A' for Active; 'I' for Inactive)
REMARK    1  A    between atoms: O_1  and  C_2
REMARK                            x       y       z     vdW  Elec       q    Type
REMARK                         _______ _______ _______ _____ _____    ______ ____
ROOT
ATOM      1  C   UNL     1       4.830   3.926  18.071  0.00  0.00    +0.000 A 
ATOM      2  N   UNL     1       4.594   3.608  16.839  0.00  0.00    +0.000 NA
ATOM      3  C   UNL     1       5.532   4.073  15.878  0.00  0.00    +0.000 A 
ATOM      4  C   UNL     1       5.331   3.763  14.537  0.00  0.00    +0.000 A 
ATOM      5  C   UNL     1       6.241   4.209  13.579  0.00  0.00    +0.000 A 
ATOM      6  C   UNL     1       7.335   4.958  13.994  0.00  0.00    +0.000 A 
ATOM      7  N   UNL     1       7.581   5.289  15.281  0.00  0.00    +0.000 NA
ATOM      8  C   UNL     1       6.676   4.839  16.188  0.00  0.00    +0.000 A 
ATOM      9  N   UNL     1       6.846   5.133  17.556  0.00  0.00    +0.000 N 
ATOM     10  C   UNL     1       7.821   5.841  18.208  0.00  0.00    +0.000 A 
ATOM     11  C   UNL     1       7.461   5.794  19.537  0.00  0.00    +0.000 A 
ATOM     12  N   UNL     1       6.299   5.081  19.713  0.00  0.00    +0.000 NA
ATOM     13  C   UNL     1       5.955   4.697  18.499  0.00  0.00    +0.000 A 
ENDROOT
BRANCH   1  14
ATOM     14  O   UNL     1       3.992   3.525  19.038  0.00  0.00    +0.000 OA
ATOM     15  H   UNL     1       4.433   3.667  19.888  0.00  0.00    +0.000 HD
ENDBRANCH   1  14
TORSDOF 1
ENDMDL
MODEL 9
REMARK VINA RESULT:      -6.0      2.729      4.955
REMARK  Name = 
REMARK  1 active torsions:
REMARK  status: ('A' for Active; 'I' for Inactive)
REMARK    1  A    between atoms: O_1  and  C_2
REMARK                            x       y       z     vdW  Elec       q    Type
REMARK                         _______ _______ _______ _____ _____    ______ ____
ROOT
ATOM      1  C   UNL     1       2.754   2.609  18.380  0.00  0.00    +0.000 A 
ATOM      2  N   UNL     1       3.568   2.725  17.382  0.00  0.00    +0.000 NA
ATOM      3  C   UNL     1       4.064   4.032  17.123  0.00  0.00    +0.000 A 
ATOM      4  C   UNL     1       4.943   4.220  16.063  0.00  0.00    +0.000 A 
ATOM      5  C   UNL     1       5.441   5.494  15.793  0.00  0.00    +0.000 A 
ATOM      6  C   UNL     1       5.042   6.553  16.599  0.00  0.00    +0.000 A 
ATOM      7  N   UNL     1       4.190   6.430  17.642  0.00  0.00    +0.000 NA
ATOM      8  C   UNL     1       3.724   5.176  17.877  0.00  0.00    +0.000 A 
ATOM      9  N   UNL     1       2.831   4.947  18.943  0.00  0.00    +0.000 N 
ATOM     10  C   UNL     1       2.292   5.805  19.864  0.00  0.00    +0.000 A 
ATOM     11  C   UNL     1       1.490   5.014  20.657  0.00  0.00    +0.000 A 
ATOM     12  N   UNL     1       1.523   3.702  20.245  0.00  0.00    +0.000 NA
ATOM     13  C   UNL     1       2.340   3.697  19.210  0.00  0.00    +0.000 A 
ENDROOT
BRANCH   1  14
ATOM     14  O   UNL     1       2.242   1.408  18.689  0.00  0.00    +0.000 OA
ATOM     15  H   UNL     1       2.865   0.734  18.377  0.00  0.00    +0.000 HD
ENDBRANCH   1  14
TORSDOF 1
ENDMDL
