MODEL 1
REMARK VINA RESULT:      -6.9      0.000      0.000
REMARK  Name = 
REMARK  12 active torsions:
REMARK  status: ('A' for Active; 'I' for Inactive)
REMARK    1  A    between atoms: C_1  and  C_2
REMARK    2  A    between atoms: C_2  and  O_3
REMARK    3  A    between atoms: O_3  and  P_4
REMARK    4  A    between atoms: P_4  and  O_6
REMARK    5  A    between atoms: P_4  and  C_9
REMARK    6  A    between atoms: O_6  and  C_7
REMARK    7  A    between atoms: C_7  and  C_8
REMARK    8  A    between atoms: C_9  and  C_10
REMARK    9  A    between atoms: C_9  and  C_21
REMARK   10  A    between atoms: C_10  and  C_11
REMARK   11  A    between atoms: C_14  and  C_15
REMARK   12  A    between atoms: C_29  and  C_30
REMARK                            x       y       z     vdW  Elec       q    Type
REMARK                         _______ _______ _______ _____ _____    ______ ____
ROOT
ATOM      1  C   UNL     1      -0.502  11.453  20.343  0.00  0.00    +0.000 C 
ENDROOT
BRANCH   1   2
ATOM      2  C   UNL     1       0.369  10.211  20.000  0.00  0.00    +0.000 A 
ATOM      3  S   UNL     1       1.010  10.150  18.391  0.00  0.00    +0.000 S 
ATOM      4  C   UNL     1       1.876   8.696  18.664  0.00  0.00    +0.000 A 
ATOM      5  C   UNL     1       2.757   8.039  17.779  0.00  0.00    +0.000 A 
ATOM      6  C   UNL     1       3.273   6.788  18.131  0.00  0.00    +0.000 A 
ATOM      7  C   UNL     1       2.907   6.193  19.327  0.00  0.00    +0.000 A 
ATOM      8  C   UNL     1       2.100   6.888  20.232  0.00  0.00    +0.000 A 
ATOM      9  C   UNL     1       1.599   8.185  19.928  0.00  0.00    +0.000 A 
ATOM     10  C   UNL     1       0.928   9.177  20.762  0.00  0.00    +0.000 A 
ATOM     11  C   UNL     1       0.974   9.058  22.258  0.00  0.00    +0.000 C 
ENDBRANCH   1   2
BRANCH   1  12
ATOM     12  P   UNL     1       0.192  12.784  21.390  0.00  0.00    +0.000 P 
ATOM     13  O   UNL     1       1.613  12.343  21.028  0.00  0.00    +0.000 OA
BRANCH  12  14
ATOM     14  O   UNL     1       0.848  14.043  22.379  0.00  0.00    +0.000 OA
BRANCH  14  16
ATOM     15  C   UNL     1       1.313  16.354  22.481  0.00  0.00    +0.000 C 
ATOM     16  C   UNL     1       0.212  15.310  22.422  0.00  0.00    +0.000 C 
ENDBRANCH  14  16
ENDBRANCH  12  14
BRANCH  12  17
ATOM     17  O   UNL     1      -0.320  12.000  22.757  0.00  0.00    +0.000 OA
BRANCH  17  18
ATOM     18  C   UNL     1      -1.682  11.589  22.827  0.00  0.00    +0.000 C 
ATOM     19  C   UNL     1      -2.540  12.740  23.316  0.00  0.00    +0.000 C 
ENDBRANCH  17  18
ENDBRANCH  12  17
ENDBRANCH   1  12
BRANCH   1  20
ATOM     20  C   UNL     1      -1.081  12.032  19.034  0.00  0.00    +0.000 C 
BRANCH  20  21
ATOM     21  C   UNL     1      -2.572  11.830  18.912  0.00  0.00    +0.000 A 
ATOM     22  C   UNL     1      -3.090  10.925  17.977  0.00  0.00    +0.000 A 
ATOM     23  C   UNL     1      -4.469  10.732  17.867  0.00  0.00    +0.000 A 
ATOM     24  C   UNL     1      -5.357  11.443  18.686  0.00  0.00    +0.000 A 
ATOM     25  C   UNL     1      -4.832  12.345  19.624  0.00  0.00    +0.000 A 
ATOM     26  C   UNL     1      -3.454  12.531  19.741  0.00  0.00    +0.000 A 
BRANCH  24  27
ATOM     27  C   UNL     1      -6.847  11.261  18.581  0.00  0.00    +0.000 C 
ATOM     28  F   UNL     1      -7.224   9.956  18.470  0.00  0.00    +0.000 F 
ATOM     29  F   UNL     1      -7.511  11.750  19.665  0.00  0.00    +0.000 F 
ATOM     30  F   UNL     1      -7.375  11.897  17.500  0.00  0.00    +0.000 F 
ENDBRANCH  24  27
ENDBRANCH  20  21
ENDBRANCH   1  20
TORSDOF 9
ENDMDL
MODEL 2
REMARK VINA RESULT:      -6.7      6.395     10.175
REMARK  Name = 
REMARK  12 active torsions:
REMARK  status: ('A' for Active; 'I' for Inactive)
REMARK    1  A    between atoms: C_1  and  C_2
REMARK    2  A    between atoms: C_2  and  O_3
REMARK    3  A    between atoms: O_3  and  P_4
REMARK    4  A    between atoms: P_4  and  O_6
REMARK    5  A    between atoms: P_4  and  C_9
REMARK    6  A    between atoms: O_6  and  C_7
REMARK    7  A    between atoms: C_7  and  C_8
REMARK    8  A    between atoms: C_9  and  C_10
REMARK    9  A    between atoms: C_9  and  C_21
REMARK   10  A    between atoms: C_10  and  C_11
REMARK   11  A    between atoms: C_14  and  C_15
REMARK   12  A    between atoms: C_29  and  C_30
REMARK                            x       y       z     vdW  Elec       q    Type
REMARK                         _______ _______ _______ _____ _____    ______ ____
ROOT
ATOM      1  C   UNL     1       2.973   6.006  19.567  0.00  0.00    +0.000 C 
ENDROOT
BRANCH   1   2
ATOM      2  C   UNL     1       2.134   7.313  19.652  0.00  0.00    +0.000 A 
ATOM      3  S   UNL     1       1.421   7.665  21.191  0.00  0.00    +0.000 S 
ATOM      4  C   UNL     1       0.759   9.159  20.677  0.00  0.00    +0.000 A 
ATOM      5  C   UNL     1       0.072  10.113  21.458  0.00  0.00    +0.000 A 
ATOM      6  C   UNL     1      -0.512  11.218  20.832  0.00  0.00    +0.000 A 
ATOM      7  C   UNL     1      -0.432  11.365  19.458  0.00  0.00    +0.000 A 
ATOM      8  C   UNL     1       0.320  10.461  18.703  0.00  0.00    +0.000 A 
ATOM      9  C   UNL     1       0.970   9.352  19.315  0.00  0.00    +0.000 A 
ATOM     10  C   UNL     1       1.957   8.409  18.797  0.00  0.00    +0.000 A 
ATOM     11  C   UNL     1       2.705   8.721  17.533  0.00  0.00    +0.000 C 
ENDBRANCH   1   2
BRANCH   1  12
ATOM     12  P   UNL     1       2.371   4.607  18.553  0.00  0.00    +0.000 P 
ATOM     13  O   UNL     1       1.523   5.566  17.714  0.00  0.00    +0.000 OA
BRANCH  12  14
ATOM     14  O   UNL     1       1.802   3.285  17.594  0.00  0.00    +0.000 OA
BRANCH  14  16
ATOM     15  C   UNL     1       3.394   1.654  18.205  0.00  0.00    +0.000 C 
ATOM     16  C   UNL     1       1.912   1.958  18.086  0.00  0.00    +0.000 C 
ENDBRANCH  14  16
ENDBRANCH  12  14
BRANCH  12  17
ATOM     17  O   UNL     1       1.489   4.035  19.835  0.00  0.00    +0.000 OA
BRANCH  17  18
ATOM     18  C   UNL     1       2.138   3.911  21.096  0.00  0.00    +0.000 C 
ATOM     19  C   UNL     1       1.707   2.622  21.769  0.00  0.00    +0.000 C 
ENDBRANCH  17  18
ENDBRANCH  12  17
ENDBRANCH   1  12
BRANCH   1  20
ATOM     20  C   UNL     1       4.425   6.372  19.189  0.00  0.00    +0.000 C 
BRANCH  20  21
ATOM     21  C   UNL     1       4.836   5.824  17.844  0.00  0.00    +0.000 A 
ATOM     22  C   UNL     1       4.764   6.628  16.699  0.00  0.00    +0.000 A 
ATOM     23  C   UNL     1       5.150   6.124  15.455  0.00  0.00    +0.000 A 
ATOM     24  C   UNL     1       5.611   4.806  15.329  0.00  0.00    +0.000 A 
ATOM     25  C   UNL     1       5.686   4.007  16.480  0.00  0.00    +0.000 A 
ATOM     26  C   UNL     1       5.310   4.513  17.726  0.00  0.00    +0.000 A 
BRANCH  24  27
ATOM     27  C   UNL     1       6.024   4.237  13.999  0.00  0.00    +0.000 C 
ATOM     28  F   UNL     1       6.499   2.963  14.083  0.00  0.00    +0.000 F 
ATOM     29  F   UNL     1       4.995   4.194  13.107  0.00  0.00    +0.000 F 
ATOM     30  F   UNL     1       7.007   4.965  13.403  0.00  0.00    +0.000 F 
ENDBRANCH  24  27
ENDBRANCH  20  21
ENDBRANCH   1  20
TORSDOF 9
ENDMDL
MODEL 3
REMARK VINA RESULT:      -6.7      4.237      7.299
REMARK  Name = 
REMARK  12 active torsions:
REMARK  status: ('A' for Active; 'I' for Inactive)
REMARK    1  A    between atoms: C_1  and  C_2
REMARK    2  A    between atoms: C_2  and  O_3
REMARK    3  A    between atoms: O_3  and  P_4
REMARK    4  A    between atoms: P_4  and  O_6
REMARK    5  A    between atoms: P_4  and  C_9
REMARK    6  A    between atoms: O_6  and  C_7
REMARK    7  A    between atoms: C_7  and  C_8
REMARK    8  A    between atoms: C_9  and  C_10
REMARK    9  A    between atoms: C_9  and  C_21
REMARK   10  A    between atoms: C_10  and  C_11
REMARK   11  A    between atoms: C_14  and  C_15
REMARK   12  A    between atoms: C_29  and  C_30
REMARK                            x       y       z     vdW  Elec       q    Type
REMARK                         _______ _______ _______ _____ _____    ______ ____
ROOT
ATOM      1  C   UNL     1       0.397  11.465  19.150  0.00  0.00    +0.000 C 
ENDROOT
BRANCH   1   2
ATOM      2  C   UNL     1      -1.144  11.667  19.084  0.00  0.00    +0.000 A 
ATOM      3  S   UNL     1      -1.935  11.045  17.673  0.00  0.00    +0.000 S 
ATOM      4  C   UNL     1      -3.503  11.478  18.217  0.00  0.00    +0.000 A 
ATOM      5  C   UNL     1      -4.739  11.194  17.597  0.00  0.00    +0.000 A 
ATOM      6  C   UNL     1      -5.911  11.744  18.125  0.00  0.00    +0.000 A 
ATOM      7  C   UNL     1      -5.856  12.572  19.234  0.00  0.00    +0.000 A 
ATOM      8  C   UNL     1      -4.639  12.779  19.889  0.00  0.00    +0.000 A 
ATOM      9  C   UNL     1      -3.433  12.194  19.407  0.00  0.00    +0.000 A 
ATOM     10  C   UNL     1      -2.108  12.088  20.009  0.00  0.00    +0.000 A 
ATOM     11  C   UNL     1      -1.926  12.334  21.479  0.00  0.00    +0.000 C 
ENDBRANCH   1   2
BRANCH   1  12
ATOM     12  P   UNL     1       1.493  12.918  19.345  0.00  0.00    +0.000 P 
ATOM     13  O   UNL     1       1.513  12.712  20.862  0.00  0.00    +0.000 OA
BRANCH  12  14
ATOM     14  O   UNL     1       2.529  14.291  19.530  0.00  0.00    +0.000 OA
BRANCH  14  16
ATOM     15  C   UNL     1       3.449  15.417  17.672  0.00  0.00    +0.000 C 
ATOM     16  C   UNL     1       3.715  14.388  18.757  0.00  0.00    +0.000 C 
ENDBRANCH  14  16
ENDBRANCH  12  14
BRANCH  12  17
ATOM     17  O   UNL     1       0.252  13.932  18.922  0.00  0.00    +0.000 OA
BRANCH  17  18
ATOM     18  C   UNL     1       0.154  15.188  19.586  0.00  0.00    +0.000 C 
ATOM     19  C   UNL     1      -0.305  16.251  18.605  0.00  0.00    +0.000 C 
ENDBRANCH  17  18
ENDBRANCH  12  17
ENDBRANCH   1  12
BRANCH   1  20
ATOM     20  C   UNL     1       0.713  10.394  20.216  0.00  0.00    +0.000 C 
BRANCH  20  21
ATOM     21  C   UNL     1       1.369   9.165  19.636  0.00  0.00    +0.000 A 
ATOM     22  C   UNL     1       1.618   8.048  20.443  0.00  0.00    +0.000 A 
ATOM     23  C   UNL     1       2.220   6.907  19.907  0.00  0.00    +0.000 A 
ATOM     24  C   UNL     1       2.590   6.862  18.555  0.00  0.00    +0.000 A 
ATOM     25  C   UNL     1       2.333   7.984  17.751  0.00  0.00    +0.000 A 
ATOM     26  C   UNL     1       1.723   9.120  18.284  0.00  0.00    +0.000 A 
BRANCH  24  27
ATOM     27  C   UNL     1       3.248   5.650  17.955  0.00  0.00    +0.000 C 
ATOM     28  F   UNL     1       4.072   5.946  16.911  0.00  0.00    +0.000 F 
ATOM     29  F   UNL     1       4.014   4.972  18.854  0.00  0.00    +0.000 F 
ATOM     30  F   UNL     1       2.346   4.750  17.477  0.00  0.00    +0.000 F 
ENDBRANCH  24  27
ENDBRANCH  20  21
ENDBRANCH   1  20
TORSDOF 9
ENDMDL
MODEL 4
REMARK VINA RESULT:      -6.6      6.396     10.184
REMARK  Name = 
REMARK  12 active torsions:
REMARK  status: ('A' for Active; 'I' for Inactive)
REMARK    1  A    between atoms: C_1  and  C_2
REMARK    2  A    between atoms: C_2  and  O_3
REMARK    3  A    between atoms: O_3  and  P_4
REMARK    4  A    between atoms: P_4  and  O_6
REMARK    5  A    between atoms: P_4  and  C_9
REMARK    6  A    between atoms: O_6  and  C_7
REMARK    7  A    between atoms: C_7  and  C_8
REMARK    8  A    between atoms: C_9  and  C_10
REMARK    9  A    between atoms: C_9  and  C_21
REMARK   10  A    between atoms: C_10  and  C_11
REMARK   11  A    between atoms: C_14  and  C_15
REMARK   12  A    between atoms: C_29  and  C_30
REMARK                            x       y       z     vdW  Elec       q    Type
REMARK                         _______ _______ _______ _____ _____    ______ ____
ROOT
ATOM      1  C   UNL     1       3.007   6.008  19.542  0.00  0.00    +0.000 C 
ENDROOT
BRANCH   1   2
ATOM      2  C   UNL     1       2.140   7.296  19.639  0.00  0.00    +0.000 A 
ATOM      3  S   UNL     1       1.443   7.631  21.189  0.00  0.00    +0.000 S 
ATOM      4  C   UNL     1       0.739   9.110  20.685  0.00  0.00    +0.000 A 
ATOM      5  C   UNL     1       0.043  10.048  21.477  0.00  0.00    +0.000 A 
ATOM      6  C   UNL     1      -0.575  11.140  20.860  0.00  0.00    +0.000 A 
ATOM      7  C   UNL     1      -0.520  11.288  19.485  0.00  0.00    +0.000 A 
ATOM      8  C   UNL     1       0.241  10.401  18.719  0.00  0.00    +0.000 A 
ATOM      9  C   UNL     1       0.925   9.307  19.320  0.00  0.00    +0.000 A 
ATOM     10  C   UNL     1       1.925   8.387  18.787  0.00  0.00    +0.000 A 
ATOM     11  C   UNL     1       2.647   8.715  17.512  0.00  0.00    +0.000 C 
ENDBRANCH   1   2
BRANCH   1  12
ATOM     12  P   UNL     1       2.421   4.595  18.537  0.00  0.00    +0.000 P 
ATOM     13  O   UNL     1       1.564   5.539  17.690  0.00  0.00    +0.000 OA
BRANCH  12  14
ATOM     14  O   UNL     1       1.867   3.259  17.588  0.00  0.00    +0.000 OA
BRANCH  14  16
ATOM     15  C   UNL     1       3.433   1.627  18.257  0.00  0.00    +0.000 C 
ATOM     16  C   UNL     1       1.956   1.941  18.105  0.00  0.00    +0.000 C 
ENDBRANCH  14  16
ENDBRANCH  12  14
BRANCH  12  17
ATOM     17  O   UNL     1       1.543   4.024  19.822  0.00  0.00    +0.000 OA
BRANCH  17  18
ATOM     18  C   UNL     1       2.200   3.885  21.078  0.00  0.00    +0.000 C 
ATOM     19  C   UNL     1       1.673   2.660  21.799  0.00  0.00    +0.000 C 
ENDBRANCH  17  18
ENDBRANCH  12  17
ENDBRANCH   1  12
BRANCH   1  20
ATOM     20  C   UNL     1       4.444   6.406  19.140  0.00  0.00    +0.000 C 
BRANCH  20  21
ATOM     21  C   UNL     1       4.857   5.841  17.803  0.00  0.00    +0.000 A 
ATOM     22  C   UNL     1       5.329   4.526  17.704  0.00  0.00    +0.000 A 
ATOM     23  C   UNL     1       5.706   3.999  16.467  0.00  0.00    +0.000 A 
ATOM     24  C   UNL     1       5.623   4.778  15.304  0.00  0.00    +0.000 A 
ATOM     25  C   UNL     1       5.144   6.094  15.408  0.00  0.00    +0.000 A 
ATOM     26  C   UNL     1       4.758   6.617  16.643  0.00  0.00    +0.000 A 
BRANCH  24  27
ATOM     27  C   UNL     1       6.031   4.239  13.960  0.00  0.00    +0.000 C 
ATOM     28  F   UNL     1       7.009   4.973  13.359  0.00  0.00    +0.000 F 
ATOM     29  F   UNL     1       6.510   2.966  14.031  0.00  0.00    +0.000 F 
ATOM     30  F   UNL     1       4.996   4.201  13.078  0.00  0.00    +0.000 F 
ENDBRANCH  24  27
ENDBRANCH  20  21
ENDBRANCH   1  20
TORSDOF 9
ENDMDL
MODEL 5
REMARK VINA RESULT:      -6.6      4.180      7.366
REMARK  Name = 
REMARK  12 active torsions:
REMARK  status: ('A' for Active; 'I' for Inactive)
REMARK    1  A    between atoms: C_1  and  C_2
REMARK    2  A    between atoms: C_2  and  O_3
REMARK    3  A    between atoms: O_3  and  P_4
REMARK    4  A    between atoms: P_4  and  O_6
REMARK    5  A    between atoms: P_4  and  C_9
REMARK    6  A    between atoms: O_6  and  C_7
REMARK    7  A    between atoms: C_7  and  C_8
REMARK    8  A    between atoms: C_9  and  C_10
REMARK    9  A    between atoms: C_9  and  C_21
REMARK   10  A    between atoms: C_10  and  C_11
REMARK   11  A    between atoms: C_14  and  C_15
REMARK   12  A    between atoms: C_29  and  C_30
REMARK                            x       y       z     vdW  Elec       q    Type
REMARK                         _______ _______ _______ _____ _____    ______ ____
ROOT
ATOM      1  C   UNL     1      -0.457  12.136  19.274  0.00  0.00    +0.000 C 
ENDROOT
BRANCH   1   2
ATOM      2  C   UNL     1      -1.996  11.989  19.107  0.00  0.00    +0.000 A 
ATOM      3  S   UNL     1      -2.972  12.755  20.317  0.00  0.00    +0.000 S 
ATOM      4  C   UNL     1      -4.451  12.326  19.566  0.00  0.00    +0.000 A 
ATOM      5  C   UNL     1      -5.756  12.699  19.953  0.00  0.00    +0.000 A 
ATOM      6  C   UNL     1      -6.853  12.143  19.289  0.00  0.00    +0.000 A 
ATOM      7  C   UNL     1      -6.661  11.220  18.275  0.00  0.00    +0.000 A 
ATOM      8  C   UNL     1      -5.366  10.920  17.843  0.00  0.00    +0.000 A 
ATOM      9  C   UNL     1      -4.227  11.507  18.463  0.00  0.00    +0.000 A 
ATOM     10  C   UNL     1      -2.820  11.519  18.076  0.00  0.00    +0.000 A 
ATOM     11  C   UNL     1      -2.420  11.142  16.679  0.00  0.00    +0.000 C 
ENDBRANCH   1   2
BRANCH   1  12
ATOM     12  P   UNL     1       0.273  13.796  19.525  0.00  0.00    +0.000 P 
ATOM     13  O   UNL     1      -0.562  14.350  18.367  0.00  0.00    +0.000 OA
BRANCH  12  14
ATOM     14  O   UNL     1       0.962  15.365  19.762  0.00  0.00    +0.000 OA
BRANCH  14  16
ATOM     15  C   UNL     1       1.628  17.275  18.547  0.00  0.00    +0.000 C 
ATOM     16  C   UNL     1       0.439  16.479  19.056  0.00  0.00    +0.000 C 
ENDBRANCH  14  16
ENDBRANCH  12  14
BRANCH  12  17
ATOM     17  O   UNL     1       1.737  13.255  18.967  0.00  0.00    +0.000 OA
BRANCH  17  18
ATOM     18  C   UNL     1       2.919  13.825  19.520  0.00  0.00    +0.000 C 
ATOM     19  C   UNL     1       3.878  14.198  18.404  0.00  0.00    +0.000 C 
ENDBRANCH  17  18
ENDBRANCH  12  17
ENDBRANCH   1  12
BRANCH   1  20
ATOM     20  C   UNL     1       0.020  11.158  20.370  0.00  0.00    +0.000 C 
BRANCH  20  21
ATOM     21  C   UNL     1       0.786   9.983  19.813  0.00  0.00    +0.000 A 
ATOM     22  C   UNL     1       1.136   8.909  20.642  0.00  0.00    +0.000 A 
ATOM     23  C   UNL     1       1.840   7.818  20.127  0.00  0.00    +0.000 A 
ATOM     24  C   UNL     1       2.212   7.780  18.776  0.00  0.00    +0.000 A 
ATOM     25  C   UNL     1       1.854   8.857  17.950  0.00  0.00    +0.000 A 
ATOM     26  C   UNL     1       1.142   9.943  18.461  0.00  0.00    +0.000 A 
BRANCH  24  27
ATOM     27  C   UNL     1       2.978   6.621  18.199  0.00  0.00    +0.000 C 
ATOM     28  F   UNL     1       2.176   5.614  17.752  0.00  0.00    +0.000 F 
ATOM     29  F   UNL     1       3.751   6.982  17.137  0.00  0.00    +0.000 F 
ATOM     30  F   UNL     1       3.824   6.055  19.102  0.00  0.00    +0.000 F 
ENDBRANCH  24  27
ENDBRANCH  20  21
ENDBRANCH   1  20
TORSDOF 9
ENDMDL
MODEL 6
REMARK VINA RESULT:      -6.5      4.127      7.193
REMARK  Name = 
REMARK  12 active torsions:
REMARK  status: ('A' for Active; 'I' for Inactive)
REMARK    1  A    between atoms: C_1  and  C_2
REMARK    2  A    between atoms: C_2  and  O_3
REMARK    3  A    between atoms: O_3  and  P_4
REMARK    4  A    between atoms: P_4  and  O_6
REMARK    5  A    between atoms: P_4  and  C_9
REMARK    6  A    between atoms: O_6  and  C_7
REMARK    7  A    between atoms: C_7  and  C_8
REMARK    8  A    between atoms: C_9  and  C_10
REMARK    9  A    between atoms: C_9  and  C_21
REMARK   10  A    between atoms: C_10  and  C_11
REMARK   11  A    between atoms: C_14  and  C_15
REMARK   12  A    between atoms: C_29  and  C_30
REMARK                            x       y       z     vdW  Elec       q    Type
REMARK                         _______ _______ _______ _____ _____    ______ ____
ROOT
ATOM      1  C   UNL     1       0.105  11.654  19.365  0.00  0.00    +0.000 C 
ENDROOT
BRANCH   1   2
ATOM      2  C   UNL     1      -1.431  11.801  19.173  0.00  0.00    +0.000 A 
ATOM      3  S   UNL     1      -2.079  11.181  17.691  0.00  0.00    +0.000 S 
ATOM      4  C   UNL     1      -3.701  11.545  18.108  0.00  0.00    +0.000 A 
ATOM      5  C   UNL     1      -4.869  11.231  17.382  0.00  0.00    +0.000 A 
ATOM      6  C   UNL     1      -6.101  11.727  17.820  0.00  0.00    +0.000 A 
ATOM      7  C   UNL     1      -6.170  12.534  18.943  0.00  0.00    +0.000 A 
ATOM      8  C   UNL     1      -5.020  12.771  19.701  0.00  0.00    +0.000 A 
ATOM      9  C   UNL     1      -3.758  12.239  19.313  0.00  0.00    +0.000 A 
ATOM     10  C   UNL     1      -2.484  12.169  20.022  0.00  0.00    +0.000 A 
ATOM     11  C   UNL     1      -2.435  12.391  21.506  0.00  0.00    +0.000 C 
ENDBRANCH   1   2
BRANCH   1  12
ATOM     12  P   UNL     1       1.112  13.125  19.778  0.00  0.00    +0.000 P 
ATOM     13  O   UNL     1       0.903  12.862  21.271  0.00  0.00    +0.000 OA
BRANCH  12  14
ATOM     14  O   UNL     1       2.063  14.516  20.168  0.00  0.00    +0.000 OA
BRANCH  14  16
ATOM     15  C   UNL     1       3.425  14.043  18.300  0.00  0.00    +0.000 C 
ATOM     16  C   UNL     1       3.404  14.604  19.711  0.00  0.00    +0.000 C 
ENDBRANCH  14  16
ENDBRANCH  12  14
BRANCH  12  17
ATOM     17  O   UNL     1      -0.079  14.123  19.201  0.00  0.00    +0.000 OA
BRANCH  17  18
ATOM     18  C   UNL     1      -0.105  15.472  19.655  0.00  0.00    +0.000 C 
ATOM     19  C   UNL     1      -1.428  15.758  20.340  0.00  0.00    +0.000 C 
ENDBRANCH  17  18
ENDBRANCH  12  17
ENDBRANCH   1  12
BRANCH   1  20
ATOM     20  C   UNL     1       0.374  10.509  20.366  0.00  0.00    +0.000 C 
BRANCH  20  21
ATOM     21  C   UNL     1       1.124   9.354  19.748  0.00  0.00    +0.000 A 
ATOM     22  C   UNL     1       1.485   9.386  18.395  0.00  0.00    +0.000 A 
ATOM     23  C   UNL     1       2.185   8.321  17.824  0.00  0.00    +0.000 A 
ATOM     24  C   UNL     1       2.534   7.201  18.592  0.00  0.00    +0.000 A 
ATOM     25  C   UNL     1       2.174   7.177  19.948  0.00  0.00    +0.000 A 
ATOM     26  C   UNL     1       1.483   8.245  20.522  0.00  0.00    +0.000 A 
BRANCH  24  27
ATOM     27  C   UNL     1       3.280   6.037  17.998  0.00  0.00    +0.000 C 
ATOM     28  F   UNL     1       2.460   5.045  17.549  0.00  0.00    +0.000 F 
ATOM     29  F   UNL     1       4.049   6.396  16.934  0.00  0.00    +0.000 F 
ATOM     30  F   UNL     1       4.124   5.450  18.890  0.00  0.00    +0.000 F 
ENDBRANCH  24  27
ENDBRANCH  20  21
ENDBRANCH   1  20
TORSDOF 9
ENDMDL
MODEL 7
REMARK VINA RESULT:      -6.5      2.834      3.832
REMARK  Name = 
REMARK  12 active torsions:
REMARK  status: ('A' for Active; 'I' for Inactive)
REMARK    1  A    between atoms: C_1  and  C_2
REMARK    2  A    between atoms: C_2  and  O_3
REMARK    3  A    between atoms: O_3  and  P_4
REMARK    4  A    between atoms: P_4  and  O_6
REMARK    5  A    between atoms: P_4  and  C_9
REMARK    6  A    between atoms: O_6  and  C_7
REMARK    7  A    between atoms: C_7  and  C_8
REMARK    8  A    between atoms: C_9  and  C_10
REMARK    9  A    between atoms: C_9  and  C_21
REMARK   10  A    between atoms: C_10  and  C_11
REMARK   11  A    between atoms: C_14  and  C_15
REMARK   12  A    between atoms: C_29  and  C_30
REMARK                            x       y       z     vdW  Elec       q    Type
REMARK                         _______ _______ _______ _____ _____    ______ ____
ROOT
ATOM      1  C   UNL     1       0.553  11.518  19.889  0.00  0.00    +0.000 C 
ENDROOT
BRANCH   1   2
ATOM      2  C   UNL     1       1.054  10.049  19.776  0.00  0.00    +0.000 A 
ATOM      3  S   UNL     1       1.728   9.589  18.249  0.00  0.00    +0.000 S 
ATOM      4  C   UNL     1       2.135   8.008  18.771  0.00  0.00    +0.000 A 
ATOM      5  C   UNL     1       2.837   7.016  18.053  0.00  0.00    +0.000 A 
ATOM      6  C   UNL     1       2.963   5.735  18.599  0.00  0.00    +0.000 A 
ATOM      7  C   UNL     1       2.387   5.438  19.822  0.00  0.00    +0.000 A 
ATOM      8  C   UNL     1       1.766   6.448  20.563  0.00  0.00    +0.000 A 
ATOM      9  C   UNL     1       1.665   7.776  20.060  0.00  0.00    +0.000 A 
ATOM     10  C   UNL     1       1.262   9.021  20.705  0.00  0.00    +0.000 A 
ATOM     11  C   UNL     1       1.200   9.108  22.203  0.00  0.00    +0.000 C 
ENDBRANCH   1   2
BRANCH   1  12
ATOM     12  P   UNL     1       1.422  12.844  18.977  0.00  0.00    +0.000 P 
ATOM     13  O   UNL     1       2.335  13.089  20.181  0.00  0.00    +0.000 OA
BRANCH  12  14
ATOM     14  O   UNL     1       2.244  14.098  18.114  0.00  0.00    +0.000 OA
BRANCH  14  16
ATOM     15  C   UNL     1       3.840  15.826  18.306  0.00  0.00    +0.000 C 
ATOM     16  C   UNL     1       3.626  14.323  18.344  0.00  0.00    +0.000 C 
ENDBRANCH  14  16
ENDBRANCH  12  14
BRANCH  12  17
ATOM     17  O   UNL     1       0.080  13.812  19.070  0.00  0.00    +0.000 OA
BRANCH  17  18
ATOM     18  C   UNL     1       0.213  15.089  19.686  0.00  0.00    +0.000 C 
ATOM     19  C   UNL     1      -1.161  15.672  19.959  0.00  0.00    +0.000 C 
ENDBRANCH  17  18
ENDBRANCH  12  17
ENDBRANCH   1  12
BRANCH   1  20
ATOM     20  C   UNL     1      -0.962  11.550  19.591  0.00  0.00    +0.000 C 
BRANCH  20  21
ATOM     21  C   UNL     1      -1.789  11.937  20.793  0.00  0.00    +0.000 A 
ATOM     22  C   UNL     1      -3.048  12.526  20.626  0.00  0.00    +0.000 A 
ATOM     23  C   UNL     1      -3.818  12.879  21.737  0.00  0.00    +0.000 A 
ATOM     24  C   UNL     1      -3.341  12.654  23.036  0.00  0.00    +0.000 A 
ATOM     25  C   UNL     1      -2.081  12.058  23.197  0.00  0.00    +0.000 A 
ATOM     26  C   UNL     1      -1.316  11.697  22.087  0.00  0.00    +0.000 A 
BRANCH  24  27
ATOM     27  C   UNL     1      -4.146  13.033  24.250  0.00  0.00    +0.000 C 
ATOM     28  F   UNL     1      -4.568  11.958  24.974  0.00  0.00    +0.000 F 
ATOM     29  F   UNL     1      -3.446  13.816  25.117  0.00  0.00    +0.000 F 
ATOM     30  F   UNL     1      -5.268  13.735  23.933  0.00  0.00    +0.000 F 
ENDBRANCH  24  27
ENDBRANCH  20  21
ENDBRANCH   1  20
TORSDOF 9
ENDMDL
MODEL 8
REMARK VINA RESULT:      -6.5      1.042      1.393
REMARK  Name = 
REMARK  12 active torsions:
REMARK  status: ('A' for Active; 'I' for Inactive)
REMARK    1  A    between atoms: C_1  and  C_2
REMARK    2  A    between atoms: C_2  and  O_3
REMARK    3  A    between atoms: O_3  and  P_4
REMARK    4  A    between atoms: P_4  and  O_6
REMARK    5  A    between atoms: P_4  and  C_9
REMARK    6  A    between atoms: O_6  and  C_7
REMARK    7  A    between atoms: C_7  and  C_8
REMARK    8  A    between atoms: C_9  and  C_10
REMARK    9  A    between atoms: C_9  and  C_21
REMARK   10  A    between atoms: C_10  and  C_11
REMARK   11  A    between atoms: C_14  and  C_15
REMARK   12  A    between atoms: C_29  and  C_30
REMARK                            x       y       z     vdW  Elec       q    Type
REMARK                         _______ _______ _______ _____ _____    ______ ____
ROOT
ATOM      1  C   UNL     1      -0.122  11.003  19.691  0.00  0.00    +0.000 C 
ENDROOT
BRANCH   1   2
ATOM      2  C   UNL     1       0.761   9.740  19.475  0.00  0.00    +0.000 A 
ATOM      3  S   UNL     1       1.665   9.685  17.999  0.00  0.00    +0.000 S 
ATOM      4  C   UNL     1       2.432   8.201  18.385  0.00  0.00    +0.000 A 
ATOM      5  C   UNL     1       3.433   7.531  17.650  0.00  0.00    +0.000 A 
ATOM      6  C   UNL     1       3.847   6.260  18.059  0.00  0.00    +0.000 A 
ATOM      7  C   UNL     1       3.266   5.658  19.163  0.00  0.00    +0.000 A 
ATOM      8  C   UNL     1       2.336   6.363  19.932  0.00  0.00    +0.000 A 
ATOM      9  C   UNL     1       1.929   7.679  19.573  0.00  0.00    +0.000 A 
ATOM     10  C   UNL     1       1.153   8.678  20.301  0.00  0.00    +0.000 A 
ATOM     11  C   UNL     1       0.939   8.535  21.780  0.00  0.00    +0.000 C 
ENDBRANCH   1   2
BRANCH   1  12
ATOM     12  P   UNL     1       0.602  12.491  20.473  0.00  0.00    +0.000 P 
ATOM     13  O   UNL     1       1.676  11.630  21.143  0.00  0.00    +0.000 OA
BRANCH  12  14
ATOM     14  O   UNL     1       1.286  13.898  21.212  0.00  0.00    +0.000 OA
BRANCH  14  16
ATOM     15  C   UNL     1       0.756  14.877  19.132  0.00  0.00    +0.000 C 
ATOM     16  C   UNL     1       1.186  15.155  20.561  0.00  0.00    +0.000 C 
ENDBRANCH  14  16
ENDBRANCH  12  14
BRANCH  12  17
ATOM     17  O   UNL     1      -0.719  12.633  21.465  0.00  0.00    +0.000 OA
BRANCH  17  18
ATOM     18  C   UNL     1      -1.153  11.478  22.176  0.00  0.00    +0.000 C 
ATOM     19  C   UNL     1      -2.239  11.863  23.163  0.00  0.00    +0.000 C 
ENDBRANCH  17  18
ENDBRANCH  12  17
ENDBRANCH   1  12
BRANCH   1  20
ATOM     20  C   UNL     1      -0.807  11.364  18.355  0.00  0.00    +0.000 C 
BRANCH  20  21
ATOM     21  C   UNL     1      -2.312  11.283  18.427  0.00  0.00    +0.000 A 
ATOM     22  C   UNL     1      -3.038  12.227  19.165  0.00  0.00    +0.000 A 
ATOM     23  C   UNL     1      -4.432  12.157  19.227  0.00  0.00    +0.000 A 
ATOM     24  C   UNL     1      -5.127  11.140  18.558  0.00  0.00    +0.000 A 
ATOM     25  C   UNL     1      -4.394  10.201  17.816  0.00  0.00    +0.000 A 
ATOM     26  C   UNL     1      -3.003  10.276  17.745  0.00  0.00    +0.000 A 
BRANCH  24  27
ATOM     27  C   UNL     1      -6.627  11.037  18.616  0.00  0.00    +0.000 C 
ATOM     28  F   UNL     1      -7.082   9.756  18.532  0.00  0.00    +0.000 F 
ATOM     29  F   UNL     1      -7.140  11.540  19.773  0.00  0.00    +0.000 F 
ATOM     30  F   UNL     1      -7.235  11.719  17.608  0.00  0.00    +0.000 F 
ENDBRANCH  24  27
ENDBRANCH  20  21
ENDBRANCH   1  20
TORSDOF 9
ENDMDL
MODEL 9
REMARK VINA RESULT:      -6.5      3.953      7.215
REMARK  Name = 
REMARK  12 active torsions:
REMARK  status: ('A' for Active; 'I' for Inactive)
REMARK    1  A    between atoms: C_1  and  C_2
REMARK    2  A    between atoms: C_2  and  O_3
REMARK    3  A    between atoms: O_3  and  P_4
REMARK    4  A    between atoms: P_4  and  O_6
REMARK    5  A    between atoms: P_4  and  C_9
REMARK    6  A    between atoms: O_6  and  C_7
REMARK    7  A    between atoms: C_7  and  C_8
REMARK    8  A    between atoms: C_9  and  C_10
REMARK    9  A    between atoms: C_9  and  C_21
REMARK   10  A    between atoms: C_10  and  C_11
REMARK   11  A    between atoms: C_14  and  C_15
REMARK   12  A    between atoms: C_29  and  C_30
REMARK                            x       y       z     vdW  Elec       q    Type
REMARK                         _______ _______ _______ _____ _____    ______ ____
ROOT
ATOM      1  C   UNL     1      -0.675  12.101  19.699  0.00  0.00    +0.000 C 
ENDROOT
BRANCH   1   2
ATOM      2  C   UNL     1      -2.197  12.005  19.396  0.00  0.00    +0.000 A 
ATOM      3  S   UNL     1      -3.250  12.802  20.518  0.00  0.00    +0.000 S 
ATOM      4  C   UNL     1      -4.671  12.423  19.637  0.00  0.00    +0.000 A 
ATOM      5  C   UNL     1      -5.991  12.840  19.909  0.00  0.00    +0.000 A 
ATOM      6  C   UNL     1      -7.043  12.320  19.149  0.00  0.00    +0.000 A 
ATOM      7  C   UNL     1      -6.793  11.391  18.153  0.00  0.00    +0.000 A 
ATOM      8  C   UNL     1      -5.475  11.048  17.836  0.00  0.00    +0.000 A 
ATOM      9  C   UNL     1      -4.377  11.597  18.556  0.00  0.00    +0.000 A 
ATOM     10  C   UNL     1      -2.941  11.562  18.295  0.00  0.00    +0.000 A 
ATOM     11  C   UNL     1      -2.432  11.172  16.938  0.00  0.00    +0.000 C 
ENDBRANCH   1   2
BRANCH   1  12
ATOM     12  P   UNL     1       0.046  13.700  20.220  0.00  0.00    +0.000 P 
ATOM     13  O   UNL     1      -0.301  14.312  18.861  0.00  0.00    +0.000 OA
BRANCH  12  14
ATOM     14  O   UNL     1       0.728  15.212  20.713  0.00  0.00    +0.000 OA
BRANCH  14  16
ATOM     15  C   UNL     1       1.723  16.273  22.571  0.00  0.00    +0.000 C 
ATOM     16  C   UNL     1       0.423  15.738  21.994  0.00  0.00    +0.000 C 
ENDBRANCH  14  16
ENDBRANCH  12  14
BRANCH  12  17
ATOM     17  O   UNL     1       1.569  13.046  20.180  0.00  0.00    +0.000 OA
BRANCH  17  18
ATOM     18  C   UNL     1       2.607  13.795  19.556  0.00  0.00    +0.000 C 
ATOM     19  C   UNL     1       2.878  13.239  18.171  0.00  0.00    +0.000 C 
ENDBRANCH  17  18
ENDBRANCH  12  17
ENDBRANCH   1  12
BRANCH   1  20
ATOM     20  C   UNL     1      -0.294  10.980  20.691  0.00  0.00    +0.000 C 
BRANCH  20  21
ATOM     21  C   UNL     1       0.547   9.898  20.058  0.00  0.00    +0.000 A 
ATOM     22  C   UNL     1       0.902   9.976  18.706  0.00  0.00    +0.000 A 
ATOM     23  C   UNL     1       1.685   8.979  18.120  0.00  0.00    +0.000 A 
ATOM     24  C   UNL     1       2.125   7.881  18.873  0.00  0.00    +0.000 A 
ATOM     25  C   UNL     1       1.770   7.811  20.229  0.00  0.00    +0.000 A 
ATOM     26  C   UNL     1       0.996   8.812  20.817  0.00  0.00    +0.000 A 
BRANCH  24  27
ATOM     27  C   UNL     1       2.961   6.789  18.264  0.00  0.00    +0.000 C 
ATOM     28  F   UNL     1       3.843   6.234  19.142  0.00  0.00    +0.000 F 
ATOM     29  F   UNL     1       2.209   5.758  17.789  0.00  0.00    +0.000 F 
ATOM     30  F   UNL     1       3.705   7.227  17.212  0.00  0.00    +0.000 F 
ENDBRANCH  24  27
ENDBRANCH  20  21
ENDBRANCH   1  20
TORSDOF 9
ENDMDL
