MODEL 1
REMARK VINA RESULT:      -6.6      0.000      0.000
REMARK  Name = 
REMARK  13 active torsions:
REMARK  status: ('A' for Active; 'I' for Inactive)
REMARK    1  A    between atoms: C_1  and  C_2
REMARK    2  A    between atoms: C_2  and  C_3
REMARK    3  A    between atoms: C_3  and  N_4
REMARK    4  A    between atoms: N_4  and  C_5
REMARK    5  A    between atoms: N_4  and  C_22
REMARK    6  A    between atoms: C_5  and  C_6
REMARK    7  A    between atoms: C_6  and  O_7
REMARK    8  A    between atoms: C_6  and  C_8
REMARK    9  A    between atoms: C_8  and  C_9
REMARK   10  A    between atoms: C_9  and  C_10
REMARK   11  A    between atoms: C_11  and  C_13
REMARK   12  A    between atoms: C_22  and  C_23
REMARK   13  A    between atoms: C_22  and  C_24
REMARK                            x       y       z     vdW  Elec       q    Type
REMARK                         _______ _______ _______ _____ _____    ______ ____
ROOT
ATOM      1  C   UNL     1       0.965   7.417  21.137  0.00  0.00    +0.000 C 
ENDROOT
BRANCH   1   2
ATOM      2  C   UNL     1       2.053   6.944  20.211  0.00  0.00    +0.000 C 
ATOM      3  C   UNL     1       2.420   5.671  20.000  0.00  0.00    +0.000 C 
ATOM      4 CL   UNL     1       1.608   4.347  20.775  0.00  0.00    +0.000 Cl
BRANCH   3   5
ATOM      5  C   UNL     1       3.493   5.345  19.103  0.00  0.00    +0.000 A 
ATOM      6  N   UNL     1       3.367   4.947  17.836  0.00  0.00    +0.000 NA
ATOM      7  C   UNL     1       4.646   4.773  17.380  0.00  0.00    +0.000 A 
ATOM      8  C   UNL     1       5.134   4.382  16.126  0.00  0.00    +0.000 A 
ATOM      9  C   UNL     1       6.524   4.306  15.955  0.00  0.00    +0.000 A 
ATOM     10  C   UNL     1       7.402   4.603  17.007  0.00  0.00    +0.000 A 
ATOM     11  C   UNL     1       6.928   4.989  18.269  0.00  0.00    +0.000 A 
ATOM     12  C   UNL     1       5.542   5.059  18.387  0.00  0.00    +0.000 A 
ATOM     13  O   UNL     1       4.829   5.418  19.485  0.00  0.00    +0.000 OA
ENDBRANCH   3   5
ENDBRANCH   1   2
BRANCH   1  14
ATOM     14  C   UNL     1       1.330   8.750  21.810  0.00  0.00    +0.000 C 
BRANCH  14  15
ATOM     15  C   UNL     1       0.089   9.561  22.224  0.00  0.00    +0.000 C 
BRANCH  15  16
ATOM     16  O   UNL     1       0.262   9.952  23.587  0.00  0.00    +0.000 OA
ATOM     17  H   UNL     1       1.120   9.603  23.881  0.00  0.00    +0.000 HD
ENDBRANCH  15  16
BRANCH  15  18
ATOM     18  C   UNL     1      -0.110  10.801  21.297  0.00  0.00    +0.000 C 
BRANCH  18  19
ATOM     19  N   UNL     1       0.856  11.034  20.188  0.00  0.00    +0.000 NA
BRANCH  19  20
ATOM     20  C   UNL     1       0.271  10.749  18.842  0.00  0.00    +0.000 C 
ATOM     21  C   UNL     1       1.012   9.630  18.081  0.00  0.00    +0.000 C 
ATOM     22  C   UNL     1      -1.210  10.327  18.896  0.00  0.00    +0.000 C 
ENDBRANCH  19  20
BRANCH  19  23
ATOM     23  C   UNL     1       1.477  12.378  20.228  0.00  0.00    +0.000 C 
BRANCH  23  25
ATOM     24  C   UNL     1       2.777  13.464  18.304  0.00  0.00    +0.000 C 
ATOM     25  C   UNL     1       1.419  13.243  18.954  0.00  0.00    +0.000 C 
ENDBRANCH  23  25
ENDBRANCH  19  23
ENDBRANCH  18  19
ENDBRANCH  15  18
ENDBRANCH  14  15
ENDBRANCH   1  14
TORSDOF 10
ENDMDL
MODEL 2
REMARK VINA RESULT:      -6.4      2.106      8.075
REMARK  Name = 
REMARK  13 active torsions:
REMARK  status: ('A' for Active; 'I' for Inactive)
REMARK    1  A    between atoms: C_1  and  C_2
REMARK    2  A    between atoms: C_2  and  C_3
REMARK    3  A    between atoms: C_3  and  N_4
REMARK    4  A    between atoms: N_4  and  C_5
REMARK    5  A    between atoms: N_4  and  C_22
REMARK    6  A    between atoms: C_5  and  C_6
REMARK    7  A    between atoms: C_6  and  O_7
REMARK    8  A    between atoms: C_6  and  C_8
REMARK    9  A    between atoms: C_8  and  C_9
REMARK   10  A    between atoms: C_9  and  C_10
REMARK   11  A    between atoms: C_11  and  C_13
REMARK   12  A    between atoms: C_22  and  C_23
REMARK   13  A    between atoms: C_22  and  C_24
REMARK                            x       y       z     vdW  Elec       q    Type
REMARK                         _______ _______ _______ _____ _____    ______ ____
ROOT
ATOM      1  C   UNL     1       2.426   4.833  18.959  0.00  0.00    +0.000 C 
ENDROOT
BRANCH   1   2
ATOM      2  C   UNL     1       1.795   6.009  19.654  0.00  0.00    +0.000 C 
ATOM      3  C   UNL     1       1.977   7.304  19.352  0.00  0.00    +0.000 C 
ATOM      4 CL   UNL     1       2.979   7.798  18.023  0.00  0.00    +0.000 Cl
BRANCH   3   5
ATOM      5  C   UNL     1       1.333   8.342  20.106  0.00  0.00    +0.000 A 
ATOM      6  N   UNL     1       1.098   9.587  19.691  0.00  0.00    +0.000 NA
ATOM      7  C   UNL     1       0.453  10.204  20.729  0.00  0.00    +0.000 A 
ATOM      8  C   UNL     1      -0.050  11.504  20.862  0.00  0.00    +0.000 A 
ATOM      9  C   UNL     1      -0.685  11.844  22.066  0.00  0.00    +0.000 A 
ATOM     10  C   UNL     1      -0.806  10.916  23.110  0.00  0.00    +0.000 A 
ATOM     11  C   UNL     1      -0.300   9.613  22.993  0.00  0.00    +0.000 A 
ATOM     12  C   UNL     1       0.312   9.320  21.778  0.00  0.00    +0.000 A 
ATOM     13  O   UNL     1       0.867   8.140  21.402  0.00  0.00    +0.000 OA
ENDBRANCH   3   5
ENDBRANCH   1   2
BRANCH   1  14
ATOM     14  C   UNL     1       3.378   4.066  19.890  0.00  0.00    +0.000 C 
BRANCH  14  15
ATOM     15  C   UNL     1       4.786   3.901  19.288  0.00  0.00    +0.000 C 
BRANCH  15  16
ATOM     16  O   UNL     1       5.169   2.534  19.452  0.00  0.00    +0.000 OA
ATOM     17  H   UNL     1       4.614   2.161  20.156  0.00  0.00    +0.000 HD
ENDBRANCH  15  16
BRANCH  15  18
ATOM     18  C   UNL     1       4.811   4.323  17.786  0.00  0.00    +0.000 C 
BRANCH  18  19
ATOM     19  N   UNL     1       5.469   5.604  17.407  0.00  0.00    +0.000 NA
BRANCH  19  20
ATOM     20  C   UNL     1       6.812   5.774  18.043  0.00  0.00    +0.000 C 
ATOM     21  C   UNL     1       7.775   4.603  17.755  0.00  0.00    +0.000 C 
ATOM     22  C   UNL     1       7.542   7.054  17.595  0.00  0.00    +0.000 C 
ENDBRANCH  19  20
BRANCH  19  23
ATOM     23  C   UNL     1       5.540   5.814  15.943  0.00  0.00    +0.000 C 
BRANCH  23  25
ATOM     24  C   UNL     1       6.484   4.354  14.061  0.00  0.00    +0.000 C 
ATOM     25  C   UNL     1       5.331   4.596  15.024  0.00  0.00    +0.000 C 
ENDBRANCH  23  25
ENDBRANCH  19  23
ENDBRANCH  18  19
ENDBRANCH  15  18
ENDBRANCH  14  15
ENDBRANCH   1  14
TORSDOF 10
ENDMDL
MODEL 3
REMARK VINA RESULT:      -6.4      2.089      7.392
REMARK  Name = 
REMARK  13 active torsions:
REMARK  status: ('A' for Active; 'I' for Inactive)
REMARK    1  A    between atoms: C_1  and  C_2
REMARK    2  A    between atoms: C_2  and  C_3
REMARK    3  A    between atoms: C_3  and  N_4
REMARK    4  A    between atoms: N_4  and  C_5
REMARK    5  A    between atoms: N_4  and  C_22
REMARK    6  A    between atoms: C_5  and  C_6
REMARK    7  A    between atoms: C_6  and  O_7
REMARK    8  A    between atoms: C_6  and  C_8
REMARK    9  A    between atoms: C_8  and  C_9
REMARK   10  A    between atoms: C_9  and  C_10
REMARK   11  A    between atoms: C_11  and  C_13
REMARK   12  A    between atoms: C_22  and  C_23
REMARK   13  A    between atoms: C_22  and  C_24
REMARK                            x       y       z     vdW  Elec       q    Type
REMARK                         _______ _______ _______ _____ _____    ______ ____
ROOT
ATOM      1  C   UNL     1       2.987   3.732  18.164  0.00  0.00    +0.000 C 
ENDROOT
BRANCH   1   2
ATOM      2  C   UNL     1       2.588   5.161  18.416  0.00  0.00    +0.000 C 
ATOM      3  C   UNL     1       2.299   5.708  19.607  0.00  0.00    +0.000 C 
ATOM      4 CL   UNL     1       2.404   4.795  21.080  0.00  0.00    +0.000 Cl
BRANCH   3   5
ATOM      5  C   UNL     1       1.906   7.085  19.718  0.00  0.00    +0.000 A 
ATOM      6  N   UNL     1       1.421   7.680  20.808  0.00  0.00    +0.000 NA
ATOM      7  C   UNL     1       1.210   8.984  20.449  0.00  0.00    +0.000 A 
ATOM      8  C   UNL     1       0.730  10.077  21.181  0.00  0.00    +0.000 A 
ATOM      9  C   UNL     1       0.637  11.316  20.530  0.00  0.00    +0.000 A 
ATOM     10  C   UNL     1       1.005  11.458  19.185  0.00  0.00    +0.000 A 
ATOM     11  C   UNL     1       1.481  10.371  18.438  0.00  0.00    +0.000 A 
ATOM     12  C   UNL     1       1.564   9.165  19.129  0.00  0.00    +0.000 A 
ATOM     13  O   UNL     1       2.002   7.973  18.651  0.00  0.00    +0.000 OA
ENDBRANCH   3   5
ENDBRANCH   1   2
BRANCH   1  14
ATOM     14  C   UNL     1       4.325   3.638  17.414  0.00  0.00    +0.000 C 
BRANCH  14  15
ATOM     15  C   UNL     1       5.485   4.286  18.194  0.00  0.00    +0.000 C 
BRANCH  15  16
ATOM     16  O   UNL     1       5.631   3.573  19.423  0.00  0.00    +0.000 OA
ATOM     17  H   UNL     1       5.048   2.797  19.378  0.00  0.00    +0.000 HD
ENDBRANCH  15  16
BRANCH  15  18
ATOM     18  C   UNL     1       6.805   4.263  17.362  0.00  0.00    +0.000 C 
BRANCH  18  19
ATOM     19  N   UNL     1       7.188   5.474  16.584  0.00  0.00    +0.000 NA
BRANCH  19  20
ATOM     20  C   UNL     1       6.629   5.472  15.198  0.00  0.00    +0.000 C 
ATOM     21  C   UNL     1       6.430   4.054  14.623  0.00  0.00    +0.000 C 
ATOM     22  C   UNL     1       5.264   6.177  15.088  0.00  0.00    +0.000 C 
ENDBRANCH  19  20
BRANCH  19  23
ATOM     23  C   UNL     1       6.878   6.741  17.285  0.00  0.00    +0.000 C 
BRANCH  23  25
ATOM     24  C   UNL     1       8.177   8.845  17.955  0.00  0.00    +0.000 C 
ATOM     25  C   UNL     1       7.963   7.357  18.187  0.00  0.00    +0.000 C 
ENDBRANCH  23  25
ENDBRANCH  19  23
ENDBRANCH  18  19
ENDBRANCH  15  18
ENDBRANCH  14  15
ENDBRANCH   1  14
TORSDOF 10
ENDMDL
MODEL 4
REMARK VINA RESULT:      -6.4      2.494      7.964
REMARK  Name = 
REMARK  13 active torsions:
REMARK  status: ('A' for Active; 'I' for Inactive)
REMARK    1  A    between atoms: C_1  and  C_2
REMARK    2  A    between atoms: C_2  and  C_3
REMARK    3  A    between atoms: C_3  and  N_4
REMARK    4  A    between atoms: N_4  and  C_5
REMARK    5  A    between atoms: N_4  and  C_22
REMARK    6  A    between atoms: C_5  and  C_6
REMARK    7  A    between atoms: C_6  and  O_7
REMARK    8  A    between atoms: C_6  and  C_8
REMARK    9  A    between atoms: C_8  and  C_9
REMARK   10  A    between atoms: C_9  and  C_10
REMARK   11  A    between atoms: C_11  and  C_13
REMARK   12  A    between atoms: C_22  and  C_23
REMARK   13  A    between atoms: C_22  and  C_24
REMARK                            x       y       z     vdW  Elec       q    Type
REMARK                         _______ _______ _______ _____ _____    ______ ____
ROOT
ATOM      1  C   UNL     1       2.853   5.240  17.859  0.00  0.00    +0.000 C 
ENDROOT
BRANCH   1   2
ATOM      2  C   UNL     1       2.120   6.159  18.799  0.00  0.00    +0.000 C 
ATOM      3  C   UNL     1       2.196   7.499  18.822  0.00  0.00    +0.000 C 
ATOM      4 CL   UNL     1       3.162   8.378  17.678  0.00  0.00    +0.000 Cl
BRANCH   3   5
ATOM      5  C   UNL     1       1.463   8.269  19.787  0.00  0.00    +0.000 A 
ATOM      6  N   UNL     1       1.266   7.947  21.065  0.00  0.00    +0.000 NA
ATOM      7  C   UNL     1       0.536   8.978  21.594  0.00  0.00    +0.000 A 
ATOM      8  C   UNL     1       0.050   9.197  22.889  0.00  0.00    +0.000 A 
ATOM      9  C   UNL     1      -0.667  10.378  23.132  0.00  0.00    +0.000 A 
ATOM     10  C   UNL     1      -0.901  11.309  22.110  0.00  0.00    +0.000 A 
ATOM     11  C   UNL     1      -0.426  11.099  20.807  0.00  0.00    +0.000 A 
ATOM     12  C   UNL     1       0.287   9.919  20.617  0.00  0.00    +0.000 A 
ATOM     13  O   UNL     1       0.863   9.484  19.467  0.00  0.00    +0.000 OA
ENDBRANCH   3   5
ENDBRANCH   1   2
BRANCH   1  14
ATOM     14  C   UNL     1       3.404   4.004  18.585  0.00  0.00    +0.000 C 
BRANCH  14  15
ATOM     15  C   UNL     1       4.941   4.012  18.680  0.00  0.00    +0.000 C 
BRANCH  15  16
ATOM     16  O   UNL     1       5.329   2.916  19.511  0.00  0.00    +0.000 OA
ATOM     17  H   UNL     1       5.565   3.283  20.380  0.00  0.00    +0.000 HD
ENDBRANCH  15  16
BRANCH  15  18
ATOM     18  C   UNL     1       5.594   3.912  17.266  0.00  0.00    +0.000 C 
BRANCH  18  19
ATOM     19  N   UNL     1       6.440   5.036  16.781  0.00  0.00    +0.000 NA
BRANCH  19  20
ATOM     20  C   UNL     1       6.124   5.435  15.375  0.00  0.00    +0.000 C 
ATOM     21  C   UNL     1       5.503   4.293  14.544  0.00  0.00    +0.000 C 
ATOM     22  C   UNL     1       5.143   6.619  15.282  0.00  0.00    +0.000 C 
ENDBRANCH  19  20
BRANCH  19  23
ATOM     23  C   UNL     1       6.428   6.209  17.685  0.00  0.00    +0.000 C 
BRANCH  23  25
ATOM     24  C   UNL     1       8.039   5.706  19.614  0.00  0.00    +0.000 C 
ATOM     25  C   UNL     1       7.737   6.582  18.407  0.00  0.00    +0.000 C 
ENDBRANCH  23  25
ENDBRANCH  19  23
ENDBRANCH  18  19
ENDBRANCH  15  18
ENDBRANCH  14  15
ENDBRANCH   1  14
TORSDOF 10
ENDMDL
MODEL 5
REMARK VINA RESULT:      -6.4      5.499      7.624
REMARK  Name = 
REMARK  13 active torsions:
REMARK  status: ('A' for Active; 'I' for Inactive)
REMARK    1  A    between atoms: C_1  and  C_2
REMARK    2  A    between atoms: C_2  and  C_3
REMARK    3  A    between atoms: C_3  and  N_4
REMARK    4  A    between atoms: N_4  and  C_5
REMARK    5  A    between atoms: N_4  and  C_22
REMARK    6  A    between atoms: C_5  and  C_6
REMARK    7  A    between atoms: C_6  and  O_7
REMARK    8  A    between atoms: C_6  and  C_8
REMARK    9  A    between atoms: C_8  and  C_9
REMARK   10  A    between atoms: C_9  and  C_10
REMARK   11  A    between atoms: C_11  and  C_13
REMARK   12  A    between atoms: C_22  and  C_23
REMARK   13  A    between atoms: C_22  and  C_24
REMARK                            x       y       z     vdW  Elec       q    Type
REMARK                         _______ _______ _______ _____ _____    ______ ____
ROOT
ATOM      1  C   UNL     1       7.648   7.325  17.299  0.00  0.00    +0.000 C 
ENDROOT
BRANCH   1   2
ATOM      2  C   UNL     1       6.603   6.327  17.721  0.00  0.00    +0.000 C 
ATOM      3  C   UNL     1       5.483   6.016  17.049  0.00  0.00    +0.000 C 
ATOM      4 CL   UNL     1       5.113   6.731  15.511  0.00  0.00    +0.000 Cl
BRANCH   3   5
ATOM      5  C   UNL     1       4.547   5.059  17.568  0.00  0.00    +0.000 A 
ATOM      6  N   UNL     1       4.847   3.963  18.265  0.00  0.00    +0.000 NA
ATOM      7  C   UNL     1       3.645   3.376  18.558  0.00  0.00    +0.000 A 
ATOM      8  C   UNL     1       3.335   2.215  19.277  0.00  0.00    +0.000 A 
ATOM      9  C   UNL     1       1.983   1.872  19.423  0.00  0.00    +0.000 A 
ATOM     10  C   UNL     1       0.969   2.659  18.858  0.00  0.00    +0.000 A 
ATOM     11  C   UNL     1       1.266   3.820  18.130  0.00  0.00    +0.000 A 
ATOM     12  C   UNL     1       2.620   4.125  18.021  0.00  0.00    +0.000 A 
ATOM     13  O   UNL     1       3.173   5.191  17.388  0.00  0.00    +0.000 OA
ENDBRANCH   3   5
ENDBRANCH   1   2
BRANCH   1  14
ATOM     14  C   UNL     1       8.228   8.085  18.502  0.00  0.00    +0.000 C 
BRANCH  14  15
ATOM     15  C   UNL     1       8.690   9.507  18.134  0.00  0.00    +0.000 C 
BRANCH  15  16
ATOM     16  O   UNL     1       7.539  10.241  17.713  0.00  0.00    +0.000 OA
ATOM     17  H   UNL     1       6.780   9.902  18.216  0.00  0.00    +0.000 HD
ENDBRANCH  15  16
BRANCH  15  18
ATOM     18  C   UNL     1       9.397  10.200  19.340  0.00  0.00    +0.000 C 
BRANCH  18  19
ATOM     19  N   UNL     1       9.963  11.565  19.157  0.00  0.00    +0.000 NA
BRANCH  19  20
ATOM     20  C   UNL     1      10.824  11.993  20.302  0.00  0.00    +0.000 C 
ATOM     21  C   UNL     1      12.333  11.907  19.995  0.00  0.00    +0.000 C 
ATOM     22  C   UNL     1      10.558  13.440  20.760  0.00  0.00    +0.000 C 
ENDBRANCH  19  20
BRANCH  19  23
ATOM     23  C   UNL     1      10.666  11.739  17.866  0.00  0.00    +0.000 C 
BRANCH  23  25
ATOM     24  C   UNL     1      11.742  13.840  16.869  0.00  0.00    +0.000 C 
ATOM     25  C   UNL     1      10.457  13.057  17.097  0.00  0.00    +0.000 C 
ENDBRANCH  23  25
ENDBRANCH  19  23
ENDBRANCH  18  19
ENDBRANCH  15  18
ENDBRANCH  14  15
ENDBRANCH   1  14
TORSDOF 10
ENDMDL
MODEL 6
REMARK VINA RESULT:      -6.3      2.102      7.588
REMARK  Name = 
REMARK  13 active torsions:
REMARK  status: ('A' for Active; 'I' for Inactive)
REMARK    1  A    between atoms: C_1  and  C_2
REMARK    2  A    between atoms: C_2  and  C_3
REMARK    3  A    between atoms: C_3  and  N_4
REMARK    4  A    between atoms: N_4  and  C_5
REMARK    5  A    between atoms: N_4  and  C_22
REMARK    6  A    between atoms: C_5  and  C_6
REMARK    7  A    between atoms: C_6  and  O_7
REMARK    8  A    between atoms: C_6  and  C_8
REMARK    9  A    between atoms: C_8  and  C_9
REMARK   10  A    between atoms: C_9  and  C_10
REMARK   11  A    between atoms: C_11  and  C_13
REMARK   12  A    between atoms: C_22  and  C_23
REMARK   13  A    between atoms: C_22  and  C_24
REMARK                            x       y       z     vdW  Elec       q    Type
REMARK                         _______ _______ _______ _____ _____    ______ ____
ROOT
ATOM      1  C   UNL     1       2.419   3.631  18.006  0.00  0.00    +0.000 C 
ENDROOT
BRANCH   1   2
ATOM      2  C   UNL     1       2.145   5.082  18.296  0.00  0.00    +0.000 C 
ATOM      3  C   UNL     1       2.073   5.651  19.510  0.00  0.00    +0.000 C 
ATOM      4 CL   UNL     1       2.351   4.741  20.962  0.00  0.00    +0.000 Cl
BRANCH   3   5
ATOM      5  C   UNL     1       1.781   7.049  19.660  0.00  0.00    +0.000 A 
ATOM      6  N   UNL     1       1.418   7.660  20.789  0.00  0.00    +0.000 NA
ATOM      7  C   UNL     1       1.268   8.980  20.457  0.00  0.00    +0.000 A 
ATOM      8  C   UNL     1       0.916  10.092  21.232  0.00  0.00    +0.000 A 
ATOM      9  C   UNL     1       0.856  11.343  20.599  0.00  0.00    +0.000 A 
ATOM     10  C   UNL     1       1.131  11.478  19.231  0.00  0.00    +0.000 A 
ATOM     11  C   UNL     1       1.477  10.371  18.442  0.00  0.00    +0.000 A 
ATOM     12  C   UNL     1       1.533   9.154  19.115  0.00  0.00    +0.000 A 
ATOM     13  O   UNL     1       1.855   7.942  18.596  0.00  0.00    +0.000 OA
ENDBRANCH   3   5
ENDBRANCH   1   2
BRANCH   1  14
ATOM     14  C   UNL     1       3.869   3.405  17.553  0.00  0.00    +0.000 C 
BRANCH  14  15
ATOM     15  C   UNL     1       4.888   3.687  18.674  0.00  0.00    +0.000 C 
BRANCH  15  16
ATOM     16  O   UNL     1       5.089   2.468  19.392  0.00  0.00    +0.000 OA
ATOM     17  H   UNL     1       4.211   2.093  19.575  0.00  0.00    +0.000 HD
ENDBRANCH  15  16
BRANCH  15  18
ATOM     18  C   UNL     1       6.229   4.233  18.093  0.00  0.00    +0.000 C 
BRANCH  18  19
ATOM     19  N   UNL     1       6.239   5.566  17.431  0.00  0.00    +0.000 NA
BRANCH  19  20
ATOM     20  C   UNL     1       6.946   6.608  18.237  0.00  0.00    +0.000 C 
ATOM     21  C   UNL     1       8.021   6.023  19.178  0.00  0.00    +0.000 C 
ATOM     22  C   UNL     1       7.658   7.668  17.376  0.00  0.00    +0.000 C 
ENDBRANCH  19  20
BRANCH  19  23
ATOM     23  C   UNL     1       6.751   5.526  16.042  0.00  0.00    +0.000 C 
BRANCH  23  25
ATOM     24  C   UNL     1       6.060   3.975  14.122  0.00  0.00    +0.000 C 
ATOM     25  C   UNL     1       5.749   5.241  14.907  0.00  0.00    +0.000 C 
ENDBRANCH  23  25
ENDBRANCH  19  23
ENDBRANCH  18  19
ENDBRANCH  15  18
ENDBRANCH  14  15
ENDBRANCH   1  14
TORSDOF 10
ENDMDL
MODEL 7
REMARK VINA RESULT:      -6.2      5.186      7.415
REMARK  Name = 
REMARK  13 active torsions:
REMARK  status: ('A' for Active; 'I' for Inactive)
REMARK    1  A    between atoms: C_1  and  C_2
REMARK    2  A    between atoms: C_2  and  C_3
REMARK    3  A    between atoms: C_3  and  N_4
REMARK    4  A    between atoms: N_4  and  C_5
REMARK    5  A    between atoms: N_4  and  C_22
REMARK    6  A    between atoms: C_5  and  C_6
REMARK    7  A    between atoms: C_6  and  O_7
REMARK    8  A    between atoms: C_6  and  C_8
REMARK    9  A    between atoms: C_8  and  C_9
REMARK   10  A    between atoms: C_9  and  C_10
REMARK   11  A    between atoms: C_11  and  C_13
REMARK   12  A    between atoms: C_22  and  C_23
REMARK   13  A    between atoms: C_22  and  C_24
REMARK                            x       y       z     vdW  Elec       q    Type
REMARK                         _______ _______ _______ _____ _____    ______ ____
ROOT
ATOM      1  C   UNL     1       7.312   7.568  17.326  0.00  0.00    +0.000 C 
ENDROOT
BRANCH   1   2
ATOM      2  C   UNL     1       6.203   6.787  17.977  0.00  0.00    +0.000 C 
ATOM      3  C   UNL     1       5.296   6.021  17.351  0.00  0.00    +0.000 C 
ATOM      4 CL   UNL     1       5.328   5.790  15.631  0.00  0.00    +0.000 Cl
BRANCH   3   5
ATOM      5  C   UNL     1       4.266   5.340  18.083  0.00  0.00    +0.000 A 
ATOM      6  N   UNL     1       4.100   5.354  19.406  0.00  0.00    +0.000 NA
ATOM      7  C   UNL     1       2.990   4.587  19.643  0.00  0.00    +0.000 A 
ATOM      8  C   UNL     1       2.333   4.257  20.835  0.00  0.00    +0.000 A 
ATOM      9  C   UNL     1       1.190   3.447  20.755  0.00  0.00    +0.000 A 
ATOM     10  C   UNL     1       0.722   2.973  19.522  0.00  0.00    +0.000 A 
ATOM     11  C   UNL     1       1.374   3.290  18.321  0.00  0.00    +0.000 A 
ATOM     12  C   UNL     1       2.497   4.103  18.450  0.00  0.00    +0.000 A 
ATOM     13  O   UNL     1       3.294   4.566  17.455  0.00  0.00    +0.000 OA
ENDBRANCH   3   5
ENDBRANCH   1   2
BRANCH   1  14
ATOM     14  C   UNL     1       8.347   8.052  18.354  0.00  0.00    +0.000 C 
BRANCH  14  15
ATOM     15  C   UNL     1       8.714   9.536  18.167  0.00  0.00    +0.000 C 
BRANCH  15  16
ATOM     16  O   UNL     1       7.567  10.203  17.637  0.00  0.00    +0.000 OA
ATOM     17  H   UNL     1       6.843  10.081  18.273  0.00  0.00    +0.000 HD
ENDBRANCH  15  16
BRANCH  15  18
ATOM     18  C   UNL     1       9.174  10.177  19.513  0.00  0.00    +0.000 C 
BRANCH  18  19
ATOM     19  N   UNL     1      10.259  11.196  19.494  0.00  0.00    +0.000 NA
BRANCH  19  20
ATOM     20  C   UNL     1      10.394  11.872  18.167  0.00  0.00    +0.000 C 
ATOM     21  C   UNL     1       9.584  13.181  18.065  0.00  0.00    +0.000 C 
ATOM     22  C   UNL     1      11.849  12.236  17.811  0.00  0.00    +0.000 C 
ENDBRANCH  19  20
BRANCH  19  23
ATOM     23  C   UNL     1      10.152  12.186  20.590  0.00  0.00    +0.000 C 
BRANCH  23  25
ATOM     24  C   UNL     1       8.945  13.129  22.644  0.00  0.00    +0.000 C 
ATOM     25  C   UNL     1       9.034  11.997  21.632  0.00  0.00    +0.000 C 
ENDBRANCH  23  25
ENDBRANCH  19  23
ENDBRANCH  18  19
ENDBRANCH  15  18
ENDBRANCH  14  15
ENDBRANCH   1  14
TORSDOF 10
ENDMDL
MODEL 8
REMARK VINA RESULT:      -6.2      4.785      7.169
REMARK  Name = 
REMARK  13 active torsions:
REMARK  status: ('A' for Active; 'I' for Inactive)
REMARK    1  A    between atoms: C_1  and  C_2
REMARK    2  A    between atoms: C_2  and  C_3
REMARK    3  A    between atoms: C_3  and  N_4
REMARK    4  A    between atoms: N_4  and  C_5
REMARK    5  A    between atoms: N_4  and  C_22
REMARK    6  A    between atoms: C_5  and  C_6
REMARK    7  A    between atoms: C_6  and  O_7
REMARK    8  A    between atoms: C_6  and  C_8
REMARK    9  A    between atoms: C_8  and  C_9
REMARK   10  A    between atoms: C_9  and  C_10
REMARK   11  A    between atoms: C_11  and  C_13
REMARK   12  A    between atoms: C_22  and  C_23
REMARK   13  A    between atoms: C_22  and  C_24
REMARK                            x       y       z     vdW  Elec       q    Type
REMARK                         _______ _______ _______ _____ _____    ______ ____
ROOT
ATOM      1  C   UNL     1       7.671   7.252  17.391  0.00  0.00    +0.000 C 
ENDROOT
BRANCH   1   2
ATOM      2  C   UNL     1       6.479   6.504  17.923  0.00  0.00    +0.000 C 
ATOM      3  C   UNL     1       5.353   6.219  17.250  0.00  0.00    +0.000 C 
ATOM      4 CL   UNL     1       5.150   6.661  15.583  0.00  0.00    +0.000 Cl
BRANCH   3   5
ATOM      5  C   UNL     1       4.270   5.515  17.876  0.00  0.00    +0.000 A 
ATOM      6  N   UNL     1       3.585   4.498  17.352  0.00  0.00    +0.000 NA
ATOM      7  C   UNL     1       2.672   4.141  18.308  0.00  0.00    +0.000 A 
ATOM      8  C   UNL     1       1.700   3.133  18.326  0.00  0.00    +0.000 A 
ATOM      9  C   UNL     1       0.908   3.002  19.477  0.00  0.00    +0.000 A 
ATOM     10  C   UNL     1       1.076   3.858  20.574  0.00  0.00    +0.000 A 
ATOM     11  C   UNL     1       2.041   4.876  20.567  0.00  0.00    +0.000 A 
ATOM     12  C   UNL     1       2.808   4.960  19.408  0.00  0.00    +0.000 A 
ATOM     13  O   UNL     1       3.811   5.838  19.149  0.00  0.00    +0.000 OA
ENDBRANCH   3   5
ENDBRANCH   1   2
BRANCH   1  14
ATOM     14  C   UNL     1       7.476   8.773  17.482  0.00  0.00    +0.000 C 
BRANCH  14  15
ATOM     15  C   UNL     1       8.361   9.417  18.566  0.00  0.00    +0.000 C 
BRANCH  15  16
ATOM     16  O   UNL     1       9.094   8.371  19.204  0.00  0.00    +0.000 OA
ATOM     17  H   UNL     1       9.920   8.759  19.539  0.00  0.00    +0.000 HD
ENDBRANCH  15  16
BRANCH  15  18
ATOM     18  C   UNL     1       9.315  10.489  17.952  0.00  0.00    +0.000 C 
BRANCH  18  19
ATOM     19  N   UNL     1       9.222  11.896  18.431  0.00  0.00    +0.000 NA
BRANCH  19  20
ATOM     20  C   UNL     1      10.509  12.398  19.003  0.00  0.00    +0.000 C 
ATOM     21  C   UNL     1      10.861  11.760  20.363  0.00  0.00    +0.000 C 
ATOM     22  C   UNL     1      11.722  12.155  18.085  0.00  0.00    +0.000 C 
ENDBRANCH  19  20
BRANCH  19  23
ATOM     23  C   UNL     1       8.691  12.827  17.409  0.00  0.00    +0.000 C 
BRANCH  23  25
ATOM     24  C   UNL     1       7.797  14.423  19.203  0.00  0.00    +0.000 C 
ATOM     25  C   UNL     1       7.581  13.809  17.828  0.00  0.00    +0.000 C 
ENDBRANCH  23  25
ENDBRANCH  19  23
ENDBRANCH  18  19
ENDBRANCH  15  18
ENDBRANCH  14  15
ENDBRANCH   1  14
TORSDOF 10
ENDMDL
MODEL 9
REMARK VINA RESULT:      -6.2      0.845      2.026
REMARK  Name = 
REMARK  13 active torsions:
REMARK  status: ('A' for Active; 'I' for Inactive)
REMARK    1  A    between atoms: C_1  and  C_2
REMARK    2  A    between atoms: C_2  and  C_3
REMARK    3  A    between atoms: C_3  and  N_4
REMARK    4  A    between atoms: N_4  and  C_5
REMARK    5  A    between atoms: N_4  and  C_22
REMARK    6  A    between atoms: C_5  and  C_6
REMARK    7  A    between atoms: C_6  and  O_7
REMARK    8  A    between atoms: C_6  and  C_8
REMARK    9  A    between atoms: C_8  and  C_9
REMARK   10  A    between atoms: C_9  and  C_10
REMARK   11  A    between atoms: C_11  and  C_13
REMARK   12  A    between atoms: C_22  and  C_23
REMARK   13  A    between atoms: C_22  and  C_24
REMARK                            x       y       z     vdW  Elec       q    Type
REMARK                         _______ _______ _______ _____ _____    ______ ____
ROOT
ATOM      1  C   UNL     1       0.908   7.482  21.138  0.00  0.00    +0.000 C 
ENDROOT
BRANCH   1   2
ATOM      2  C   UNL     1       2.018   7.014  20.236  0.00  0.00    +0.000 C 
ATOM      3  C   UNL     1       2.275   5.744  19.884  0.00  0.00    +0.000 C 
ATOM      4 CL   UNL     1       1.274   4.430  20.415  0.00  0.00    +0.000 Cl
BRANCH   3   5
ATOM      5  C   UNL     1       3.383   5.419  19.031  0.00  0.00    +0.000 A 
ATOM      6  N   UNL     1       3.311   5.062  17.748  0.00  0.00    +0.000 NA
ATOM      7  C   UNL     1       4.607   4.871  17.348  0.00  0.00    +0.000 A 
ATOM      8  C   UNL     1       5.146   4.505  16.109  0.00  0.00    +0.000 A 
ATOM      9  C   UNL     1       6.541   4.400  16.003  0.00  0.00    +0.000 A 
ATOM     10  C   UNL     1       7.373   4.645  17.104  0.00  0.00    +0.000 A 
ATOM     11  C   UNL     1       6.845   5.006  18.353  0.00  0.00    +0.000 A 
ATOM     12  C   UNL     1       5.458   5.106  18.406  0.00  0.00    +0.000 A 
ATOM     13  O   UNL     1       4.700   5.449  19.479  0.00  0.00    +0.000 OA
ENDBRANCH   3   5
ENDBRANCH   1   2
BRANCH   1  14
ATOM     14  C   UNL     1       1.284   8.773  21.881  0.00  0.00    +0.000 C 
BRANCH  14  15
ATOM     15  C   UNL     1       0.278   9.912  21.631  0.00  0.00    +0.000 C 
BRANCH  15  16
ATOM     16  O   UNL     1       0.271  10.746  22.791  0.00  0.00    +0.000 OA
ATOM     17  H   UNL     1      -0.476  11.361  22.700  0.00  0.00    +0.000 HD
ENDBRANCH  15  16
BRANCH  15  18
ATOM     18  C   UNL     1       0.649  10.722  20.350  0.00  0.00    +0.000 C 
BRANCH  18  19
ATOM     19  N   UNL     1      -0.228  11.849  19.929  0.00  0.00    +0.000 NA
BRANCH  19  20
ATOM     20  C   UNL     1       0.546  13.044  19.472  0.00  0.00    +0.000 C 
ATOM     21  C   UNL     1       1.862  12.680  18.754  0.00  0.00    +0.000 C 
ATOM     22  C   UNL     1      -0.240  13.946  18.501  0.00  0.00    +0.000 C 
ENDBRANCH  19  20
BRANCH  19  23
ATOM     23  C   UNL     1      -1.246  11.456  18.928  0.00  0.00    +0.000 C 
BRANCH  23  25
ATOM     24  C   UNL     1      -2.006   9.980  16.977  0.00  0.00    +0.000 C 
ATOM     25  C   UNL     1      -0.981  10.198  18.080  0.00  0.00    +0.000 C 
ENDBRANCH  23  25
ENDBRANCH  19  23
ENDBRANCH  18  19
ENDBRANCH  15  18
ENDBRANCH  14  15
ENDBRANCH   1  14
TORSDOF 10
ENDMDL
