MODEL 1
REMARK VINA RESULT:      -7.3      0.000      0.000
REMARK  Name = 
REMARK  4 active torsions:
REMARK  status: ('A' for Active; 'I' for Inactive)
REMARK    1  A    between atoms: C_1  and  C_2
REMARK    2  A    between atoms: C_7  and  S_8
REMARK    3  A    between atoms: S_8  and  C_9
REMARK    4  A    between atoms: C_9  and  C_10
REMARK                            x       y       z     vdW  Elec       q    Type
REMARK                         _______ _______ _______ _____ _____    ______ ____
ROOT
ATOM      1  S   UNL     1       4.764   3.637  19.253  0.00  0.00    +0.000 S 
ENDROOT
BRANCH   1   8
ATOM      2  C   UNL     1       7.703   5.125  12.896  0.00  0.00    +0.000 C 
ATOM      3  C   UNL     1       6.962   4.760  14.159  0.00  0.00    +0.000 C 
ATOM      4  O   UNL     1       6.085   3.906  14.149  0.00  0.00    +0.000 OA
ATOM      5  N   UNL     1       7.401   5.481  15.245  0.00  0.00    +0.000 N 
ATOM      6  C   UNL     1       6.884   5.285  16.496  0.00  0.00    +0.000 A 
ATOM      7  N   UNL     1       6.072   4.368  16.955  0.00  0.00    +0.000 NA
ATOM      8  C   UNL     1       5.836   4.641  18.295  0.00  0.00    +0.000 A 
ATOM      9  N   UNL     1       6.418   5.696  18.870  0.00  0.00    +0.000 NA
ATOM     10  S   UNL     1       7.358   6.413  17.691  0.00  0.00    +0.000 S 
ATOM     11  H   UNL     1       8.065   6.231  15.129  0.00  0.00    +0.000 HD
ENDBRANCH   1   8
BRANCH   1  12
ATOM     12  C   UNL     1       3.177   4.023  18.466  0.00  0.00    +0.000 C 
BRANCH  12  13
ATOM     13  C   UNL     1       2.737   5.437  18.775  0.00  0.00    +0.000 A 
ATOM     14  C   UNL     1       2.236   5.759  20.058  0.00  0.00    +0.000 A 
ATOM     15  C   UNL     1       1.807   7.054  20.365  0.00  0.00    +0.000 A 
ATOM     16  C   UNL     1       1.885   8.006  19.372  0.00  0.00    +0.000 A 
ATOM     17  C   UNL     1       2.360   7.706  18.119  0.00  0.00    +0.000 A 
ATOM     18  C   UNL     1       2.792   6.437  17.787  0.00  0.00    +0.000 A 
ATOM     19  O   UNL     1       2.348   8.783  17.288  0.00  0.00    +0.000 OA
ATOM     20  C   UNL     1       1.789   9.790  18.157  0.00  0.00    +0.000 C 
ATOM     21  O   UNL     1       1.511   9.308  19.489  0.00  0.00    +0.000 OA
ENDBRANCH  12  13
ENDBRANCH   1  12
TORSDOF 3
ENDMDL
MODEL 2
REMARK VINA RESULT:      -7.0      0.761      1.628
REMARK  Name = 
REMARK  4 active torsions:
REMARK  status: ('A' for Active; 'I' for Inactive)
REMARK    1  A    between atoms: C_1  and  C_2
REMARK    2  A    between atoms: C_7  and  S_8
REMARK    3  A    between atoms: S_8  and  C_9
REMARK    4  A    between atoms: C_9  and  C_10
REMARK                            x       y       z     vdW  Elec       q    Type
REMARK                         _______ _______ _______ _____ _____    ______ ____
ROOT
ATOM      1  S   UNL     1       4.640   3.571  19.348  0.00  0.00    +0.000 S 
ENDROOT
BRANCH   1   8
ATOM      2  C   UNL     1       7.682   5.107  13.051  0.00  0.00    +0.000 C 
ATOM      3  C   UNL     1       6.918   4.737  14.299  0.00  0.00    +0.000 C 
ATOM      4  O   UNL     1       6.021   3.905  14.263  0.00  0.00    +0.000 OA
ATOM      5  N   UNL     1       7.364   5.424  15.404  0.00  0.00    +0.000 N 
ATOM      6  C   UNL     1       6.829   5.218  16.645  0.00  0.00    +0.000 A 
ATOM      7  N   UNL     1       5.989   4.313  17.078  0.00  0.00    +0.000 NA
ATOM      8  C   UNL     1       5.746   4.565  18.420  0.00  0.00    +0.000 A 
ATOM      9  N   UNL     1       6.348   5.595  19.021  0.00  0.00    +0.000 NA
ATOM     10  S   UNL     1       7.319   6.310  17.866  0.00  0.00    +0.000 S 
ATOM     11  H   UNL     1       8.048   6.160  15.309  0.00  0.00    +0.000 HD
ENDBRANCH   1   8
BRANCH   1  12
ATOM     12  C   UNL     1       3.077   3.976  18.521  0.00  0.00    +0.000 C 
BRANCH  12  13
ATOM     13  C   UNL     1       2.656   5.401  18.805  0.00  0.00    +0.000 A 
ATOM     14  C   UNL     1       2.836   6.402  17.822  0.00  0.00    +0.000 A 
ATOM     15  C   UNL     1       2.471   7.730  18.064  0.00  0.00    +0.000 A 
ATOM     16  C   UNL     1       1.933   8.031  19.296  0.00  0.00    +0.000 A 
ATOM     17  C   UNL     1       1.761   7.071  20.264  0.00  0.00    +0.000 A 
ATOM     18  C   UNL     1       2.111   5.753  20.053  0.00  0.00    +0.000 A 
ATOM     19  O   UNL     1       1.222   7.577  21.406  0.00  0.00    +0.000 OA
ATOM     20  C   UNL     1       1.096   8.971  21.052  0.00  0.00    +0.000 C 
ATOM     21  O   UNL     1       1.528   9.263  19.707  0.00  0.00    +0.000 OA
ENDBRANCH  12  13
ENDBRANCH   1  12
TORSDOF 3
ENDMDL
MODEL 3
REMARK VINA RESULT:      -6.9      3.279      6.131
REMARK  Name = 
REMARK  4 active torsions:
REMARK  status: ('A' for Active; 'I' for Inactive)
REMARK    1  A    between atoms: C_1  and  C_2
REMARK    2  A    between atoms: C_7  and  S_8
REMARK    3  A    between atoms: S_8  and  C_9
REMARK    4  A    between atoms: C_9  and  C_10
REMARK                            x       y       z     vdW  Elec       q    Type
REMARK                         _______ _______ _______ _____ _____    ______ ____
ROOT
ATOM      1  S   UNL     1       2.702   3.394  17.215  0.00  0.00    +0.000 S 
ENDROOT
BRANCH   1   8
ATOM      2  C   UNL     1       1.430   8.917  21.590  0.00  0.00    +0.000 C 
ATOM      3  C   UNL     1       1.636   7.837  20.556  0.00  0.00    +0.000 C 
ATOM      4  O   UNL     1       1.716   8.113  19.366  0.00  0.00    +0.000 OA
ATOM      5  N   UNL     1       1.724   6.586  21.122  0.00  0.00    +0.000 N 
ATOM      6  C   UNL     1       1.941   5.468  20.366  0.00  0.00    +0.000 A 
ATOM      7  N   UNL     1       2.253   5.332  19.103  0.00  0.00    +0.000 NA
ATOM      8  C   UNL     1       2.331   3.975  18.827  0.00  0.00    +0.000 A 
ATOM      9  N   UNL     1       2.102   3.086  19.797  0.00  0.00    +0.000 NA
ATOM     10  S   UNL     1       1.788   3.970  21.178  0.00  0.00    +0.000 S 
ATOM     11  H   UNL     1       1.550   6.455  22.107  0.00  0.00    +0.000 HD
ENDBRANCH   1   8
BRANCH   1  12
ATOM     12  C   UNL     1       4.497   3.178  17.360  0.00  0.00    +0.000 C 
BRANCH  12  13
ATOM     13  C   UNL     1       5.217   4.508  17.322  0.00  0.00    +0.000 A 
ATOM     14  C   UNL     1       4.823   5.501  16.394  0.00  0.00    +0.000 A 
ATOM     15  C   UNL     1       5.484   6.732  16.326  0.00  0.00    +0.000 A 
ATOM     16  C   UNL     1       6.534   6.943  17.192  0.00  0.00    +0.000 A 
ATOM     17  C   UNL     1       6.934   5.984  18.092  0.00  0.00    +0.000 A 
ATOM     18  C   UNL     1       6.301   4.760  18.182  0.00  0.00    +0.000 A 
ATOM     19  O   UNL     1       7.991   6.390  18.846  0.00  0.00    +0.000 OA
ATOM     20  C   UNL     1       8.224   7.706  18.302  0.00  0.00    +0.000 C 
ATOM     21  O   UNL     1       7.290   8.072  17.264  0.00  0.00    +0.000 OA
ENDBRANCH  12  13
ENDBRANCH   1  12
TORSDOF 3
ENDMDL
MODEL 4
REMARK VINA RESULT:      -6.9      3.159      4.466
REMARK  Name = 
REMARK  4 active torsions:
REMARK  status: ('A' for Active; 'I' for Inactive)
REMARK    1  A    between atoms: C_1  and  C_2
REMARK    2  A    between atoms: C_7  and  S_8
REMARK    3  A    between atoms: S_8  and  C_9
REMARK    4  A    between atoms: C_9  and  C_10
REMARK                            x       y       z     vdW  Elec       q    Type
REMARK                         _______ _______ _______ _____ _____    ______ ____
ROOT
ATOM      1  S   UNL     1       6.608   4.828  15.566  0.00  0.00    +0.000 S 
ENDROOT
BRANCH   1   8
ATOM      2  C   UNL     1       9.178  10.382  19.282  0.00  0.00    +0.000 C 
ATOM      3  C   UNL     1       8.551   9.312  18.422  0.00  0.00    +0.000 C 
ATOM      4  O   UNL     1       8.088   9.582  17.321  0.00  0.00    +0.000 OA
ATOM      5  N   UNL     1       8.587   8.075  19.023  0.00  0.00    +0.000 N 
ATOM      6  C   UNL     1       8.098   6.959  18.403  0.00  0.00    +0.000 A 
ATOM      7  N   UNL     1       7.685   6.770  17.176  0.00  0.00    +0.000 NA
ATOM      8  C   UNL     1       7.261   5.453  17.068  0.00  0.00    +0.000 A 
ATOM      9  N   UNL     1       7.332   4.644  18.127  0.00  0.00    +0.000 NA
ATOM     10  S   UNL     1       7.996   5.549  19.365  0.00  0.00    +0.000 S 
ATOM     11  H   UNL     1       8.905   7.976  19.975  0.00  0.00    +0.000 HD
ENDBRANCH   1   8
BRANCH   1  12
ATOM     12  C   UNL     1       4.888   5.383  15.711  0.00  0.00    +0.000 C 
BRANCH  12  13
ATOM     13  C   UNL     1       4.237   4.843  16.965  0.00  0.00    +0.000 A 
ATOM     14  C   UNL     1       4.102   3.447  17.148  0.00  0.00    +0.000 A 
ATOM     15  C   UNL     1       3.489   2.922  18.291  0.00  0.00    +0.000 A 
ATOM     16  C   UNL     1       3.018   3.812  19.231  0.00  0.00    +0.000 A 
ATOM     17  C   UNL     1       3.134   5.171  19.062  0.00  0.00    +0.000 A 
ATOM     18  C   UNL     1       3.734   5.718  17.946  0.00  0.00    +0.000 A 
ATOM     19  O   UNL     1       2.601   5.870  20.100  0.00  0.00    +0.000 OA
ATOM     20  C   UNL     1       2.115   4.794  20.931  0.00  0.00    +0.000 C 
ATOM     21  O   UNL     1       2.394   3.484  20.394  0.00  0.00    +0.000 OA
ENDBRANCH  12  13
ENDBRANCH   1  12
TORSDOF 3
ENDMDL
MODEL 5
REMARK VINA RESULT:      -6.9      3.457      4.667
REMARK  Name = 
REMARK  4 active torsions:
REMARK  status: ('A' for Active; 'I' for Inactive)
REMARK    1  A    between atoms: C_1  and  C_2
REMARK    2  A    between atoms: C_7  and  S_8
REMARK    3  A    between atoms: S_8  and  C_9
REMARK    4  A    between atoms: C_9  and  C_10
REMARK                            x       y       z     vdW  Elec       q    Type
REMARK                         _______ _______ _______ _____ _____    ______ ____
ROOT
ATOM      1  S   UNL     1       5.516   4.692  16.540  0.00  0.00    +0.000 S 
ENDROOT
BRANCH   1   8
ATOM      2  C   UNL     1       9.353  10.256  18.902  0.00  0.00    +0.000 C 
ATOM      3  C   UNL     1       8.439   9.185  18.359  0.00  0.00    +0.000 C 
ATOM      4  O   UNL     1       7.621   9.440  17.484  0.00  0.00    +0.000 OA
ATOM      5  N   UNL     1       8.661   7.964  18.952  0.00  0.00    +0.000 N 
ATOM      6  C   UNL     1       7.961   6.848  18.586  0.00  0.00    +0.000 A 
ATOM      7  N   UNL     1       7.135   6.640  17.593  0.00  0.00    +0.000 NA
ATOM      8  C   UNL     1       6.673   5.335  17.689  0.00  0.00    +0.000 A 
ATOM      9  N   UNL     1       7.100   4.552  18.683  0.00  0.00    +0.000 NA
ATOM     10  S   UNL     1       8.178   5.467  19.571  0.00  0.00    +0.000 S 
ATOM     11  H   UNL     1       9.295   7.880  19.732  0.00  0.00    +0.000 HD
ENDBRANCH   1   8
BRANCH   1  12
ATOM     12  C   UNL     1       4.026   5.591  17.050  0.00  0.00    +0.000 C 
BRANCH  12  13
ATOM     13  C   UNL     1       3.166   4.755  17.972  0.00  0.00    +0.000 A 
ATOM     14  C   UNL     1       2.046   4.060  17.458  0.00  0.00    +0.000 A 
ATOM     15  C   UNL     1       1.223   3.294  18.291  0.00  0.00    +0.000 A 
ATOM     16  C   UNL     1       1.540   3.242  19.631  0.00  0.00    +0.000 A 
ATOM     17  C   UNL     1       2.620   3.919  20.145  0.00  0.00    +0.000 A 
ATOM     18  C   UNL     1       3.449   4.682  19.348  0.00  0.00    +0.000 A 
ATOM     19  O   UNL     1       2.753   3.740  21.487  0.00  0.00    +0.000 OA
ATOM     20  C   UNL     1       1.618   2.891  21.761  0.00  0.00    +0.000 C 
ATOM     21  O   UNL     1       0.855   2.554  20.583  0.00  0.00    +0.000 OA
ENDBRANCH  12  13
ENDBRANCH   1  12
TORSDOF 3
ENDMDL
MODEL 6
REMARK VINA RESULT:      -6.9      3.175      5.974
REMARK  Name = 
REMARK  4 active torsions:
REMARK  status: ('A' for Active; 'I' for Inactive)
REMARK    1  A    between atoms: C_1  and  C_2
REMARK    2  A    between atoms: C_7  and  S_8
REMARK    3  A    between atoms: S_8  and  C_9
REMARK    4  A    between atoms: C_9  and  C_10
REMARK                            x       y       z     vdW  Elec       q    Type
REMARK                         _______ _______ _______ _____ _____    ______ ____
ROOT
ATOM      1  S   UNL     1       3.914   2.856  17.659  0.00  0.00    +0.000 S 
ENDROOT
BRANCH   1   8
ATOM      2  C   UNL     1       1.256   8.447  21.255  0.00  0.00    +0.000 C 
ATOM      3  C   UNL     1       1.811   7.357  20.372  0.00  0.00    +0.000 C 
ATOM      4  O   UNL     1       2.393   7.627  19.329  0.00  0.00    +0.000 OA
ATOM      5  N   UNL     1       1.585   6.103  20.891  0.00  0.00    +0.000 N 
ATOM      6  C   UNL     1       2.033   4.973  20.264  0.00  0.00    +0.000 A 
ATOM      7  N   UNL     1       2.832   4.818  19.240  0.00  0.00    +0.000 NA
ATOM      8  C   UNL     1       2.941   3.459  18.986  0.00  0.00    +0.000 A 
ATOM      9  N   UNL     1       2.281   2.586  19.751  0.00  0.00    +0.000 NA
ATOM     10  S   UNL     1       1.473   3.488  20.901  0.00  0.00    +0.000 S 
ATOM     11  H   UNL     1       1.011   5.982  21.712  0.00  0.00    +0.000 HD
ENDBRANCH   1   8
BRANCH   1  12
ATOM     12  C   UNL     1       4.153   4.386  16.716  0.00  0.00    +0.000 C 
BRANCH  12  13
ATOM     13  C   UNL     1       5.339   5.172  17.230  0.00  0.00    +0.000 A 
ATOM     14  C   UNL     1       6.247   4.573  18.134  0.00  0.00    +0.000 A 
ATOM     15  C   UNL     1       7.343   5.282  18.638  0.00  0.00    +0.000 A 
ATOM     16  C   UNL     1       7.505   6.586  18.226  0.00  0.00    +0.000 A 
ATOM     17  C   UNL     1       6.625   7.184  17.356  0.00  0.00    +0.000 A 
ATOM     18  C   UNL     1       5.536   6.510  16.842  0.00  0.00    +0.000 A 
ATOM     19  O   UNL     1       6.961   8.474  17.083  0.00  0.00    +0.000 OA
ATOM     20  C   UNL     1       8.142   8.625  17.900  0.00  0.00    +0.000 C 
ATOM     21  O   UNL     1       8.504   7.424  18.613  0.00  0.00    +0.000 OA
ENDBRANCH  12  13
ENDBRANCH   1  12
TORSDOF 3
ENDMDL
MODEL 7
REMARK VINA RESULT:      -6.8      0.988      1.655
REMARK  Name = 
REMARK  4 active torsions:
REMARK  status: ('A' for Active; 'I' for Inactive)
REMARK    1  A    between atoms: C_1  and  C_2
REMARK    2  A    between atoms: C_7  and  S_8
REMARK    3  A    between atoms: S_8  and  C_9
REMARK    4  A    between atoms: C_9  and  C_10
REMARK                            x       y       z     vdW  Elec       q    Type
REMARK                         _______ _______ _______ _____ _____    ______ ____
ROOT
ATOM      1  S   UNL     1       3.629   3.691  18.718  0.00  0.00    +0.000 S 
ENDROOT
BRANCH   1   8
ATOM      2  C   UNL     1       7.798   4.941  13.033  0.00  0.00    +0.000 C 
ATOM      3  C   UNL     1       6.801   4.722  14.144  0.00  0.00    +0.000 C 
ATOM      4  O   UNL     1       5.622   4.507  13.898  0.00  0.00    +0.000 OA
ATOM      5  N   UNL     1       7.387   4.787  15.388  0.00  0.00    +0.000 N 
ATOM      6  C   UNL     1       6.668   4.587  16.533  0.00  0.00    +0.000 A 
ATOM      7  N   UNL     1       5.443   4.167  16.716  0.00  0.00    +0.000 NA
ATOM      8  C   UNL     1       5.190   4.169  18.080  0.00  0.00    +0.000 A 
ATOM      9  N   UNL     1       6.144   4.559  18.930  0.00  0.00    +0.000 NA
ATOM     10  S   UNL     1       7.478   4.934  17.999  0.00  0.00    +0.000 S 
ATOM     11  H   UNL     1       8.352   5.065  15.487  0.00  0.00    +0.000 HD
ENDBRANCH   1   8
BRANCH   1  12
ATOM     12  C   UNL     1       3.413   4.947  20.008  0.00  0.00    +0.000 C 
BRANCH  12  13
ATOM     13  C   UNL     1       2.887   6.244  19.432  0.00  0.00    +0.000 A 
ATOM     14  C   UNL     1       3.208   6.611  18.105  0.00  0.00    +0.000 A 
ATOM     15  C   UNL     1       2.749   7.812  17.554  0.00  0.00    +0.000 A 
ATOM     16  C   UNL     1       1.976   8.628  18.351  0.00  0.00    +0.000 A 
ATOM     17  C   UNL     1       1.664   8.288  19.646  0.00  0.00    +0.000 A 
ATOM     18  C   UNL     1       2.102   7.109  20.216  0.00  0.00    +0.000 A 
ATOM     19  O   UNL     1       0.899   9.231  20.259  0.00  0.00    +0.000 OA
ATOM     20  C   UNL     1       0.784  10.213  19.208  0.00  0.00    +0.000 C 
ATOM     21  O   UNL     1       1.449   9.827  17.987  0.00  0.00    +0.000 OA
ENDBRANCH  12  13
ENDBRANCH   1  12
TORSDOF 3
ENDMDL
MODEL 8
REMARK VINA RESULT:      -6.7      5.457      6.608
REMARK  Name = 
REMARK  4 active torsions:
REMARK  status: ('A' for Active; 'I' for Inactive)
REMARK    1  A    between atoms: C_1  and  C_2
REMARK    2  A    between atoms: C_7  and  S_8
REMARK    3  A    between atoms: S_8  and  C_9
REMARK    4  A    between atoms: C_9  and  C_10
REMARK                            x       y       z     vdW  Elec       q    Type
REMARK                         _______ _______ _______ _____ _____    ______ ____
ROOT
ATOM      1  S   UNL     1       8.100   7.329  18.586  0.00  0.00    +0.000 S 
ENDROOT
BRANCH   1   8
ATOM      2  C   UNL     1       3.316   2.032  18.027  0.00  0.00    +0.000 C 
ATOM      3  C   UNL     1       4.240   3.202  18.262  0.00  0.00    +0.000 C 
ATOM      4  O   UNL     1       4.298   3.748  19.356  0.00  0.00    +0.000 OA
ATOM      5  N   UNL     1       4.960   3.528  17.136  0.00  0.00    +0.000 N 
ATOM      6  C   UNL     1       5.880   4.540  17.137  0.00  0.00    +0.000 A 
ATOM      7  N   UNL     1       6.372   5.251  18.118  0.00  0.00    +0.000 NA
ATOM      8  C   UNL     1       7.256   6.172  17.575  0.00  0.00    +0.000 A 
ATOM      9  N   UNL     1       7.460   6.198  16.256  0.00  0.00    +0.000 NA
ATOM     10  S   UNL     1       6.517   4.979  15.612  0.00  0.00    +0.000 S 
ATOM     11  H   UNL     1       4.769   3.075  16.254  0.00  0.00    +0.000 HD
ENDBRANCH   1   8
BRANCH   1  12
ATOM     12  C   UNL     1       7.900   8.830  17.588  0.00  0.00    +0.000 C 
BRANCH  12  13
ATOM     13  C   UNL     1       8.557  10.023  18.247  0.00  0.00    +0.000 A 
ATOM     14  C   UNL     1       9.211   9.872  19.492  0.00  0.00    +0.000 A 
ATOM     15  C   UNL     1       9.812  10.962  20.131  0.00  0.00    +0.000 A 
ATOM     16  C   UNL     1       9.741  12.188  19.508  0.00  0.00    +0.000 A 
ATOM     17  C   UNL     1       9.101  12.351  18.303  0.00  0.00    +0.000 A 
ATOM     18  C   UNL     1       8.500  11.295  17.648  0.00  0.00    +0.000 A 
ATOM     19  O   UNL     1       9.140  13.638  17.865  0.00  0.00    +0.000 OA
ATOM     20  C   UNL     1       9.860  14.271  18.944  0.00  0.00    +0.000 C 
ATOM     21  O   UNL     1      10.262  13.352  19.982  0.00  0.00    +0.000 OA
ENDBRANCH  12  13
ENDBRANCH   1  12
TORSDOF 3
ENDMDL
MODEL 9
REMARK VINA RESULT:      -6.6      1.063      1.253
REMARK  Name = 
REMARK  4 active torsions:
REMARK  status: ('A' for Active; 'I' for Inactive)
REMARK    1  A    between atoms: C_1  and  C_2
REMARK    2  A    between atoms: C_7  and  S_8
REMARK    3  A    between atoms: S_8  and  C_9
REMARK    4  A    between atoms: C_9  and  C_10
REMARK                            x       y       z     vdW  Elec       q    Type
REMARK                         _______ _______ _______ _____ _____    ______ ____
ROOT
ATOM      1  S   UNL     1       4.077   2.879  18.057  0.00  0.00    +0.000 S 
ENDROOT
BRANCH   1   8
ATOM      2  C   UNL     1       8.162   5.453  12.771  0.00  0.00    +0.000 C 
ATOM      3  C   UNL     1       7.191   4.891  13.780  0.00  0.00    +0.000 C 
ATOM      4  O   UNL     1       6.277   4.154  13.431  0.00  0.00    +0.000 OA
ATOM      5  N   UNL     1       7.479   5.299  15.062  0.00  0.00    +0.000 N 
ATOM      6  C   UNL     1       6.742   4.880  16.134  0.00  0.00    +0.000 A 
ATOM      7  N   UNL     1       5.806   3.971  16.230  0.00  0.00    +0.000 NA
ATOM      8  C   UNL     1       5.359   3.957  17.543  0.00  0.00    +0.000 A 
ATOM      9  N   UNL     1       5.897   4.791  18.437  0.00  0.00    +0.000 NA
ATOM     10  S   UNL     1       7.071   5.656  17.622  0.00  0.00    +0.000 S 
ATOM     11  H   UNL     1       8.199   5.985  15.232  0.00  0.00    +0.000 HD
ENDBRANCH   1   8
BRANCH   1  12
ATOM     12  C   UNL     1       2.626   3.840  17.546  0.00  0.00    +0.000 C 
BRANCH  12  13
ATOM     13  C   UNL     1       2.292   4.914  18.558  0.00  0.00    +0.000 A 
ATOM     14  C   UNL     1       1.935   4.556  19.879  0.00  0.00    +0.000 A 
ATOM     15  C   UNL     1       1.604   5.529  20.828  0.00  0.00    +0.000 A 
ATOM     16  C   UNL     1       1.635   6.847  20.432  0.00  0.00    +0.000 A 
ATOM     17  C   UNL     1       1.971   7.209  19.149  0.00  0.00    +0.000 A 
ATOM     18  C   UNL     1       2.302   6.272  18.191  0.00  0.00    +0.000 A 
ATOM     19  O   UNL     1       1.934   8.556  18.964  0.00  0.00    +0.000 OA
ATOM     20  C   UNL     1       1.514   8.999  20.272  0.00  0.00    +0.000 C 
ATOM     21  O   UNL     1       1.342   7.920  21.215  0.00  0.00    +0.000 OA
ENDBRANCH  12  13
ENDBRANCH   1  12
TORSDOF 3
ENDMDL
