MODEL 1
REMARK VINA RESULT:      -8.1      0.000      0.000
REMARK  Name = 
REMARK  6 active torsions:
REMARK  status: ('A' for Active; 'I' for Inactive)
REMARK    1  A    between atoms: C_1  and  O_2
REMARK    2  A    between atoms: O_2  and  C_3
REMARK    3  A    between atoms: C_7  and  C_8
REMARK    4  A    between atoms: C_10  and  O_11
REMARK    5  A    between atoms: C_13  and  C_14
REMARK    6  A    between atoms: C_13  and  C_15
REMARK                            x       y       z     vdW  Elec       q    Type
REMARK                         _______ _______ _______ _____ _____    ______ ____
ROOT
ATOM      1  C   UNL     1       2.528   6.562  18.097  0.00  0.00    +0.000 C 
ATOM      2  C   UNL     1       3.930   6.346  17.621  0.00  0.00    +0.000 C 
ATOM      3  C   UNL     1       5.010   7.094  17.340  0.00  0.00    +0.000 C 
ATOM      4  C   UNL     1       6.374   6.476  17.161  0.00  0.00    +0.000 C 
ATOM      5  C   UNL     1       6.618   5.249  18.085  0.00  0.00    +0.000 C 
ATOM      6  C   UNL     1       7.126   5.736  19.461  0.00  0.00    +0.000 C 
ATOM      7  C   UNL     1       7.682   4.350  17.454  0.00  0.00    +0.000 C 
ATOM      8  C   UNL     1       5.360   4.383  18.276  0.00  0.00    +0.000 C 
ATOM      9  C   UNL     1       4.179   4.878  17.477  0.00  0.00    +0.000 C 
ATOM     10  N   UNL     1       3.198   4.072  17.165  0.00  0.00    +0.000 NA
ATOM     11  C   UNL     1       2.148   4.151  18.124  0.00  0.00    +0.000 A 
ATOM     12  C   UNL     1       1.683   2.927  18.584  0.00  0.00    +0.000 A 
ATOM     13  C   UNL     1       1.648   2.797  19.943  0.00  0.00    +0.000 A 
ATOM     14  C   UNL     1       1.964   3.849  20.778  0.00  0.00    +0.000 A 
ATOM     15  C   UNL     1       2.153   5.148  20.313  0.00  0.00    +0.000 A 
ATOM     16  C   UNL     1       2.122   5.334  18.930  0.00  0.00    +0.000 A 
ATOM     17  O   UNL     1       2.170   3.419  22.057  0.00  0.00    +0.000 OA
ATOM     18  C   UNL     1       1.915   2.003  21.919  0.00  0.00    +0.000 C 
ATOM     19  O   UNL     1       1.515   1.612  20.594  0.00  0.00    +0.000 OA
ENDROOT
BRANCH   1  24
ATOM     20  C   UNL     1       1.145   9.126  20.420  0.00  0.00    +0.000 A 
ATOM     21  C   UNL     1       0.745  10.133  19.545  0.00  0.00    +0.000 A 
ATOM     22  C   UNL     1       1.146  10.102  18.204  0.00  0.00    +0.000 A 
ATOM     23  C   UNL     1       1.867   9.009  17.710  0.00  0.00    +0.000 A 
ATOM     24  C   UNL     1       2.233   7.972  18.571  0.00  0.00    +0.000 A 
ATOM     25  C   UNL     1       1.969   8.112  19.949  0.00  0.00    +0.000 A 
BRANCH  20  27
ATOM     26  C   UNL     1      -0.249  10.266  21.945  0.00  0.00    +0.000 C 
ATOM     27  O   UNL     1       0.612   9.155  21.681  0.00  0.00    +0.000 OA
ENDBRANCH  20  27
ENDBRANCH   1  24
BRANCH   3  28
ATOM     28  O   UNL     1       5.004   8.469  17.216  0.00  0.00    +0.000 OA
ATOM     29  H   UNL     1       5.889   8.779  16.949  0.00  0.00    +0.000 HD
ENDBRANCH   3  28
TORSDOF 3
ENDMDL
MODEL 2
REMARK VINA RESULT:      -8.0      2.001      5.091
REMARK  Name = 
REMARK  6 active torsions:
REMARK  status: ('A' for Active; 'I' for Inactive)
REMARK    1  A    between atoms: C_1  and  O_2
REMARK    2  A    between atoms: O_2  and  C_3
REMARK    3  A    between atoms: C_7  and  C_8
REMARK    4  A    between atoms: C_10  and  O_11
REMARK    5  A    between atoms: C_13  and  C_14
REMARK    6  A    between atoms: C_13  and  C_15
REMARK                            x       y       z     vdW  Elec       q    Type
REMARK                         _______ _______ _______ _____ _____    ______ ____
ROOT
ATOM      1  C   UNL     1       3.764   6.257  19.326  0.00  0.00    +0.000 C 
ATOM      2  C   UNL     1       3.455   4.844  19.709  0.00  0.00    +0.000 C 
ATOM      3  C   UNL     1       2.416   4.154  20.209  0.00  0.00    +0.000 C 
ATOM      4  C   UNL     1       2.383   2.648  20.185  0.00  0.00    +0.000 C 
ATOM      5  C   UNL     1       3.060   2.038  18.924  0.00  0.00    +0.000 C 
ATOM      6  C   UNL     1       2.035   1.982  17.769  0.00  0.00    +0.000 C 
ATOM      7  C   UNL     1       3.526   0.618  19.242  0.00  0.00    +0.000 C 
ATOM      8  C   UNL     1       4.304   2.824  18.473  0.00  0.00    +0.000 C 
ATOM      9  C   UNL     1       4.634   3.979  19.388  0.00  0.00    +0.000 C 
ATOM     10  N   UNL     1       5.843   4.471  19.433  0.00  0.00    +0.000 NA
ATOM     11  C   UNL     1       5.977   5.579  18.548  0.00  0.00    +0.000 A 
ATOM     12  C   UNL     1       7.097   5.541  17.729  0.00  0.00    +0.000 A 
ATOM     13  C   UNL     1       6.844   5.707  16.397  0.00  0.00    +0.000 A 
ATOM     14  C   UNL     1       5.575   5.987  15.932  0.00  0.00    +0.000 A 
ATOM     15  C   UNL     1       4.515   6.303  16.779  0.00  0.00    +0.000 A 
ATOM     16  C   UNL     1       4.757   6.216  18.151  0.00  0.00    +0.000 A 
ATOM     17  O   UNL     1       5.492   5.800  14.583  0.00  0.00    +0.000 OA
ATOM     18  C   UNL     1       6.847   5.408  14.272  0.00  0.00    +0.000 C 
ATOM     19  O   UNL     1       7.729   5.415  15.408  0.00  0.00    +0.000 OA
ENDROOT
BRANCH   1  24
ATOM     20  C   UNL     1       1.846   9.289  18.322  0.00  0.00    +0.000 A 
ATOM     21  C   UNL     1       1.125   9.578  19.476  0.00  0.00    +0.000 A 
ATOM     22  C   UNL     1       1.059   8.647  20.519  0.00  0.00    +0.000 A 
ATOM     23  C   UNL     1       1.801   7.462  20.451  0.00  0.00    +0.000 A 
ATOM     24  C   UNL     1       2.565   7.185  19.316  0.00  0.00    +0.000 A 
ATOM     25  C   UNL     1       2.474   8.055  18.210  0.00  0.00    +0.000 A 
BRANCH  20  27
ATOM     26  C   UNL     1       2.293  11.576  17.949  0.00  0.00    +0.000 C 
ATOM     27  O   UNL     1       1.969  10.295  17.401  0.00  0.00    +0.000 OA
ENDBRANCH  20  27
ENDBRANCH   1  24
BRANCH   3  28
ATOM     28  O   UNL     1       1.285   4.726  20.756  0.00  0.00    +0.000 OA
ATOM     29  H   UNL     1       1.433   4.906  21.703  0.00  0.00    +0.000 HD
ENDBRANCH   3  28
TORSDOF 3
ENDMDL
MODEL 3
REMARK VINA RESULT:      -7.3      4.214      8.447
REMARK  Name = 
REMARK  6 active torsions:
REMARK  status: ('A' for Active; 'I' for Inactive)
REMARK    1  A    between atoms: C_1  and  O_2
REMARK    2  A    between atoms: O_2  and  C_3
REMARK    3  A    between atoms: C_7  and  C_8
REMARK    4  A    between atoms: C_10  and  O_11
REMARK    5  A    between atoms: C_13  and  C_14
REMARK    6  A    between atoms: C_13  and  C_15
REMARK                            x       y       z     vdW  Elec       q    Type
REMARK                         _______ _______ _______ _____ _____    ______ ____
ROOT
ATOM      1  C   UNL     1      -0.457  10.692  20.188  0.00  0.00    +0.000 C 
ATOM      2  C   UNL     1       0.067  12.092  20.247  0.00  0.00    +0.000 C 
ATOM      3  C   UNL     1       1.211  12.711  20.581  0.00  0.00    +0.000 C 
ATOM      4  C   UNL     1       1.464  14.153  20.222  0.00  0.00    +0.000 C 
ATOM      5  C   UNL     1       0.842  14.563  18.856  0.00  0.00    +0.000 C 
ATOM      6  C   UNL     1       1.826  14.208  17.718  0.00  0.00    +0.000 C 
ATOM      7  C   UNL     1       0.599  16.072  18.848  0.00  0.00    +0.000 C 
ATOM      8  C   UNL     1      -0.518  13.892  18.591  0.00  0.00    +0.000 C 
ATOM      9  C   UNL     1      -0.982  13.030  19.740  0.00  0.00    +0.000 C 
ATOM     10  N   UNL     1      -2.249  12.747  19.893  0.00  0.00    +0.000 NA
ATOM     11  C   UNL     1      -2.572  11.503  19.277  0.00  0.00    +0.000 A 
ATOM     12  C   UNL     1      -3.700  11.527  18.469  0.00  0.00    +0.000 A 
ATOM     13  C   UNL     1      -3.517  11.034  17.209  0.00  0.00    +0.000 A 
ATOM     14  C   UNL     1      -2.319  10.472  16.819  0.00  0.00    +0.000 A 
ATOM     15  C   UNL     1      -1.290  10.197  17.716  0.00  0.00    +0.000 A 
ATOM     16  C   UNL     1      -1.471  10.619  19.033  0.00  0.00    +0.000 A 
ATOM     17  O   UNL     1      -2.253  10.343  15.462  0.00  0.00    +0.000 OA
ATOM     18  C   UNL     1      -3.546  10.854  15.070  0.00  0.00    +0.000 C 
ATOM     19  O   UNL     1      -4.382  11.230  16.179  0.00  0.00    +0.000 OA
ENDROOT
BRANCH   1  24
ATOM     20  C   UNL     1       2.024   8.144  19.075  0.00  0.00    +0.000 A 
ATOM     21  C   UNL     1       1.904   7.166  20.058  0.00  0.00    +0.000 A 
ATOM     22  C   UNL     1       1.194   7.431  21.235  0.00  0.00    +0.000 A 
ATOM     23  C   UNL     1       0.516   8.646  21.389  0.00  0.00    +0.000 A 
ATOM     24  C   UNL     1       0.593   9.615  20.387  0.00  0.00    +0.000 A 
ATOM     25  C   UNL     1       1.455   9.393  19.294  0.00  0.00    +0.000 A 
BRANCH  20  27
ATOM     26  C   UNL     1       3.406   6.578  17.977  0.00  0.00    +0.000 C 
ATOM     27  O   UNL     1       2.623   7.772  17.902  0.00  0.00    +0.000 OA
ENDBRANCH  20  27
ENDBRANCH   1  24
BRANCH   3  28
ATOM     28  O   UNL     1       2.265  12.112  21.243  0.00  0.00    +0.000 OA
ATOM     29  H   UNL     1       2.089  11.158  21.345  0.00  0.00    +0.000 HD
ENDBRANCH   3  28
TORSDOF 3
ENDMDL
MODEL 4
REMARK VINA RESULT:      -7.1      8.436     11.022
REMARK  Name = 
REMARK  6 active torsions:
REMARK  status: ('A' for Active; 'I' for Inactive)
REMARK    1  A    between atoms: C_1  and  O_2
REMARK    2  A    between atoms: O_2  and  C_3
REMARK    3  A    between atoms: C_7  and  C_8
REMARK    4  A    between atoms: C_10  and  O_11
REMARK    5  A    between atoms: C_13  and  C_14
REMARK    6  A    between atoms: C_13  and  C_15
REMARK                            x       y       z     vdW  Elec       q    Type
REMARK                         _______ _______ _______ _____ _____    ______ ____
ROOT
ATOM      1  C   UNL     1       9.486  13.215  21.822  0.00  0.00    +0.000 C 
ATOM      2  C   UNL     1       8.705  14.388  21.317  0.00  0.00    +0.000 C 
ATOM      3  C   UNL     1       8.396  14.939  20.131  0.00  0.00    +0.000 C 
ATOM      4  C   UNL     1       7.312  15.979  20.002  0.00  0.00    +0.000 C 
ATOM      5  C   UNL     1       6.122  15.750  20.978  0.00  0.00    +0.000 C 
ATOM      6  C   UNL     1       5.118  14.765  20.337  0.00  0.00    +0.000 C 
ATOM      7  C   UNL     1       5.417  17.083  21.229  0.00  0.00    +0.000 C 
ATOM      8  C   UNL     1       6.567  15.216  22.351  0.00  0.00    +0.000 C 
ATOM      9  C   UNL     1       8.066  15.088  22.474  0.00  0.00    +0.000 C 
ATOM     10  N   UNL     1       8.641  15.079  23.648  0.00  0.00    +0.000 NA
ATOM     11  C   UNL     1       8.831  13.746  24.113  0.00  0.00    +0.000 A 
ATOM     12  C   UNL     1       8.421  13.519  25.419  0.00  0.00    +0.000 A 
ATOM     13  C   UNL     1       7.577  12.458  25.583  0.00  0.00    +0.000 A 
ATOM     14  C   UNL     1       7.246  11.629  24.531  0.00  0.00    +0.000 A 
ATOM     15  C   UNL     1       7.882  11.694  23.293  0.00  0.00    +0.000 A 
ATOM     16  C   UNL     1       8.807  12.722  23.112  0.00  0.00    +0.000 A 
ATOM     17  O   UNL     1       6.168  10.850  24.837  0.00  0.00    +0.000 OA
ATOM     18  C   UNL     1       5.899  11.267  26.193  0.00  0.00    +0.000 C 
ATOM     19  O   UNL     1       6.832  12.238  26.698  0.00  0.00    +0.000 OA
ENDROOT
BRANCH   1  24
ATOM     20  C   UNL     1      11.354  12.191  18.765  0.00  0.00    +0.000 A 
ATOM     21  C   UNL     1      10.484  11.277  18.179  0.00  0.00    +0.000 A 
ATOM     22  C   UNL     1       9.383  10.791  18.895  0.00  0.00    +0.000 A 
ATOM     23  C   UNL     1       9.095  11.295  20.169  0.00  0.00    +0.000 A 
ATOM     24  C   UNL     1       9.938  12.246  20.746  0.00  0.00    +0.000 A 
ATOM     25  C   UNL     1      11.131  12.588  20.078  0.00  0.00    +0.000 A 
BRANCH  20  27
ATOM     26  C   UNL     1      11.853  13.442  16.827  0.00  0.00    +0.000 C 
ATOM     27  O   UNL     1      12.331  12.717  17.963  0.00  0.00    +0.000 OA
ENDBRANCH  20  27
ENDBRANCH   1  24
BRANCH   3  28
ATOM     28  O   UNL     1       8.992  14.607  18.931  0.00  0.00    +0.000 OA
ATOM     29  H   UNL     1       8.309  14.506  18.242  0.00  0.00    +0.000 HD
ENDBRANCH   3  28
TORSDOF 3
ENDMDL
MODEL 5
REMARK VINA RESULT:      -7.0      7.301      9.462
REMARK  Name = 
REMARK  6 active torsions:
REMARK  status: ('A' for Active; 'I' for Inactive)
REMARK    1  A    between atoms: C_1  and  O_2
REMARK    2  A    between atoms: O_2  and  C_3
REMARK    3  A    between atoms: C_7  and  C_8
REMARK    4  A    between atoms: C_10  and  O_11
REMARK    5  A    between atoms: C_13  and  C_14
REMARK    6  A    between atoms: C_13  and  C_15
REMARK                            x       y       z     vdW  Elec       q    Type
REMARK                         _______ _______ _______ _____ _____    ______ ____
ROOT
ATOM      1  C   UNL     1      -1.173  11.534  19.852  0.00  0.00    +0.000 C 
ATOM      2  C   UNL     1      -0.024  12.488  19.938  0.00  0.00    +0.000 C 
ATOM      3  C   UNL     1       0.848  13.071  19.098  0.00  0.00    +0.000 C 
ATOM      4  C   UNL     1       1.703  14.236  19.529  0.00  0.00    +0.000 C 
ATOM      5  C   UNL     1       0.987  15.184  20.533  0.00  0.00    +0.000 C 
ATOM      6  C   UNL     1       0.146  16.218  19.751  0.00  0.00    +0.000 C 
ATOM      7  C   UNL     1       2.038  15.925  21.359  0.00  0.00    +0.000 C 
ATOM      8  C   UNL     1       0.087  14.432  21.530  0.00  0.00    +0.000 C 
ATOM      9  C   UNL     1       0.141  12.934  21.356  0.00  0.00    +0.000 C 
ATOM     10  N   UNL     1      -0.184  12.135  22.338  0.00  0.00    +0.000 NA
ATOM     11  C   UNL     1      -1.554  11.753  22.254  0.00  0.00    +0.000 A 
ATOM     12  C   UNL     1      -2.269  11.874  23.437  0.00  0.00    +0.000 A 
ATOM     13  C   UNL     1      -3.432  12.583  23.339  0.00  0.00    +0.000 A 
ATOM     14  C   UNL     1      -3.892  13.054  22.125  0.00  0.00    +0.000 A 
ATOM     15  C   UNL     1      -3.318  12.687  20.910  0.00  0.00    +0.000 A 
ATOM     16  C   UNL     1      -2.168  11.899  20.968  0.00  0.00    +0.000 A 
ATOM     17  O   UNL     1      -4.874  13.985  22.298  0.00  0.00    +0.000 OA
ATOM     18  C   UNL     1      -4.987  14.008  23.738  0.00  0.00    +0.000 C 
ATOM     19  O   UNL     1      -4.123  13.069  24.403  0.00  0.00    +0.000 OA
ENDROOT
BRANCH   1  24
ATOM     20  C   UNL     1      -3.657  11.370  17.080  0.00  0.00    +0.000 A 
ATOM     21  C   UNL     1      -3.262  10.224  16.396  0.00  0.00    +0.000 A 
ATOM     22  C   UNL     1      -2.029   9.623  16.679  0.00  0.00    +0.000 A 
ATOM     23  C   UNL     1      -1.231  10.113  17.719  0.00  0.00    +0.000 A 
ATOM     24  C   UNL     1      -1.642  11.235  18.441  0.00  0.00    +0.000 A 
ATOM     25  C   UNL     1      -2.799  11.923  18.022  0.00  0.00    +0.000 A 
BRANCH  20  27
ATOM     26  C   UNL     1      -5.632  12.277  18.000  0.00  0.00    +0.000 C 
ATOM     27  O   UNL     1      -4.926  11.826  16.841  0.00  0.00    +0.000 OA
ENDBRANCH  20  27
ENDBRANCH   1  24
BRANCH   3  28
ATOM     28  O   UNL     1       1.034  12.705  17.779  0.00  0.00    +0.000 OA
ATOM     29  H   UNL     1       1.687  11.982  17.729  0.00  0.00    +0.000 HD
ENDBRANCH   3  28
TORSDOF 3
ENDMDL
MODEL 6
REMARK VINA RESULT:      -6.9      1.888      4.741
REMARK  Name = 
REMARK  6 active torsions:
REMARK  status: ('A' for Active; 'I' for Inactive)
REMARK    1  A    between atoms: C_1  and  O_2
REMARK    2  A    between atoms: O_2  and  C_3
REMARK    3  A    between atoms: C_7  and  C_8
REMARK    4  A    between atoms: C_10  and  O_11
REMARK    5  A    between atoms: C_13  and  C_14
REMARK    6  A    between atoms: C_13  and  C_15
REMARK                            x       y       z     vdW  Elec       q    Type
REMARK                         _______ _______ _______ _____ _____    ______ ____
ROOT
ATOM      1  C   UNL     1       3.574   7.061  19.025  0.00  0.00    +0.000 C 
ATOM      2  C   UNL     1       2.967   5.847  19.655  0.00  0.00    +0.000 C 
ATOM      3  C   UNL     1       1.786   5.487  20.183  0.00  0.00    +0.000 C 
ATOM      4  C   UNL     1       1.451   4.044  20.460  0.00  0.00    +0.000 C 
ATOM      5  C   UNL     1       2.058   3.062  19.418  0.00  0.00    +0.000 C 
ATOM      6  C   UNL     1       1.105   2.948  18.206  0.00  0.00    +0.000 C 
ATOM      7  C   UNL     1       2.210   1.682  20.058  0.00  0.00    +0.000 C 
ATOM      8  C   UNL     1       3.457   3.486  18.937  0.00  0.00    +0.000 C 
ATOM      9  C   UNL     1       3.963   4.730  19.627  0.00  0.00    +0.000 C 
ATOM     10  N   UNL     1       5.242   4.988  19.687  0.00  0.00    +0.000 NA
ATOM     11  C   UNL     1       5.643   5.833  18.612  0.00  0.00    +0.000 A 
ATOM     12  C   UNL     1       6.774   5.411  17.928  0.00  0.00    +0.000 A 
ATOM     13  C   UNL     1       6.632   5.330  16.572  0.00  0.00    +0.000 A 
ATOM     14  C   UNL     1       5.472   5.733  15.942  0.00  0.00    +0.000 A 
ATOM     15  C   UNL     1       4.454   6.416  16.604  0.00  0.00    +0.000 A 
ATOM     16  C   UNL     1       4.600   6.584  17.982  0.00  0.00    +0.000 A 
ATOM     17  O   UNL     1       5.425   5.277  14.657  0.00  0.00    +0.000 OA
ATOM     18  C   UNL     1       6.688   4.583  14.561  0.00  0.00    +0.000 C 
ATOM     19  O   UNL     1       7.491   4.672  15.751  0.00  0.00    +0.000 OA
ENDROOT
BRANCH   1  24
ATOM     20  C   UNL     1       0.961   9.587  19.847  0.00  0.00    +0.000 A 
ATOM     21  C   UNL     1       0.168   9.575  18.703  0.00  0.00    +0.000 A 
ATOM     22  C   UNL     1       0.611   8.927  17.544  0.00  0.00    +0.000 A 
ATOM     23  C   UNL     1       1.809   8.203  17.557  0.00  0.00    +0.000 A 
ATOM     24  C   UNL     1       2.588   8.171  18.715  0.00  0.00    +0.000 A 
ATOM     25  C   UNL     1       2.208   8.974  19.810  0.00  0.00    +0.000 A 
BRANCH  20  27
ATOM     26  C   UNL     1       0.722   9.439  22.190  0.00  0.00    +0.000 C 
ATOM     27  O   UNL     1       0.409  10.129  20.976  0.00  0.00    +0.000 OA
ENDBRANCH  20  27
ENDBRANCH   1  24
BRANCH   3  28
ATOM     28  O   UNL     1       0.765   6.363  20.494  0.00  0.00    +0.000 OA
ATOM     29  H   UNL     1      -0.069   6.050  20.097  0.00  0.00    +0.000 HD
ENDBRANCH   3  28
TORSDOF 3
ENDMDL
MODEL 7
REMARK VINA RESULT:      -6.8      8.455     11.241
REMARK  Name = 
REMARK  6 active torsions:
REMARK  status: ('A' for Active; 'I' for Inactive)
REMARK    1  A    between atoms: C_1  and  O_2
REMARK    2  A    between atoms: O_2  and  C_3
REMARK    3  A    between atoms: C_7  and  C_8
REMARK    4  A    between atoms: C_10  and  O_11
REMARK    5  A    between atoms: C_13  and  C_14
REMARK    6  A    between atoms: C_13  and  C_15
REMARK                            x       y       z     vdW  Elec       q    Type
REMARK                         _______ _______ _______ _____ _____    ______ ____
ROOT
ATOM      1  C   UNL     1       9.627  14.621  20.385  0.00  0.00    +0.000 C 
ATOM      2  C   UNL     1       8.519  15.541  19.978  0.00  0.00    +0.000 C 
ATOM      3  C   UNL     1       7.982  16.005  18.837  0.00  0.00    +0.000 C 
ATOM      4  C   UNL     1       6.648  16.707  18.821  0.00  0.00    +0.000 C 
ATOM      5  C   UNL     1       5.644  16.142  19.866  0.00  0.00    +0.000 C 
ATOM      6  C   UNL     1       4.902  14.929  19.260  0.00  0.00    +0.000 C 
ATOM      7  C   UNL     1       4.621  17.224  20.214  0.00  0.00    +0.000 C 
ATOM      8  C   UNL     1       6.321  15.729  21.185  0.00  0.00    +0.000 C 
ATOM      9  C   UNL     1       7.802  16.018  21.201  0.00  0.00    +0.000 C 
ATOM     10  N   UNL     1       8.445  16.149  22.331  0.00  0.00    +0.000 NA
ATOM     11  C   UNL     1       9.028  14.912  22.733  0.00  0.00    +0.000 A 
ATOM     12  C   UNL     1       8.795  14.559  24.055  0.00  0.00    +0.000 A 
ATOM     13  C   UNL     1       8.290  13.303  24.237  0.00  0.00    +0.000 A 
ATOM     14  C   UNL     1       8.120  12.433  23.179  0.00  0.00    +0.000 A 
ATOM     15  C   UNL     1       8.618  12.692  21.904  0.00  0.00    +0.000 A 
ATOM     16  C   UNL     1       9.210  13.939  21.699  0.00  0.00    +0.000 A 
ATOM     17  O   UNL     1       7.324  11.382  23.529  0.00  0.00    +0.000 OA
ATOM     18  C   UNL     1       7.054  11.686  24.915  0.00  0.00    +0.000 C 
ATOM     19  O   UNL     1       7.721  12.868  25.391  0.00  0.00    +0.000 OA
ENDROOT
BRANCH   1  24
ATOM     20  C   UNL     1      10.020  11.676  18.137  0.00  0.00    +0.000 A 
ATOM     21  C   UNL     1      11.392  11.662  17.904  0.00  0.00    +0.000 A 
ATOM     22  C   UNL     1      12.181  12.759  18.272  0.00  0.00    +0.000 A 
ATOM     23  C   UNL     1      11.612  13.833  18.967  0.00  0.00    +0.000 A 
ATOM     24  C   UNL     1      10.244  13.833  19.245  0.00  0.00    +0.000 A 
ATOM     25  C   UNL     1       9.444  12.803  18.711  0.00  0.00    +0.000 A 
BRANCH  20  27
ATOM     26  C   UNL     1       9.031   9.720  19.011  0.00  0.00    +0.000 C 
ATOM     27  O   UNL     1       9.335  10.521  17.866  0.00  0.00    +0.000 OA
ENDBRANCH  20  27
ENDBRANCH   1  24
BRANCH   3  28
ATOM     28  O   UNL     1       8.553  15.871  17.587  0.00  0.00    +0.000 OA
ATOM     29  H   UNL     1       7.940  16.208  16.908  0.00  0.00    +0.000 HD
ENDBRANCH   3  28
TORSDOF 3
ENDMDL
MODEL 8
REMARK VINA RESULT:      -6.8      6.933     11.374
REMARK  Name = 
REMARK  6 active torsions:
REMARK  status: ('A' for Active; 'I' for Inactive)
REMARK    1  A    between atoms: C_1  and  O_2
REMARK    2  A    between atoms: O_2  and  C_3
REMARK    3  A    between atoms: C_7  and  C_8
REMARK    4  A    between atoms: C_10  and  O_11
REMARK    5  A    between atoms: C_13  and  C_14
REMARK    6  A    between atoms: C_13  and  C_15
REMARK                            x       y       z     vdW  Elec       q    Type
REMARK                         _______ _______ _______ _____ _____    ______ ____
ROOT
ATOM      1  C   UNL     1      -2.252  12.663  23.145  0.00  0.00    +0.000 C 
ATOM      2  C   UNL     1      -1.825  14.097  23.176  0.00  0.00    +0.000 C 
ATOM      3  C   UNL     1      -0.718  14.810  22.907  0.00  0.00    +0.000 C 
ATOM      4  C   UNL     1      -0.758  16.310  22.772  0.00  0.00    +0.000 C 
ATOM      5  C   UNL     1      -2.077  16.835  22.135  0.00  0.00    +0.000 C 
ATOM      6  C   UNL     1      -1.951  16.798  20.595  0.00  0.00    +0.000 C 
ATOM      7  C   UNL     1      -2.308  18.279  22.578  0.00  0.00    +0.000 C 
ATOM      8  C   UNL     1      -3.315  16.032  22.573  0.00  0.00    +0.000 C 
ATOM      9  C   UNL     1      -2.989  14.948  23.572  0.00  0.00    +0.000 C 
ATOM     10  N   UNL     1      -3.912  14.473  24.366  0.00  0.00    +0.000 NA
ATOM     11  C   UNL     1      -4.512  13.306  23.810  0.00  0.00    +0.000 A 
ATOM     12  C   UNL     1      -5.899  13.297  23.828  0.00  0.00    +0.000 A 
ATOM     13  C   UNL     1      -6.490  13.033  22.625  0.00  0.00    +0.000 A 
ATOM     14  C   UNL     1      -5.744  12.708  21.509  0.00  0.00    +0.000 A 
ATOM     15  C   UNL     1      -4.378  12.443  21.569  0.00  0.00    +0.000 A 
ATOM     16  C   UNL     1      -3.752  12.630  22.802  0.00  0.00    +0.000 A 
ATOM     17  O   UNL     1      -6.493  12.798  20.373  0.00  0.00    +0.000 OA
ATOM     18  C   UNL     1      -7.777  13.179  20.914  0.00  0.00    +0.000 C 
ATOM     19  O   UNL     1      -7.800  13.263  22.349  0.00  0.00    +0.000 OA
ENDROOT
BRANCH   1  24
ATOM     20  C   UNL     1      -0.781  10.792  20.278  0.00  0.00    +0.000 A 
ATOM     21  C   UNL     1      -0.354   9.613  20.883  0.00  0.00    +0.000 A 
ATOM     22  C   UNL     1      -0.312   9.511  22.279  0.00  0.00    +0.000 A 
ATOM     23  C   UNL     1      -0.794  10.556  23.075  0.00  0.00    +0.000 A 
ATOM     24  C   UNL     1      -1.267  11.725  22.475  0.00  0.00    +0.000 A 
ATOM     25  C   UNL     1      -1.135  11.871  21.079  0.00  0.00    +0.000 A 
BRANCH  20  27
ATOM     26  C   UNL     1      -1.192  12.046  18.322  0.00  0.00    +0.000 C 
ATOM     27  O   UNL     1      -0.915  10.775  18.916  0.00  0.00    +0.000 OA
ENDBRANCH  20  27
ENDBRANCH   1  24
BRANCH   3  28
ATOM     28  O   UNL     1       0.535  14.267  22.699  0.00  0.00    +0.000 OA
ATOM     29  H   UNL     1       0.906  14.608  21.864  0.00  0.00    +0.000 HD
ENDBRANCH   3  28
TORSDOF 3
ENDMDL
MODEL 9
REMARK VINA RESULT:      -6.8      2.163      4.770
REMARK  Name = 
REMARK  6 active torsions:
REMARK  status: ('A' for Active; 'I' for Inactive)
REMARK    1  A    between atoms: C_1  and  O_2
REMARK    2  A    between atoms: O_2  and  C_3
REMARK    3  A    between atoms: C_7  and  C_8
REMARK    4  A    between atoms: C_10  and  O_11
REMARK    5  A    between atoms: C_13  and  C_14
REMARK    6  A    between atoms: C_13  and  C_15
REMARK                            x       y       z     vdW  Elec       q    Type
REMARK                         _______ _______ _______ _____ _____    ______ ____
ROOT
ATOM      1  C   UNL     1       3.713   7.432  18.451  0.00  0.00    +0.000 C 
ATOM      2  C   UNL     1       3.274   6.384  19.425  0.00  0.00    +0.000 C 
ATOM      3  C   UNL     1       2.183   6.103  20.157  0.00  0.00    +0.000 C 
ATOM      4  C   UNL     1       1.998   4.760  20.816  0.00  0.00    +0.000 C 
ATOM      5  C   UNL     1       2.582   3.582  19.984  0.00  0.00    +0.000 C 
ATOM      6  C   UNL     1       1.529   3.112  18.955  0.00  0.00    +0.000 C 
ATOM      7  C   UNL     1       2.910   2.420  20.922  0.00  0.00    +0.000 C 
ATOM      8  C   UNL     1       3.888   3.950  19.257  0.00  0.00    +0.000 C 
ATOM      9  C   UNL     1       4.352   5.355  19.558  0.00  0.00    +0.000 C 
ATOM     10  N   UNL     1       5.605   5.691  19.406  0.00  0.00    +0.000 NA
ATOM     11  C   UNL     1       5.828   6.259  18.118  0.00  0.00    +0.000 A 
ATOM     12  C   UNL     1       6.919   5.743  17.433  0.00  0.00    +0.000 A 
ATOM     13  C   UNL     1       6.653   5.313  16.164  0.00  0.00    +0.000 A 
ATOM     14  C   UNL     1       5.408   5.477  15.591  0.00  0.00    +0.000 A 
ATOM     15  C   UNL     1       4.405   6.246  16.178  0.00  0.00    +0.000 A 
ATOM     16  C   UNL     1       4.669   6.765  17.446  0.00  0.00    +0.000 A 
ATOM     17  O   UNL     1       5.275   4.709  14.472  0.00  0.00    +0.000 OA
ATOM     18  C   UNL     1       6.577   4.086  14.404  0.00  0.00    +0.000 C 
ATOM     19  O   UNL     1       7.481   4.519  15.436  0.00  0.00    +0.000 OA
ENDROOT
BRANCH   1  24
ATOM     20  C   UNL     1       1.507  10.425  18.691  0.00  0.00    +0.000 A 
ATOM     21  C   UNL     1       0.314   9.957  18.149  0.00  0.00    +0.000 A 
ATOM     22  C   UNL     1       0.280   8.735  17.466  0.00  0.00    +0.000 A 
ATOM     23  C   UNL     1       1.423   7.929  17.411  0.00  0.00    +0.000 A 
ATOM     24  C   UNL     1       2.612   8.369  17.993  0.00  0.00    +0.000 A 
ATOM     25  C   UNL     1       2.665   9.677  18.519  0.00  0.00    +0.000 A 
BRANCH  20  27
ATOM     26  C   UNL     1       0.563  11.479  20.580  0.00  0.00    +0.000 C 
ATOM     27  O   UNL     1       1.437  11.562  19.451  0.00  0.00    +0.000 OA
ENDBRANCH  20  27
ENDBRANCH   1  24
BRANCH   3  28
ATOM     28  O   UNL     1       1.127   6.969  20.359  0.00  0.00    +0.000 OA
ATOM     29  H   UNL     1       1.434   7.751  20.855  0.00  0.00    +0.000 HD
ENDBRANCH   3  28
TORSDOF 3
ENDMDL
