MODEL 1
REMARK VINA RESULT:      -6.8      0.000      0.000
REMARK  Name = 
REMARK  3 active torsions:
REMARK  status: ('A' for Active; 'I' for Inactive)
REMARK    1  A    between atoms: C_1  and  C_2
REMARK    2  A    between atoms: N_15  and  C_16
REMARK    3  A    between atoms: C_16  and  C_17
REMARK                            x       y       z     vdW  Elec       q    Type
REMARK                         _______ _______ _______ _____ _____    ______ ____
ROOT
ATOM      1  C   UNL     1      -3.122  10.472  15.308  0.00  0.00    +0.000 C 
ATOM      2  C   UNL     1      -3.102  11.008  16.707  0.00  0.00    +0.000 A 
ATOM      3  N   UNL     1      -4.281  11.418  17.221  0.00  0.00    +0.000 NA
ATOM      4  C   UNL     1      -4.324  11.921  18.469  0.00  0.00    +0.000 A 
ATOM      5  N   UNL     1      -5.524  12.448  18.915  0.00  0.00    +0.000 N 
ATOM      6  C   UNL     1      -6.792  11.972  18.355  0.00  0.00    +0.000 C 
ATOM      7  C   UNL     1      -7.575  13.116  17.707  0.00  0.00    +0.000 C 
ATOM      8  C   UNL     1      -7.729  14.300  18.656  0.00  0.00    +0.000 C 
ATOM      9  C   UNL     1      -6.367  14.760  19.142  0.00  0.00    +0.000 C 
ATOM     10  C   UNL     1      -5.586  13.620  19.789  0.00  0.00    +0.000 C 
ATOM     11  C   UNL     1      -3.157  11.927  19.213  0.00  0.00    +0.000 A 
ATOM     12  S   UNL     1      -2.842  12.371  20.896  0.00  0.00    +0.000 S 
ATOM     13  C   UNL     1      -1.119  12.509  20.567  0.00  0.00    +0.000 A 
ATOM     14  S   UNL     1      -0.120  13.414  21.549  0.00  0.00    +0.000 S 
ATOM     15  N   UNL     1      -0.827  11.849  19.379  0.00  0.00    +0.000 N 
ATOM     16  C   UNL     1      -1.977  11.559  18.589  0.00  0.00    +0.000 A 
ATOM     17  N   UNL     1      -1.912  11.081  17.338  0.00  0.00    +0.000 NA
ENDROOT
BRANCH  15  18
ATOM     18  C   UNL     1       0.512  11.664  18.838  0.00  0.00    +0.000 C 
BRANCH  18  19
ATOM     19  C   UNL     1       1.032  10.247  18.977  0.00  0.00    +0.000 A 
ATOM     20  C   UNL     1       1.690   9.629  17.906  0.00  0.00    +0.000 A 
ATOM     21  C   UNL     1       2.266   8.365  18.057  0.00  0.00    +0.000 A 
ATOM     22  C   UNL     1       2.169   7.691  19.273  0.00  0.00    +0.000 A 
ATOM     23  C   UNL     1       1.477   8.272  20.332  0.00  0.00    +0.000 A 
ATOM     24  C   UNL     1       0.913   9.539  20.185  0.00  0.00    +0.000 A 
ENDBRANCH  18  19
ENDBRANCH  15  18
TORSDOF 2
ENDMDL
MODEL 2
REMARK VINA RESULT:      -6.7      1.357      7.208
REMARK  Name = 
REMARK  3 active torsions:
REMARK  status: ('A' for Active; 'I' for Inactive)
REMARK    1  A    between atoms: C_1  and  C_2
REMARK    2  A    between atoms: N_15  and  C_16
REMARK    3  A    between atoms: C_16  and  C_17
REMARK                            x       y       z     vdW  Elec       q    Type
REMARK                         _______ _______ _______ _____ _____    ______ ____
ROOT
ATOM      1  C   UNL     1      -2.936  10.272  15.439  0.00  0.00    +0.000 C 
ATOM      2  C   UNL     1      -2.855  10.821  16.831  0.00  0.00    +0.000 A 
ATOM      3  N   UNL     1      -1.701  10.616  17.501  0.00  0.00    +0.000 NA
ATOM      4  C   UNL     1      -1.573  11.076  18.760  0.00  0.00    +0.000 A 
ATOM      5  N   UNL     1      -0.429  10.737  19.461  0.00  0.00    +0.000 N 
ATOM      6  C   UNL     1       0.812  10.433  18.744  0.00  0.00    +0.000 C 
ATOM      7  C   UNL     1       1.299   9.016  19.053  0.00  0.00    +0.000 C 
ATOM      8  C   UNL     1       1.381   8.766  20.556  0.00  0.00    +0.000 C 
ATOM      9  C   UNL     1       0.040   9.052  21.207  0.00  0.00    +0.000 C 
ATOM     10  C   UNL     1      -0.444  10.465  20.899  0.00  0.00    +0.000 C 
ATOM     11  C   UNL     1      -2.613  11.816  19.295  0.00  0.00    +0.000 A 
ATOM     12  S   UNL     1      -2.766  12.684  20.830  0.00  0.00    +0.000 S 
ATOM     13  C   UNL     1      -4.516  12.736  20.659  0.00  0.00    +0.000 A 
ATOM     14  S   UNL     1      -5.509  12.955  21.981  0.00  0.00    +0.000 S 
ATOM     15  N   UNL     1      -4.853  12.482  19.334  0.00  0.00    +0.000 N 
ATOM     16  C   UNL     1      -3.789  11.918  18.572  0.00  0.00    +0.000 A 
ATOM     17  N   UNL     1      -3.943  11.444  17.328  0.00  0.00    +0.000 NA
ENDROOT
BRANCH  15  18
ATOM     18  C   UNL     1      -6.203  12.543  18.793  0.00  0.00    +0.000 C 
BRANCH  18  19
ATOM     19  C   UNL     1      -6.528  13.860  18.119  0.00  0.00    +0.000 A 
ATOM     20  C   UNL     1      -6.874  13.892  16.762  0.00  0.00    +0.000 A 
ATOM     21  C   UNL     1      -7.277  15.084  16.156  0.00  0.00    +0.000 A 
ATOM     22  C   UNL     1      -7.316  16.267  16.893  0.00  0.00    +0.000 A 
ATOM     23  C   UNL     1      -6.930  16.261  18.230  0.00  0.00    +0.000 A 
ATOM     24  C   UNL     1      -6.538  15.068  18.838  0.00  0.00    +0.000 A 
ENDBRANCH  18  19
ENDBRANCH  15  18
TORSDOF 2
ENDMDL
MODEL 3
REMARK VINA RESULT:      -6.6      0.334      1.037
REMARK  Name = 
REMARK  3 active torsions:
REMARK  status: ('A' for Active; 'I' for Inactive)
REMARK    1  A    between atoms: C_1  and  C_2
REMARK    2  A    between atoms: N_15  and  C_16
REMARK    3  A    between atoms: C_16  and  C_17
REMARK                            x       y       z     vdW  Elec       q    Type
REMARK                         _______ _______ _______ _____ _____    ______ ____
ROOT
ATOM      1  C   UNL     1      -3.556  10.590  15.433  0.00  0.00    +0.000 C 
ATOM      2  C   UNL     1      -3.438  11.137  16.824  0.00  0.00    +0.000 A 
ATOM      3  N   UNL     1      -4.578  11.560  17.411  0.00  0.00    +0.000 NA
ATOM      4  C   UNL     1      -4.534  12.072  18.656  0.00  0.00    +0.000 A 
ATOM      5  N   UNL     1      -5.697  12.612  19.176  0.00  0.00    +0.000 N 
ATOM      6  C   UNL     1      -7.003  12.142  18.705  0.00  0.00    +0.000 C 
ATOM      7  C   UNL     1      -7.819  13.287  18.102  0.00  0.00    +0.000 C 
ATOM      8  C   UNL     1      -7.901  14.480  19.049  0.00  0.00    +0.000 C 
ATOM      9  C   UNL     1      -6.506  14.932  19.441  0.00  0.00    +0.000 C 
ATOM     10  C   UNL     1      -5.692  13.791  20.043  0.00  0.00    +0.000 C 
ATOM     11  C   UNL     1      -3.320  12.074  19.320  0.00  0.00    +0.000 A 
ATOM     12  S   UNL     1      -2.890  12.529  20.975  0.00  0.00    +0.000 S 
ATOM     13  C   UNL     1      -1.192  12.650  20.531  0.00  0.00    +0.000 A 
ATOM     14  S   UNL     1      -0.123  13.555  21.437  0.00  0.00    +0.000 S 
ATOM     15  N   UNL     1      -0.985  11.979  19.331  0.00  0.00    +0.000 N 
ATOM     16  C   UNL     1      -2.187  11.693  18.622  0.00  0.00    +0.000 A 
ATOM     17  N   UNL     1      -2.208  11.205  17.374  0.00  0.00    +0.000 NA
ENDROOT
BRANCH  15  18
ATOM     18  C   UNL     1       0.314  11.780  18.704  0.00  0.00    +0.000 C 
BRANCH  18  19
ATOM     19  C   UNL     1       0.933  10.430  19.009  0.00  0.00    +0.000 A 
ATOM     20  C   UNL     1       0.784   9.856  20.279  0.00  0.00    +0.000 A 
ATOM     21  C   UNL     1       1.259   8.569  20.539  0.00  0.00    +0.000 A 
ATOM     22  C   UNL     1       1.911   7.846  19.541  0.00  0.00    +0.000 A 
ATOM     23  C   UNL     1       2.109   8.422  18.289  0.00  0.00    +0.000 A 
ATOM     24  C   UNL     1       1.625   9.703  18.026  0.00  0.00    +0.000 A 
ENDBRANCH  18  19
ENDBRANCH  15  18
TORSDOF 2
ENDMDL
MODEL 4
REMARK VINA RESULT:      -6.5      1.803      6.837
REMARK  Name = 
REMARK  3 active torsions:
REMARK  status: ('A' for Active; 'I' for Inactive)
REMARK    1  A    between atoms: C_1  and  C_2
REMARK    2  A    between atoms: N_15  and  C_16
REMARK    3  A    between atoms: C_16  and  C_17
REMARK                            x       y       z     vdW  Elec       q    Type
REMARK                         _______ _______ _______ _____ _____    ______ ____
ROOT
ATOM      1  C   UNL     1      -2.610  10.494  16.116  0.00  0.00    +0.000 C 
ATOM      2  C   UNL     1      -2.229  10.934  17.498  0.00  0.00    +0.000 A 
ATOM      3  N   UNL     1      -1.071  10.449  17.995  0.00  0.00    +0.000 NA
ATOM      4  C   UNL     1      -0.683  10.799  19.235  0.00  0.00    +0.000 A 
ATOM      5  N   UNL     1       0.441  10.184  19.760  0.00  0.00    +0.000 N 
ATOM      6  C   UNL     1       1.481   9.663  18.868  0.00  0.00    +0.000 C 
ATOM      7  C   UNL     1       1.681   8.160  19.068  0.00  0.00    +0.000 C 
ATOM      8  C   UNL     1       1.901   7.812  20.537  0.00  0.00    +0.000 C 
ATOM      9  C   UNL     1       0.753   8.341  21.376  0.00  0.00    +0.000 C 
ATOM     10  C   UNL     1       0.554   9.840  21.178  0.00  0.00    +0.000 C 
ATOM     11  C   UNL     1      -1.455  11.712  19.931  0.00  0.00    +0.000 A 
ATOM     12  S   UNL     1      -1.213  12.503  21.495  0.00  0.00    +0.000 S 
ATOM     13  C   UNL     1      -2.916  12.938  21.571  0.00  0.00    +0.000 A 
ATOM     14  S   UNL     1      -3.656  13.288  23.025  0.00  0.00    +0.000 S 
ATOM     15  N   UNL     1      -3.470  12.837  20.300  0.00  0.00    +0.000 N 
ATOM     16  C   UNL     1      -2.665  12.104  19.382  0.00  0.00    +0.000 A 
ATOM     17  N   UNL     1      -3.080  11.745  18.159  0.00  0.00    +0.000 NA
ENDROOT
BRANCH  15  18
ATOM     18  C   UNL     1      -4.833  13.216  19.956  0.00  0.00    +0.000 C 
BRANCH  18  19
ATOM     19  C   UNL     1      -5.865  12.169  20.324  0.00  0.00    +0.000 A 
ATOM     20  C   UNL     1      -6.631  12.312  21.488  0.00  0.00    +0.000 A 
ATOM     21  C   UNL     1      -7.656  11.410  21.782  0.00  0.00    +0.000 A 
ATOM     22  C   UNL     1      -7.913  10.338  20.929  0.00  0.00    +0.000 A 
ATOM     23  C   UNL     1      -7.130  10.155  19.794  0.00  0.00    +0.000 A 
ATOM     24  C   UNL     1      -6.113  11.063  19.494  0.00  0.00    +0.000 A 
ENDBRANCH  18  19
ENDBRANCH  15  18
TORSDOF 2
ENDMDL
MODEL 5
REMARK VINA RESULT:      -6.5      3.737      6.132
REMARK  Name = 
REMARK  3 active torsions:
REMARK  status: ('A' for Active; 'I' for Inactive)
REMARK    1  A    between atoms: C_1  and  C_2
REMARK    2  A    between atoms: N_15  and  C_16
REMARK    3  A    between atoms: C_16  and  C_17
REMARK                            x       y       z     vdW  Elec       q    Type
REMARK                         _______ _______ _______ _____ _____    ______ ____
ROOT
ATOM      1  C   UNL     1      -0.251   9.415  23.344  0.00  0.00    +0.000 C 
ATOM      2  C   UNL     1       0.215   9.242  21.931  0.00  0.00    +0.000 A 
ATOM      3  N   UNL     1      -0.365  10.026  20.997  0.00  0.00    +0.000 NA
ATOM      4  C   UNL     1       0.005   9.908  19.707  0.00  0.00    +0.000 A 
ATOM      5  N   UNL     1      -0.700  10.634  18.763  0.00  0.00    +0.000 N 
ATOM      6  C   UNL     1      -1.374  11.879  19.141  0.00  0.00    +0.000 C 
ATOM      7  C   UNL     1      -2.878  11.798  18.873  0.00  0.00    +0.000 C 
ATOM      8  C   UNL     1      -3.171  11.351  17.445  0.00  0.00    +0.000 C 
ATOM      9  C   UNL     1      -2.480  10.030  17.158  0.00  0.00    +0.000 C 
ATOM     10  C   UNL     1      -0.981  10.111  17.425  0.00  0.00    +0.000 C 
ATOM     11  C   UNL     1       1.030   9.032  19.398  0.00  0.00    +0.000 A 
ATOM     12  S   UNL     1       1.870   8.701  17.876  0.00  0.00    +0.000 S 
ATOM     13  C   UNL     1       2.488   7.182  18.514  0.00  0.00    +0.000 A 
ATOM     14  S   UNL     1       2.989   5.957  17.499  0.00  0.00    +0.000 S 
ATOM     15  N   UNL     1       2.382   7.193  19.900  0.00  0.00    +0.000 N 
ATOM     16  C   UNL     1       1.520   8.211  20.400  0.00  0.00    +0.000 A 
ATOM     17  N   UNL     1       1.146   8.297  21.684  0.00  0.00    +0.000 NA
ENDROOT
BRANCH  15  18
ATOM     18  C   UNL     1       2.887   6.149  20.780  0.00  0.00    +0.000 C 
BRANCH  18  19
ATOM     19  C   UNL     1       2.419   4.758  20.401  0.00  0.00    +0.000 A 
ATOM     20  C   UNL     1       1.051   4.459  20.365  0.00  0.00    +0.000 A 
ATOM     21  C   UNL     1       0.604   3.214  19.915  0.00  0.00    +0.000 A 
ATOM     22  C   UNL     1       1.521   2.242  19.518  0.00  0.00    +0.000 A 
ATOM     23  C   UNL     1       2.885   2.507  19.592  0.00  0.00    +0.000 A 
ATOM     24  C   UNL     1       3.331   3.755  20.031  0.00  0.00    +0.000 A 
ENDBRANCH  18  19
ENDBRANCH  15  18
TORSDOF 2
ENDMDL
MODEL 6
REMARK VINA RESULT:      -6.2      1.895      7.284
REMARK  Name = 
REMARK  3 active torsions:
REMARK  status: ('A' for Active; 'I' for Inactive)
REMARK    1  A    between atoms: C_1  and  C_2
REMARK    2  A    between atoms: N_15  and  C_16
REMARK    3  A    between atoms: C_16  and  C_17
REMARK                            x       y       z     vdW  Elec       q    Type
REMARK                         _______ _______ _______ _____ _____    ______ ____
ROOT
ATOM      1  C   UNL     1      -2.641  10.637  16.847  0.00  0.00    +0.000 C 
ATOM      2  C   UNL     1      -2.786  11.259  18.203  0.00  0.00    +0.000 A 
ATOM      3  N   UNL     1      -1.748  11.114  19.054  0.00  0.00    +0.000 NA
ATOM      4  C   UNL     1      -1.824  11.642  20.291  0.00  0.00    +0.000 A 
ATOM      5  N   UNL     1      -0.798  11.365  21.178  0.00  0.00    +0.000 N 
ATOM      6  C   UNL     1       0.544  11.053  20.679  0.00  0.00    +0.000 C 
ATOM      7  C   UNL     1       0.996   9.665  21.136  0.00  0.00    +0.000 C 
ATOM      8  C   UNL     1       0.847   9.494  22.645  0.00  0.00    +0.000 C 
ATOM      9  C   UNL     1      -0.583   9.783  23.064  0.00  0.00    +0.000 C 
ATOM     10  C   UNL     1      -1.034  11.167  22.609  0.00  0.00    +0.000 C 
ATOM     11  C   UNL     1      -2.945  12.385  20.618  0.00  0.00    +0.000 A 
ATOM     12  S   UNL     1      -3.347  13.327  22.061  0.00  0.00    +0.000 S 
ATOM     13  C   UNL     1      -5.050  13.331  21.618  0.00  0.00    +0.000 A 
ATOM     14  S   UNL     1      -6.240  13.594  22.757  0.00  0.00    +0.000 S 
ATOM     15  N   UNL     1      -5.173  13.001  20.273  0.00  0.00    +0.000 N 
ATOM     16  C   UNL     1      -3.996  12.423  19.717  0.00  0.00    +0.000 A 
ATOM     17  N   UNL     1      -3.948  11.881  18.491  0.00  0.00    +0.000 NA
ENDROOT
BRANCH  15  18
ATOM     18  C   UNL     1      -6.424  13.003  19.528  0.00  0.00    +0.000 C 
BRANCH  18  19
ATOM     19  C   UNL     1      -6.566  14.182  18.586  0.00  0.00    +0.000 A 
ATOM     20  C   UNL     1      -6.824  13.970  17.225  0.00  0.00    +0.000 A 
ATOM     21  C   UNL     1      -7.062  15.048  16.368  0.00  0.00    +0.000 A 
ATOM     22  C   UNL     1      -7.020  16.353  16.855  0.00  0.00    +0.000 A 
ATOM     23  C   UNL     1      -6.718  16.582  18.194  0.00  0.00    +0.000 A 
ATOM     24  C   UNL     1      -6.492  15.505  19.052  0.00  0.00    +0.000 A 
ENDBRANCH  18  19
ENDBRANCH  15  18
TORSDOF 2
ENDMDL
MODEL 7
REMARK VINA RESULT:      -6.2      3.984      8.605
REMARK  Name = 
REMARK  3 active torsions:
REMARK  status: ('A' for Active; 'I' for Inactive)
REMARK    1  A    between atoms: C_1  and  C_2
REMARK    2  A    between atoms: N_15  and  C_16
REMARK    3  A    between atoms: C_16  and  C_17
REMARK                            x       y       z     vdW  Elec       q    Type
REMARK                         _______ _______ _______ _____ _____    ______ ____
ROOT
ATOM      1  C   UNL     1       4.450   7.117  16.106  0.00  0.00    +0.000 C 
ATOM      2  C   UNL     1       3.669   7.073  17.385  0.00  0.00    +0.000 A 
ATOM      3  N   UNL     1       3.590   5.880  18.011  0.00  0.00    +0.000 NA
ATOM      4  C   UNL     1       2.893   5.776  19.158  0.00  0.00    +0.000 A 
ATOM      5  N   UNL     1       2.726   4.515  19.703  0.00  0.00    +0.000 N 
ATOM      6  C   UNL     1       3.705   3.459  19.432  0.00  0.00    +0.000 C 
ATOM      7  C   UNL     1       3.050   2.257  18.750  0.00  0.00    +0.000 C 
ATOM      8  C   UNL     1       1.823   1.774  19.518  0.00  0.00    +0.000 C 
ATOM      9  C   UNL     1       0.841   2.916  19.704  0.00  0.00    +0.000 C 
ATOM     10  C   UNL     1       1.494   4.114  20.385  0.00  0.00    +0.000 C 
ATOM     11  C   UNL     1       2.342   6.926  19.696  0.00  0.00    +0.000 A 
ATOM     12  S   UNL     1       1.489   7.216  21.219  0.00  0.00    +0.000 S 
ATOM     13  C   UNL     1       0.844   8.732  20.602  0.00  0.00    +0.000 A 
ATOM     14  S   UNL     1      -0.524   9.423  21.260  0.00  0.00    +0.000 S 
ATOM     15  N   UNL     1       1.590   9.130  19.497  0.00  0.00    +0.000 N 
ATOM     16  C   UNL     1       2.404   8.094  18.955  0.00  0.00    +0.000 A 
ATOM     17  N   UNL     1       3.072   8.210  17.799  0.00  0.00    +0.000 NA
ENDROOT
BRANCH  15  18
ATOM     18  C   UNL     1       1.414  10.387  18.785  0.00  0.00    +0.000 C 
BRANCH  18  19
ATOM     19  C   UNL     1      -0.007  10.623  18.314  0.00  0.00    +0.000 A 
ATOM     20  C   UNL     1      -0.652  11.835  18.597  0.00  0.00    +0.000 A 
ATOM     21  C   UNL     1      -1.921  12.105  18.078  0.00  0.00    +0.000 A 
ATOM     22  C   UNL     1      -2.573  11.159  17.290  0.00  0.00    +0.000 A 
ATOM     23  C   UNL     1      -1.965   9.932  17.039  0.00  0.00    +0.000 A 
ATOM     24  C   UNL     1      -0.693   9.666  17.547  0.00  0.00    +0.000 A 
ENDBRANCH  18  19
ENDBRANCH  15  18
TORSDOF 2
ENDMDL
MODEL 8
REMARK VINA RESULT:      -6.2      6.983     11.357
REMARK  Name = 
REMARK  3 active torsions:
REMARK  status: ('A' for Active; 'I' for Inactive)
REMARK    1  A    between atoms: C_1  and  C_2
REMARK    2  A    between atoms: N_15  and  C_16
REMARK    3  A    between atoms: C_16  and  C_17
REMARK                            x       y       z     vdW  Elec       q    Type
REMARK                         _______ _______ _______ _____ _____    ______ ____
ROOT
ATOM      1  C   UNL     1       7.685   7.930  17.591  0.00  0.00    +0.000 C 
ATOM      2  C   UNL     1       6.792   6.746  17.378  0.00  0.00    +0.000 A 
ATOM      3  N   UNL     1       7.017   6.002  16.274  0.00  0.00    +0.000 NA
ATOM      4  C   UNL     1       6.240   4.932  16.024  0.00  0.00    +0.000 A 
ATOM      5  N   UNL     1       6.415   4.270  14.821  0.00  0.00    +0.000 N 
ATOM      6  C   UNL     1       7.711   4.315  14.137  0.00  0.00    +0.000 C 
ATOM      7  C   UNL     1       7.579   4.925  12.740  0.00  0.00    +0.000 C 
ATOM      8  C   UNL     1       6.480   4.243  11.930  0.00  0.00    +0.000 C 
ATOM      9  C   UNL     1       5.166   4.292  12.688  0.00  0.00    +0.000 C 
ATOM     10  C   UNL     1       5.297   3.683  14.081  0.00  0.00    +0.000 C 
ATOM     11  C   UNL     1       5.279   4.588  16.958  0.00  0.00    +0.000 A 
ATOM     12  S   UNL     1       4.177   3.206  17.053  0.00  0.00    +0.000 S 
ATOM     13  C   UNL     1       3.168   4.054  18.219  0.00  0.00    +0.000 A 
ATOM     14  S   UNL     1       1.574   3.627  18.457  0.00  0.00    +0.000 S 
ATOM     15  N   UNL     1       3.890   5.110  18.764  0.00  0.00    +0.000 N 
ATOM     16  C   UNL     1       5.062   5.443  18.025  0.00  0.00    +0.000 A 
ATOM     17  N   UNL     1       5.809   6.527  18.276  0.00  0.00    +0.000 NA
ENDROOT
BRANCH  15  18
ATOM     18  C   UNL     1       3.418   5.973  19.837  0.00  0.00    +0.000 C 
BRANCH  18  19
ATOM     19  C   UNL     1       2.574   7.136  19.353  0.00  0.00    +0.000 A 
ATOM     20  C   UNL     1       1.788   7.861  20.258  0.00  0.00    +0.000 A 
ATOM     21  C   UNL     1       1.090   8.998  19.843  0.00  0.00    +0.000 A 
ATOM     22  C   UNL     1       1.149   9.412  18.514  0.00  0.00    +0.000 A 
ATOM     23  C   UNL     1       1.888   8.674  17.593  0.00  0.00    +0.000 A 
ATOM     24  C   UNL     1       2.594   7.545  18.009  0.00  0.00    +0.000 A 
ENDBRANCH  18  19
ENDBRANCH  15  18
TORSDOF 2
ENDMDL
MODEL 9
REMARK VINA RESULT:      -6.1      1.823      7.313
REMARK  Name = 
REMARK  3 active torsions:
REMARK  status: ('A' for Active; 'I' for Inactive)
REMARK    1  A    between atoms: C_1  and  C_2
REMARK    2  A    between atoms: N_15  and  C_16
REMARK    3  A    between atoms: C_16  and  C_17
REMARK                            x       y       z     vdW  Elec       q    Type
REMARK                         _______ _______ _______ _____ _____    ______ ____
ROOT
ATOM      1  C   UNL     1      -2.594  10.780  16.656  0.00  0.00    +0.000 C 
ATOM      2  C   UNL     1      -2.762  11.320  18.043  0.00  0.00    +0.000 A 
ATOM      3  N   UNL     1      -1.721  11.167  18.889  0.00  0.00    +0.000 NA
ATOM      4  C   UNL     1      -1.818  11.623  20.152  0.00  0.00    +0.000 A 
ATOM      5  N   UNL     1      -0.784  11.335  21.026  0.00  0.00    +0.000 N 
ATOM      6  C   UNL     1       0.570  11.100  20.514  0.00  0.00    +0.000 C 
ATOM      7  C   UNL     1       1.072   9.707  20.897  0.00  0.00    +0.000 C 
ATOM      8  C   UNL     1       0.928   9.447  22.393  0.00  0.00    +0.000 C 
ATOM      9  C   UNL     1      -0.512   9.661  22.823  0.00  0.00    +0.000 C 
ATOM     10  C   UNL     1      -1.013  11.050  22.443  0.00  0.00    +0.000 C 
ATOM     11  C   UNL     1      -2.966  12.305  20.516  0.00  0.00    +0.000 A 
ATOM     12  S   UNL     1      -3.404  13.150  22.007  0.00  0.00    +0.000 S 
ATOM     13  C   UNL     1      -5.105  13.117  21.560  0.00  0.00    +0.000 A 
ATOM     14  S   UNL     1      -6.305  13.273  22.708  0.00  0.00    +0.000 S 
ATOM     15  N   UNL     1      -5.214  12.857  20.199  0.00  0.00    +0.000 N 
ATOM     16  C   UNL     1      -4.016  12.354  19.615  0.00  0.00    +0.000 A 
ATOM     17  N   UNL     1      -3.946  11.883  18.362  0.00  0.00    +0.000 NA
ENDROOT
BRANCH  15  18
ATOM     18  C   UNL     1      -6.463  12.855  19.450  0.00  0.00    +0.000 C 
BRANCH  18  19
ATOM     19  C   UNL     1      -6.672  14.102  18.616  0.00  0.00    +0.000 A 
ATOM     20  C   UNL     1      -6.565  15.370  19.203  0.00  0.00    +0.000 A 
ATOM     21  C   UNL     1      -6.650  16.526  18.424  0.00  0.00    +0.000 A 
ATOM     22  C   UNL     1      -6.869  16.432  17.050  0.00  0.00    +0.000 A 
ATOM     23  C   UNL     1      -7.026  15.181  16.460  0.00  0.00    +0.000 A 
ATOM     24  C   UNL     1      -6.929  14.026  17.236  0.00  0.00    +0.000 A 
ENDBRANCH  18  19
ENDBRANCH  15  18
TORSDOF 2
ENDMDL
