MODEL 1
REMARK VINA RESULT:      -7.2      0.000      0.000
REMARK  Name = 
REMARK  6 active torsions:
REMARK  status: ('A' for Active; 'I' for Inactive)
REMARK    1  A    between atoms: C_1  and  N_2
REMARK    2  A    between atoms: N_2  and  C_3
REMARK    3  A    between atoms: N_2  and  C_4
REMARK    4  A    between atoms: C_4  and  C_5
REMARK    5  A    between atoms: C_5  and  N_6
REMARK    6  A    between atoms: N_6  and  C_7
REMARK                            x       y       z     vdW  Elec       q    Type
REMARK                         _______ _______ _______ _____ _____    ______ ____
ROOT
ATOM      1  C   UNL     1       4.316   4.324  17.316  0.00  0.00    +0.000 C 
ATOM      2  C   UNL     1       4.503   5.396  16.174  0.00  0.00    +0.000 C 
ATOM      3  C   UNL     1       4.807   6.792  16.774  0.00  0.00    +0.000 C 
ATOM      4  C   UNL     1       6.057   6.608  17.625  0.00  0.00    +0.000 A 
ATOM      5  C   UNL     1       7.263   7.270  17.442  0.00  0.00    +0.000 A 
ATOM      6  C   UNL     1       8.316   6.987  18.313  0.00  0.00    +0.000 A 
ATOM      7  C   UNL     1       8.156   6.058  19.352  0.00  0.00    +0.000 A 
ATOM      8  C   UNL     1       6.943   5.391  19.539  0.00  0.00    +0.000 A 
ATOM      9  C   UNL     1       5.894   5.666  18.674  0.00  0.00    +0.000 A 
ATOM     10  C   UNL     1       4.494   5.037  18.715  0.00  0.00    +0.000 C 
ATOM     11  C   UNL     1       3.484   6.182  18.762  0.00  0.00    +0.000 A 
ATOM     12  C   UNL     1       2.485   6.349  19.712  0.00  0.00    +0.000 A 
ATOM     13  C   UNL     1       1.638   7.451  19.604  0.00  0.00    +0.000 A 
ATOM     14  C   UNL     1       1.789   8.373  18.555  0.00  0.00    +0.000 A 
ATOM     15  C   UNL     1       2.796   8.212  17.600  0.00  0.00    +0.000 A 
ATOM     16  C   UNL     1       3.645   7.118  17.707  0.00  0.00    +0.000 A 
ENDROOT
BRANCH   1  17
ATOM     17  N   UNL     1       3.032   3.595  17.214  0.00  0.00    +0.000 NA
ATOM     18  H   UNL     1       2.302   4.179  17.629  0.00  0.00    +0.000 HD
BRANCH  17  19
ATOM     19  C   UNL     1       3.004   2.310  17.927  0.00  0.00    +0.000 C 
BRANCH  19  20
ATOM     20  C   UNL     1       1.965   2.227  19.068  0.00  0.00    +0.000 C 
BRANCH  20  22
ATOM     21  C   UNL     1       1.383   2.704  21.378  0.00  0.00    +0.000 C 
ATOM     22  N   UNL     1       2.393   2.873  20.328  0.00  0.00    +0.000 NA
ATOM     23  C   UNL     1       3.662   2.287  20.768  0.00  0.00    +0.000 C 
ENDBRANCH  20  22
ENDBRANCH  19  20
ENDBRANCH  17  19
ENDBRANCH   1  17
TORSDOF 4
ENDMDL
MODEL 2
REMARK VINA RESULT:      -7.2      2.346      5.766
REMARK  Name = 
REMARK  6 active torsions:
REMARK  status: ('A' for Active; 'I' for Inactive)
REMARK    1  A    between atoms: C_1  and  N_2
REMARK    2  A    between atoms: N_2  and  C_3
REMARK    3  A    between atoms: N_2  and  C_4
REMARK    4  A    between atoms: C_4  and  C_5
REMARK    5  A    between atoms: C_5  and  N_6
REMARK    6  A    between atoms: N_6  and  C_7
REMARK                            x       y       z     vdW  Elec       q    Type
REMARK                         _______ _______ _______ _____ _____    ______ ____
ROOT
ATOM      1  C   UNL     1       2.392   6.692  18.818  0.00  0.00    +0.000 C 
ATOM      2  C   UNL     1       1.762   5.822  17.664  0.00  0.00    +0.000 C 
ATOM      3  C   UNL     1       2.362   4.392  17.661  0.00  0.00    +0.000 C 
ATOM      4  C   UNL     1       2.081   3.829  19.049  0.00  0.00    +0.000 A 
ATOM      5  C   UNL     1       1.337   2.690  19.322  0.00  0.00    +0.000 A 
ATOM      6  C   UNL     1       1.172   2.307  20.654  0.00  0.00    +0.000 A 
ATOM      7  C   UNL     1       1.752   3.054  21.691  0.00  0.00    +0.000 A 
ATOM      8  C   UNL     1       2.502   4.200  21.419  0.00  0.00    +0.000 A 
ATOM      9  C   UNL     1       2.665   4.588  20.097  0.00  0.00    +0.000 A 
ATOM     10  C   UNL     1       3.447   5.812  19.599  0.00  0.00    +0.000 C 
ATOM     11  C   UNL     1       4.460   5.314  18.569  0.00  0.00    +0.000 A 
ATOM     12  C   UNL     1       5.830   5.540  18.599  0.00  0.00    +0.000 A 
ATOM     13  C   UNL     1       6.615   5.020  17.571  0.00  0.00    +0.000 A 
ATOM     14  C   UNL     1       6.033   4.284  16.525  0.00  0.00    +0.000 A 
ATOM     15  C   UNL     1       4.656   4.051  16.494  0.00  0.00    +0.000 A 
ATOM     16  C   UNL     1       3.871   4.562  17.519  0.00  0.00    +0.000 A 
ENDROOT
BRANCH   1  17
ATOM     17  N   UNL     1       2.970   7.963  18.329  0.00  0.00    +0.000 NA
ATOM     18  H   UNL     1       3.320   8.484  19.137  0.00  0.00    +0.000 HD
BRANCH  17  19
ATOM     19  C   UNL     1       2.013   8.841  17.639  0.00  0.00    +0.000 C 
BRANCH  19  20
ATOM     20  C   UNL     1       1.514  10.039  18.479  0.00  0.00    +0.000 C 
BRANCH  20  22
ATOM     21  C   UNL     1       0.787   9.814  20.786  0.00  0.00    +0.000 C 
ATOM     22  N   UNL     1       0.384   9.721  19.380  0.00  0.00    +0.000 NA
ATOM     23  C   UNL     1      -0.719  10.651  19.122  0.00  0.00    +0.000 C 
ENDBRANCH  20  22
ENDBRANCH  19  20
ENDBRANCH  17  19
ENDBRANCH   1  17
TORSDOF 4
ENDMDL
MODEL 3
REMARK VINA RESULT:      -7.0      2.812      5.772
REMARK  Name = 
REMARK  6 active torsions:
REMARK  status: ('A' for Active; 'I' for Inactive)
REMARK    1  A    between atoms: C_1  and  N_2
REMARK    2  A    between atoms: N_2  and  C_3
REMARK    3  A    between atoms: N_2  and  C_4
REMARK    4  A    between atoms: C_4  and  C_5
REMARK    5  A    between atoms: C_5  and  N_6
REMARK    6  A    between atoms: N_6  and  C_7
REMARK                            x       y       z     vdW  Elec       q    Type
REMARK                         _______ _______ _______ _____ _____    ______ ____
ROOT
ATOM      1  C   UNL     1       5.145   4.837  15.597  0.00  0.00    +0.000 C 
ATOM      2  C   UNL     1       5.882   3.755  16.476  0.00  0.00    +0.000 C 
ATOM      3  C   UNL     1       5.939   4.197  17.961  0.00  0.00    +0.000 C 
ATOM      4  C   UNL     1       4.489   4.412  18.379  0.00  0.00    +0.000 A 
ATOM      5  C   UNL     1       3.835   3.738  19.399  0.00  0.00    +0.000 A 
ATOM      6  C   UNL     1       2.499   4.053  19.656  0.00  0.00    +0.000 A 
ATOM      7  C   UNL     1       1.838   5.035  18.903  0.00  0.00    +0.000 A 
ATOM      8  C   UNL     1       2.495   5.716  17.875  0.00  0.00    +0.000 A 
ATOM      9  C   UNL     1       3.820   5.403  17.613  0.00  0.00    +0.000 A 
ATOM     10  C   UNL     1       4.706   6.036  16.530  0.00  0.00    +0.000 C 
ATOM     11  C   UNL     1       5.969   6.547  17.219  0.00  0.00    +0.000 A 
ATOM     12  C   UNL     1       6.466   7.842  17.151  0.00  0.00    +0.000 A 
ATOM     13  C   UNL     1       7.643   8.143  17.837  0.00  0.00    +0.000 A 
ATOM     14  C   UNL     1       8.313   7.156  18.580  0.00  0.00    +0.000 A 
ATOM     15  C   UNL     1       7.813   5.854  18.655  0.00  0.00    +0.000 A 
ATOM     16  C   UNL     1       6.640   5.552  17.978  0.00  0.00    +0.000 A 
ENDROOT
BRANCH   1  17
ATOM     17  N   UNL     1       5.954   5.288  14.443  0.00  0.00    +0.000 NA
ATOM     18  H   UNL     1       5.313   5.575  13.699  0.00  0.00    +0.000 HD
BRANCH  17  19
ATOM     19  C   UNL     1       6.831   4.254  13.873  0.00  0.00    +0.000 C 
BRANCH  19  20
ATOM     20  C   UNL     1       6.550   3.913  12.392  0.00  0.00    +0.000 C 
BRANCH  20  22
ATOM     21  C   UNL     1       4.349   3.321  11.549  0.00  0.00    +0.000 C 
ATOM     22  N   UNL     1       5.568   2.824  12.194  0.00  0.00    +0.000 NA
ATOM     23  C   UNL     1       6.169   1.774  11.367  0.00  0.00    +0.000 C 
ENDBRANCH  20  22
ENDBRANCH  19  20
ENDBRANCH  17  19
ENDBRANCH   1  17
TORSDOF 4
ENDMDL
MODEL 4
REMARK VINA RESULT:      -7.0      2.126      5.140
REMARK  Name = 
REMARK  6 active torsions:
REMARK  status: ('A' for Active; 'I' for Inactive)
REMARK    1  A    between atoms: C_1  and  N_2
REMARK    2  A    between atoms: N_2  and  C_3
REMARK    3  A    between atoms: N_2  and  C_4
REMARK    4  A    between atoms: C_4  and  C_5
REMARK    5  A    between atoms: C_5  and  N_6
REMARK    6  A    between atoms: N_6  and  C_7
REMARK                            x       y       z     vdW  Elec       q    Type
REMARK                         _______ _______ _______ _____ _____    ______ ____
ROOT
ATOM      1  C   UNL     1       4.125   5.827  18.090  0.00  0.00    +0.000 C 
ATOM      2  C   UNL     1       4.257   5.859  19.660  0.00  0.00    +0.000 C 
ATOM      3  C   UNL     1       2.862   5.954  20.330  0.00  0.00    +0.000 C 
ATOM      4  C   UNL     1       2.084   4.744  19.825  0.00  0.00    +0.000 A 
ATOM      5  C   UNL     1       1.551   3.740  20.619  0.00  0.00    +0.000 A 
ATOM      6  C   UNL     1       0.863   2.696  19.999  0.00  0.00    +0.000 A 
ATOM      7  C   UNL     1       0.711   2.668  18.604  0.00  0.00    +0.000 A 
ATOM      8  C   UNL     1       1.246   3.678  17.802  0.00  0.00    +0.000 A 
ATOM      9  C   UNL     1       1.934   4.716  18.414  0.00  0.00    +0.000 A 
ATOM     10  C   UNL     1       2.593   5.909  17.708  0.00  0.00    +0.000 C 
ATOM     11  C   UNL     1       2.042   7.179  18.354  0.00  0.00    +0.000 A 
ATOM     12  C   UNL     1       1.436   8.236  17.687  0.00  0.00    +0.000 A 
ATOM     13  C   UNL     1       0.994   9.330  18.431  0.00  0.00    +0.000 A 
ATOM     14  C   UNL     1       1.160   9.364  19.826  0.00  0.00    +0.000 A 
ATOM     15  C   UNL     1       1.765   8.301  20.501  0.00  0.00    +0.000 A 
ATOM     16  C   UNL     1       2.201   7.207  19.765  0.00  0.00    +0.000 A 
ENDROOT
BRANCH   1  17
ATOM     17  N   UNL     1       4.929   6.875  17.423  0.00  0.00    +0.000 NA
ATOM     18  H   UNL     1       4.309   7.658  17.201  0.00  0.00    +0.000 HD
BRANCH  17  19
ATOM     19  C   UNL     1       5.551   6.453  16.159  0.00  0.00    +0.000 C 
BRANCH  19  20
ATOM     20  C   UNL     1       7.080   6.242  16.231  0.00  0.00    +0.000 C 
BRANCH  20  22
ATOM     21  C   UNL     1       7.703   4.468  17.769  0.00  0.00    +0.000 C 
ATOM     22  N   UNL     1       7.493   4.827  16.363  0.00  0.00    +0.000 NA
ATOM     23  C   UNL     1       6.459   3.964  15.784  0.00  0.00    +0.000 C 
ENDBRANCH  20  22
ENDBRANCH  19  20
ENDBRANCH  17  19
ENDBRANCH   1  17
TORSDOF 4
ENDMDL
MODEL 5
REMARK VINA RESULT:      -7.0      2.347      4.921
REMARK  Name = 
REMARK  6 active torsions:
REMARK  status: ('A' for Active; 'I' for Inactive)
REMARK    1  A    between atoms: C_1  and  N_2
REMARK    2  A    between atoms: N_2  and  C_3
REMARK    3  A    between atoms: N_2  and  C_4
REMARK    4  A    between atoms: C_4  and  C_5
REMARK    5  A    between atoms: C_5  and  N_6
REMARK    6  A    between atoms: N_6  and  C_7
REMARK                            x       y       z     vdW  Elec       q    Type
REMARK                         _______ _______ _______ _____ _____    ______ ____
ROOT
ATOM      1  C   UNL     1       4.071   6.258  18.956  0.00  0.00    +0.000 C 
ATOM      2  C   UNL     1       5.125   5.263  19.575  0.00  0.00    +0.000 C 
ATOM      3  C   UNL     1       5.244   3.980  18.714  0.00  0.00    +0.000 C 
ATOM      4  C   UNL     1       5.629   4.459  17.319  0.00  0.00    +0.000 A 
ATOM      5  C   UNL     1       6.782   4.106  16.634  0.00  0.00    +0.000 A 
ATOM      6  C   UNL     1       6.987   4.634  15.358  0.00  0.00    +0.000 A 
ATOM      7  C   UNL     1       6.043   5.497  14.781  0.00  0.00    +0.000 A 
ATOM      8  C   UNL     1       4.880   5.853  15.468  0.00  0.00    +0.000 A 
ATOM      9  C   UNL     1       4.674   5.335  16.738  0.00  0.00    +0.000 A 
ATOM     10  C   UNL     1       3.468   5.609  17.647  0.00  0.00    +0.000 C 
ATOM     11  C   UNL     1       2.887   4.255  18.050  0.00  0.00    +0.000 A 
ATOM     12  C   UNL     1       1.568   3.853  17.886  0.00  0.00    +0.000 A 
ATOM     13  C   UNL     1       1.198   2.580  18.318  0.00  0.00    +0.000 A 
ATOM     14  C   UNL     1       2.140   1.721  18.909  0.00  0.00    +0.000 A 
ATOM     15  C   UNL     1       3.469   2.119  19.071  0.00  0.00    +0.000 A 
ATOM     16  C   UNL     1       3.842   3.384  18.637  0.00  0.00    +0.000 A 
ENDROOT
BRANCH   1  17
ATOM     17  N   UNL     1       3.022   6.657  19.921  0.00  0.00    +0.000 NA
ATOM     18  H   UNL     1       2.462   5.830  20.142  0.00  0.00    +0.000 HD
BRANCH  17  19
ATOM     19  C   UNL     1       2.091   7.680  19.420  0.00  0.00    +0.000 C 
BRANCH  19  20
ATOM     20  C   UNL     1       1.372   8.492  20.520  0.00  0.00    +0.000 C 
BRANCH  20  22
ATOM     21  C   UNL     1       0.577  10.740  20.985  0.00  0.00    +0.000 C 
ATOM     22  N   UNL     1       0.590   9.642  20.014  0.00  0.00    +0.000 NA
ATOM     23  C   UNL     1       1.174  10.108  18.752  0.00  0.00    +0.000 C 
ENDBRANCH  20  22
ENDBRANCH  19  20
ENDBRANCH  17  19
ENDBRANCH   1  17
TORSDOF 4
ENDMDL
MODEL 6
REMARK VINA RESULT:      -7.0      2.260      5.184
REMARK  Name = 
REMARK  6 active torsions:
REMARK  status: ('A' for Active; 'I' for Inactive)
REMARK    1  A    between atoms: C_1  and  N_2
REMARK    2  A    between atoms: N_2  and  C_3
REMARK    3  A    between atoms: N_2  and  C_4
REMARK    4  A    between atoms: C_4  and  C_5
REMARK    5  A    between atoms: C_5  and  N_6
REMARK    6  A    between atoms: N_6  and  C_7
REMARK                            x       y       z     vdW  Elec       q    Type
REMARK                         _______ _______ _______ _____ _____    ______ ____
ROOT
ATOM      1  C   UNL     1       4.129   5.735  18.119  0.00  0.00    +0.000 C 
ATOM      2  C   UNL     1       4.247   5.796  19.690  0.00  0.00    +0.000 C 
ATOM      3  C   UNL     1       2.848   5.924  20.344  0.00  0.00    +0.000 C 
ATOM      4  C   UNL     1       2.057   4.716  19.855  0.00  0.00    +0.000 A 
ATOM      5  C   UNL     1       1.502   3.734  20.663  0.00  0.00    +0.000 A 
ATOM      6  C   UNL     1       0.805   2.689  20.056  0.00  0.00    +0.000 A 
ATOM      7  C   UNL     1       0.665   2.636  18.661  0.00  0.00    +0.000 A 
ATOM      8  C   UNL     1       1.222   3.624  17.845  0.00  0.00    +0.000 A 
ATOM      9  C   UNL     1       1.920   4.663  18.443  0.00  0.00    +0.000 A 
ATOM     10  C   UNL     1       2.602   5.833  17.721  0.00  0.00    +0.000 C 
ATOM     11  C   UNL     1       2.064   7.122  18.338  0.00  0.00    +0.000 A 
ATOM     12  C   UNL     1       1.480   8.174  17.645  0.00  0.00    +0.000 A 
ATOM     13  C   UNL     1       1.047   9.289  18.363  0.00  0.00    +0.000 A 
ATOM     14  C   UNL     1       1.200   9.347  19.759  0.00  0.00    +0.000 A 
ATOM     15  C   UNL     1       1.783   8.289  20.460  0.00  0.00    +0.000 A 
ATOM     16  C   UNL     1       2.210   7.175  19.749  0.00  0.00    +0.000 A 
ENDROOT
BRANCH   1  17
ATOM     17  N   UNL     1       4.955   6.759  17.441  0.00  0.00    +0.000 NA
ATOM     18  H   UNL     1       4.414   7.626  17.398  0.00  0.00    +0.000 HD
BRANCH  17  19
ATOM     19  C   UNL     1       5.328   6.422  16.059  0.00  0.00    +0.000 C 
BRANCH  19  20
ATOM     20  C   UNL     1       5.236   4.918  15.714  0.00  0.00    +0.000 C 
BRANCH  20  22
ATOM     21  C   UNL     1       7.193   4.808  14.278  0.00  0.00    +0.000 C 
ATOM     22  N   UNL     1       6.544   4.268  15.477  0.00  0.00    +0.000 NA
ATOM     23  C   UNL     1       7.409   4.479  16.641  0.00  0.00    +0.000 C 
ENDBRANCH  20  22
ENDBRANCH  19  20
ENDBRANCH  17  19
ENDBRANCH   1  17
TORSDOF 4
ENDMDL
MODEL 7
REMARK VINA RESULT:      -6.8      1.911      5.144
REMARK  Name = 
REMARK  6 active torsions:
REMARK  status: ('A' for Active; 'I' for Inactive)
REMARK    1  A    between atoms: C_1  and  N_2
REMARK    2  A    between atoms: N_2  and  C_3
REMARK    3  A    between atoms: N_2  and  C_4
REMARK    4  A    between atoms: C_4  and  C_5
REMARK    5  A    between atoms: C_5  and  N_6
REMARK    6  A    between atoms: N_6  and  C_7
REMARK                            x       y       z     vdW  Elec       q    Type
REMARK                         _______ _______ _______ _____ _____    ______ ____
ROOT
ATOM      1  C   UNL     1       4.327   6.161  19.326  0.00  0.00    +0.000 C 
ATOM      2  C   UNL     1       3.973   6.192  17.790  0.00  0.00    +0.000 C 
ATOM      3  C   UNL     1       2.437   6.177  17.579  0.00  0.00    +0.000 C 
ATOM      4  C   UNL     1       1.909   7.392  18.334  0.00  0.00    +0.000 A 
ATOM      5  C   UNL     1       1.208   8.448  17.772  0.00  0.00    +0.000 A 
ATOM      6  C   UNL     1       0.793   9.489  18.605  0.00  0.00    +0.000 A 
ATOM      7  C   UNL     1       1.075   9.461  19.979  0.00  0.00    +0.000 A 
ATOM      8  C   UNL     1       1.780   8.398  20.547  0.00  0.00    +0.000 A 
ATOM      9  C   UNL     1       2.199   7.364  19.723  0.00  0.00    +0.000 A 
ATOM     10  C   UNL     1       2.983   6.118  20.157  0.00  0.00    +0.000 C 
ATOM     11  C   UNL     1       2.201   4.898  19.672  0.00  0.00    +0.000 A 
ATOM     12  C   UNL     1       1.778   3.836  20.461  0.00  0.00    +0.000 A 
ATOM     13  C   UNL     1       1.078   2.792  19.856  0.00  0.00    +0.000 A 
ATOM     14  C   UNL     1       0.808   2.813  18.478  0.00  0.00    +0.000 A 
ATOM     15  C   UNL     1       1.228   3.882  17.682  0.00  0.00    +0.000 A 
ATOM     16  C   UNL     1       1.921   4.925  18.281  0.00  0.00    +0.000 A 
ENDROOT
BRANCH   1  17
ATOM     17  N   UNL     1       5.246   5.056  19.682  0.00  0.00    +0.000 NA
ATOM     18  H   UNL     1       5.923   5.412  20.362  0.00  0.00    +0.000 HD
BRANCH  17  19
ATOM     19  C   UNL     1       6.019   4.520  18.552  0.00  0.00    +0.000 C 
BRANCH  19  20
ATOM     20  C   UNL     1       7.455   5.079  18.430  0.00  0.00    +0.000 C 
BRANCH  20  22
ATOM     21  C   UNL     1       6.896   5.316  16.077  0.00  0.00    +0.000 C 
ATOM     22  N   UNL     1       7.710   5.832  17.182  0.00  0.00    +0.000 NA
ATOM     23  C   UNL     1       7.403   7.249  17.399  0.00  0.00    +0.000 C 
ENDBRANCH  20  22
ENDBRANCH  19  20
ENDBRANCH  17  19
ENDBRANCH   1  17
TORSDOF 4
ENDMDL
MODEL 8
REMARK VINA RESULT:      -6.8      1.929      5.252
REMARK  Name = 
REMARK  6 active torsions:
REMARK  status: ('A' for Active; 'I' for Inactive)
REMARK    1  A    between atoms: C_1  and  N_2
REMARK    2  A    between atoms: N_2  and  C_3
REMARK    3  A    between atoms: N_2  and  C_4
REMARK    4  A    between atoms: C_4  and  C_5
REMARK    5  A    between atoms: C_5  and  N_6
REMARK    6  A    between atoms: N_6  and  C_7
REMARK                            x       y       z     vdW  Elec       q    Type
REMARK                         _______ _______ _______ _____ _____    ______ ____
ROOT
ATOM      1  C   UNL     1       4.072   5.624  17.993  0.00  0.00    +0.000 C 
ATOM      2  C   UNL     1       4.274   5.709  19.555  0.00  0.00    +0.000 C 
ATOM      3  C   UNL     1       2.912   5.859  20.280  0.00  0.00    +0.000 C 
ATOM      4  C   UNL     1       2.087   4.649  19.853  0.00  0.00    +0.000 A 
ATOM      5  C   UNL     1       1.569   3.686  20.706  0.00  0.00    +0.000 A 
ATOM      6  C   UNL     1       0.833   2.636  20.154  0.00  0.00    +0.000 A 
ATOM      7  C   UNL     1       0.619   2.562  18.769  0.00  0.00    +0.000 A 
ATOM      8  C   UNL     1       1.139   3.532  17.909  0.00  0.00    +0.000 A 
ATOM      9  C   UNL     1       1.875   4.574  18.452  0.00  0.00    +0.000 A 
ATOM     10  C   UNL     1       2.527   5.727  17.675  0.00  0.00    +0.000 C 
ATOM     11  C   UNL     1       2.031   7.031  18.298  0.00  0.00    +0.000 A 
ATOM     12  C   UNL     1       1.419   8.076  17.620  0.00  0.00    +0.000 A 
ATOM     13  C   UNL     1       1.033   9.206  18.342  0.00  0.00    +0.000 A 
ATOM     14  C   UNL     1       1.260   9.286  19.726  0.00  0.00    +0.000 A 
ATOM     15  C   UNL     1       1.872   8.234  20.412  0.00  0.00    +0.000 A 
ATOM     16  C   UNL     1       2.253   7.106  19.698  0.00  0.00    +0.000 A 
ENDROOT
BRANCH   1  17
ATOM     17  N   UNL     1       4.868   6.630  17.255  0.00  0.00    +0.000 NA
ATOM     18  H   UNL     1       4.232   7.158  16.653  0.00  0.00    +0.000 HD
BRANCH  17  19
ATOM     19  C   UNL     1       5.907   6.062  16.383  0.00  0.00    +0.000 C 
BRANCH  19  20
ATOM     20  C   UNL     1       7.351   6.232  16.905  0.00  0.00    +0.000 C 
BRANCH  20  22
ATOM     21  C   UNL     1       8.025   5.855  19.209  0.00  0.00    +0.000 C 
ATOM     22  N   UNL     1       7.443   6.812  18.263  0.00  0.00    +0.000 NA
ATOM     23  C   UNL     1       8.268   8.023  18.219  0.00  0.00    +0.000 C 
ENDBRANCH  20  22
ENDBRANCH  19  20
ENDBRANCH  17  19
ENDBRANCH   1  17
TORSDOF 4
ENDMDL
MODEL 9
REMARK VINA RESULT:      -6.8      2.038      5.210
REMARK  Name = 
REMARK  6 active torsions:
REMARK  status: ('A' for Active; 'I' for Inactive)
REMARK    1  A    between atoms: C_1  and  N_2
REMARK    2  A    between atoms: N_2  and  C_3
REMARK    3  A    between atoms: N_2  and  C_4
REMARK    4  A    between atoms: C_4  and  C_5
REMARK    5  A    between atoms: C_5  and  N_6
REMARK    6  A    between atoms: N_6  and  C_7
REMARK                            x       y       z     vdW  Elec       q    Type
REMARK                         _______ _______ _______ _____ _____    ______ ____
ROOT
ATOM      1  C   UNL     1       4.784   5.559  18.090  0.00  0.00    +0.000 C 
ATOM      2  C   UNL     1       4.710   5.563  19.664  0.00  0.00    +0.000 C 
ATOM      3  C   UNL     1       3.238   5.580  20.147  0.00  0.00    +0.000 C 
ATOM      4  C   UNL     1       2.589   4.348  19.526  0.00  0.00    +0.000 A 
ATOM      5  C   UNL     1       2.006   3.304  20.227  0.00  0.00    +0.000 A 
ATOM      6  C   UNL     1       1.453   2.245  19.505  0.00  0.00    +0.000 A 
ATOM      7  C   UNL     1       1.484   2.242  18.102  0.00  0.00    +0.000 A 
ATOM      8  C   UNL     1       2.071   3.293  17.394  0.00  0.00    +0.000 A 
ATOM      9  C   UNL     1       2.625   4.346  18.107  0.00  0.00    +0.000 A 
ATOM     10  C   UNL     1       3.312   5.583  17.512  0.00  0.00    +0.000 C 
ATOM     11  C   UNL     1       2.624   6.812  18.103  0.00  0.00    +0.000 A 
ATOM     12  C   UNL     1       2.060   7.855  17.380  0.00  0.00    +0.000 A 
ATOM     13  C   UNL     1       1.475   8.912  18.078  0.00  0.00    +0.000 A 
ATOM     14  C   UNL     1       1.457   8.922  19.483  0.00  0.00    +0.000 A 
ATOM     15  C   UNL     1       2.018   7.871  20.213  0.00  0.00    +0.000 A 
ATOM     16  C   UNL     1       2.597   6.815  19.522  0.00  0.00    +0.000 A 
ENDROOT
BRANCH   1  17
ATOM     17  N   UNL     1       5.618   6.657  17.551  0.00  0.00    +0.000 NA
ATOM     18  H   UNL     1       5.146   7.040  16.728  0.00  0.00    +0.000 HD
BRANCH  17  19
ATOM     19  C   UNL     1       6.961   6.245  17.118  0.00  0.00    +0.000 C 
BRANCH  19  20
ATOM     20  C   UNL     1       6.988   5.014  16.184  0.00  0.00    +0.000 C 
BRANCH  20  22
ATOM     21  C   UNL     1       7.505   5.071  13.811  0.00  0.00    +0.000 C 
ATOM     22  N   UNL     1       6.464   5.270  14.824  0.00  0.00    +0.000 NA
ATOM     23  C   UNL     1       5.340   4.367  14.559  0.00  0.00    +0.000 C 
ENDBRANCH  20  22
ENDBRANCH  19  20
ENDBRANCH  17  19
ENDBRANCH   1  17
TORSDOF 4
ENDMDL
