MODEL 1
REMARK VINA RESULT:      -4.3      0.000      0.000
REMARK  Name = 
REMARK  8 active torsions:
REMARK  status: ('A' for Active; 'I' for Inactive)
REMARK    1  A    between atoms: C_1  and  O_2
REMARK    2  A    between atoms: O_2  and  C_3
REMARK    3  A    between atoms: C_3  and  C_4
REMARK    4  A    between atoms: N_6  and  C_7
REMARK    5  A    between atoms: C_7  and  C_8
REMARK    6  A    between atoms: C_8  and  C_9
REMARK    7  A    between atoms: C_9  and  C_10
REMARK    8  A    between atoms: C_10  and  N_11
REMARK                            x       y       z     vdW  Elec       q    Type
REMARK                         _______ _______ _______ _____ _____    ______ ____
ROOT
ATOM      1  C   UNL     1       5.125   4.087  18.743  0.00  0.00    +0.000 C 
ATOM      2  O   UNL     1       4.236   4.303  17.931  0.00  0.00    +0.000 OA
ATOM      3  N   UNL     1       5.020   3.066  19.635  0.00  0.00    +0.000 N 
ATOM      4  H   UNL     1       5.794   2.912  20.296  0.00  0.00    +0.000 HD
ENDROOT
BRANCH   1   5
ATOM      5  C   UNL     1       6.323   5.002  18.781  0.00  0.00    +0.000 C 
BRANCH   5   7
ATOM      6  C   UNL     1       7.418   4.617  16.767  0.00  0.00    +0.000 C 
ATOM      7  O   UNL     1       7.445   4.396  18.164  0.00  0.00    +0.000 OA
ENDBRANCH   5   7
ENDBRANCH   1   5
BRANCH   3   8
ATOM      8  C   UNL     1       3.832   2.234  19.705  0.00  0.00    +0.000 C 
BRANCH   8   9
ATOM      9  C   UNL     1       2.775   2.822  20.653  0.00  0.00    +0.000 C 
BRANCH   9  10
ATOM     10  C   UNL     1       1.360   2.772  20.051  0.00  0.00    +0.000 C 
BRANCH  10  11
ATOM     11  C   UNL     1       1.404   2.472  18.552  0.00  0.00    +0.000 C 
BRANCH  11  12
ATOM     12  N   UNL     1       1.273   3.709  17.789  0.00  0.00    +0.000 NA
ATOM     13  H   UNL     1       2.214   3.989  17.426  0.00  0.00    +0.000 HD
ATOM     14  H   UNL     1       0.947   4.464  18.434  0.00  0.00    +0.000 HD
ENDBRANCH  11  12
ENDBRANCH  10  11
ENDBRANCH   9  10
ENDBRANCH   8   9
ENDBRANCH   3   8
TORSDOF 7
ENDMDL
MODEL 2
REMARK VINA RESULT:      -4.3      3.154      4.481
REMARK  Name = 
REMARK  8 active torsions:
REMARK  status: ('A' for Active; 'I' for Inactive)
REMARK    1  A    between atoms: C_1  and  O_2
REMARK    2  A    between atoms: O_2  and  C_3
REMARK    3  A    between atoms: C_3  and  C_4
REMARK    4  A    between atoms: N_6  and  C_7
REMARK    5  A    between atoms: C_7  and  C_8
REMARK    6  A    between atoms: C_8  and  C_9
REMARK    7  A    between atoms: C_9  and  C_10
REMARK    8  A    between atoms: C_10  and  N_11
REMARK                            x       y       z     vdW  Elec       q    Type
REMARK                         _______ _______ _______ _____ _____    ______ ____
ROOT
ATOM      1  C   UNL     1       7.278   5.436  18.433  0.00  0.00    +0.000 C 
ATOM      2  O   UNL     1       7.941   4.437  18.192  0.00  0.00    +0.000 OA
ATOM      3  N   UNL     1       5.921   5.377  18.476  0.00  0.00    +0.000 N 
ATOM      4  H   UNL     1       5.400   6.238  18.691  0.00  0.00    +0.000 HD
ENDROOT
BRANCH   1   5
ATOM      5  C   UNL     1       7.983   6.754  18.632  0.00  0.00    +0.000 C 
BRANCH   5   7
ATOM      6  C   UNL     1       8.060   8.939  17.843  0.00  0.00    +0.000 C 
ATOM      7  O   UNL     1       7.833   7.587  17.496  0.00  0.00    +0.000 OA
ENDBRANCH   5   7
ENDBRANCH   1   5
BRANCH   3   8
ATOM      8  C   UNL     1       5.201   4.151  18.178  0.00  0.00    +0.000 C 
BRANCH   8   9
ATOM      9  C   UNL     1       4.587   4.174  16.770  0.00  0.00    +0.000 C 
BRANCH   9  10
ATOM     10  C   UNL     1       5.620   3.848  15.677  0.00  0.00    +0.000 C 
BRANCH  10  11
ATOM     11  C   UNL     1       6.025   5.104  14.904  0.00  0.00    +0.000 C 
BRANCH  11  12
ATOM     12  N   UNL     1       7.440   5.389  15.116  0.00  0.00    +0.000 NA
ATOM     13  H   UNL     1       7.566   5.816  16.063  0.00  0.00    +0.000 HD
ATOM     14  H   UNL     1       7.746   6.096  14.409  0.00  0.00    +0.000 HD
ENDBRANCH  11  12
ENDBRANCH  10  11
ENDBRANCH   9  10
ENDBRANCH   8   9
ENDBRANCH   3   8
TORSDOF 7
ENDMDL
MODEL 3
REMARK VINA RESULT:      -4.3      1.811      1.999
REMARK  Name = 
REMARK  8 active torsions:
REMARK  status: ('A' for Active; 'I' for Inactive)
REMARK    1  A    between atoms: C_1  and  O_2
REMARK    2  A    between atoms: O_2  and  C_3
REMARK    3  A    between atoms: C_3  and  C_4
REMARK    4  A    between atoms: N_6  and  C_7
REMARK    5  A    between atoms: C_7  and  C_8
REMARK    6  A    between atoms: C_8  and  C_9
REMARK    7  A    between atoms: C_9  and  C_10
REMARK    8  A    between atoms: C_10  and  N_11
REMARK                            x       y       z     vdW  Elec       q    Type
REMARK                         _______ _______ _______ _____ _____    ______ ____
ROOT
ATOM      1  C   UNL     1       4.930   4.424  19.192  0.00  0.00    +0.000 C 
ATOM      2  O   UNL     1       5.204   3.305  19.605  0.00  0.00    +0.000 OA
ATOM      3  N   UNL     1       3.738   5.004  19.494  0.00  0.00    +0.000 N 
ATOM      4  H   UNL     1       3.550   5.950  19.135  0.00  0.00    +0.000 HD
ENDROOT
BRANCH   1   5
ATOM      5  C   UNL     1       5.912   5.136  18.297  0.00  0.00    +0.000 C 
BRANCH   5   7
ATOM      6  C   UNL     1       7.921   5.794  19.263  0.00  0.00    +0.000 C 
ATOM      7  O   UNL     1       7.242   4.750  18.592  0.00  0.00    +0.000 OA
ENDBRANCH   5   7
ENDBRANCH   1   5
BRANCH   3   8
ATOM      8  C   UNL     1       2.721   4.305  20.258  0.00  0.00    +0.000 C 
BRANCH   8   9
ATOM      9  C   UNL     1       1.545   3.859  19.374  0.00  0.00    +0.000 C 
BRANCH   9  10
ATOM     10  C   UNL     1       1.590   2.354  19.059  0.00  0.00    +0.000 C 
BRANCH  10  11
ATOM     11  C   UNL     1       2.468   2.068  17.840  0.00  0.00    +0.000 C 
BRANCH  11  12
ATOM     12  N   UNL     1       3.597   1.225  18.220  0.00  0.00    +0.000 NA
ATOM     13  H   UNL     1       3.267   0.237  18.327  0.00  0.00    +0.000 HD
ATOM     14  H   UNL     1       3.949   1.543  19.151  0.00  0.00    +0.000 HD
ENDBRANCH  11  12
ENDBRANCH  10  11
ENDBRANCH   9  10
ENDBRANCH   8   9
ENDBRANCH   3   8
TORSDOF 7
ENDMDL
MODEL 4
REMARK VINA RESULT:      -4.2      1.531      1.788
REMARK  Name = 
REMARK  8 active torsions:
REMARK  status: ('A' for Active; 'I' for Inactive)
REMARK    1  A    between atoms: C_1  and  O_2
REMARK    2  A    between atoms: O_2  and  C_3
REMARK    3  A    between atoms: C_3  and  C_4
REMARK    4  A    between atoms: N_6  and  C_7
REMARK    5  A    between atoms: C_7  and  C_8
REMARK    6  A    between atoms: C_8  and  C_9
REMARK    7  A    between atoms: C_9  and  C_10
REMARK    8  A    between atoms: C_10  and  N_11
REMARK                            x       y       z     vdW  Elec       q    Type
REMARK                         _______ _______ _______ _____ _____    ______ ____
ROOT
ATOM      1  C   UNL     1       4.789   3.874  18.509  0.00  0.00    +0.000 C 
ATOM      2  O   UNL     1       4.436   3.993  17.344  0.00  0.00    +0.000 OA
ATOM      3  N   UNL     1       4.371   2.821  19.259  0.00  0.00    +0.000 N 
ATOM      4  H   UNL     1       4.699   2.752  20.232  0.00  0.00    +0.000 HD
ENDROOT
BRANCH   1   5
ATOM      5  C   UNL     1       5.658   4.942  19.124  0.00  0.00    +0.000 C 
BRANCH   5   7
ATOM      6  C   UNL     1       7.800   5.844  19.120  0.00  0.00    +0.000 C 
ATOM      7  O   UNL     1       7.029   4.680  18.890  0.00  0.00    +0.000 OA
ENDBRANCH   5   7
ENDBRANCH   1   5
BRANCH   3   8
ATOM      8  C   UNL     1       3.444   1.833  18.737  0.00  0.00    +0.000 C 
BRANCH   8   9
ATOM      9  C   UNL     1       1.982   2.213  19.018  0.00  0.00    +0.000 C 
BRANCH   9  10
ATOM     10  C   UNL     1       1.748   2.586  20.492  0.00  0.00    +0.000 C 
BRANCH  10  11
ATOM     11  C   UNL     1       1.296   4.041  20.632  0.00  0.00    +0.000 C 
BRANCH  11  12
ATOM     12  N   UNL     1       2.419   4.879  21.038  0.00  0.00    +0.000 NA
ATOM     13  H   UNL     1       2.249   5.860  20.714  0.00  0.00    +0.000 HD
ATOM     14  H   UNL     1       3.281   4.533  20.558  0.00  0.00    +0.000 HD
ENDBRANCH  11  12
ENDBRANCH  10  11
ENDBRANCH   9  10
ENDBRANCH   8   9
ENDBRANCH   3   8
TORSDOF 7
ENDMDL
MODEL 5
REMARK VINA RESULT:      -4.2      2.382      5.033
REMARK  Name = 
REMARK  8 active torsions:
REMARK  status: ('A' for Active; 'I' for Inactive)
REMARK    1  A    between atoms: C_1  and  O_2
REMARK    2  A    between atoms: O_2  and  C_3
REMARK    3  A    between atoms: C_3  and  C_4
REMARK    4  A    between atoms: N_6  and  C_7
REMARK    5  A    between atoms: C_7  and  C_8
REMARK    6  A    between atoms: C_8  and  C_9
REMARK    7  A    between atoms: C_9  and  C_10
REMARK    8  A    between atoms: C_10  and  N_11
REMARK                            x       y       z     vdW  Elec       q    Type
REMARK                         _______ _______ _______ _____ _____    ______ ____
ROOT
ATOM      1  C   UNL     1       4.766   3.911  19.235  0.00  0.00    +0.000 C 
ATOM      2  O   UNL     1       4.205   4.997  19.219  0.00  0.00    +0.000 OA
ATOM      3  N   UNL     1       6.045   3.782  18.794  0.00  0.00    +0.000 N 
ATOM      4  H   UNL     1       6.485   2.851  18.833  0.00  0.00    +0.000 HD
ENDROOT
BRANCH   1   5
ATOM      5  C   UNL     1       4.003   2.698  19.703  0.00  0.00    +0.000 C 
BRANCH   5   7
ATOM      6  C   UNL     1       1.955   2.238  18.703  0.00  0.00    +0.000 C 
ATOM      7  O   UNL     1       3.355   2.055  18.620  0.00  0.00    +0.000 OA
ENDBRANCH   5   7
ENDBRANCH   1   5
BRANCH   3   8
ATOM      8  C   UNL     1       6.775   4.903  18.231  0.00  0.00    +0.000 C 
BRANCH   8   9
ATOM      9  C   UNL     1       7.258   4.613  16.801  0.00  0.00    +0.000 C 
BRANCH   9  10
ATOM     10  C   UNL     1       6.099   4.256  15.854  0.00  0.00    +0.000 C 
BRANCH  10  11
ATOM     11  C   UNL     1       6.533   4.338  14.390  0.00  0.00    +0.000 C 
BRANCH  11  12
ATOM     12  N   UNL     1       7.587   5.335  14.234  0.00  0.00    +0.000 NA
ATOM     13  H   UNL     1       8.492   4.933  14.573  0.00  0.00    +0.000 HD
ATOM     14  H   UNL     1       7.360   6.156  14.839  0.00  0.00    +0.000 HD
ENDBRANCH  11  12
ENDBRANCH  10  11
ENDBRANCH   9  10
ENDBRANCH   8   9
ENDBRANCH   3   8
TORSDOF 7
ENDMDL
MODEL 6
REMARK VINA RESULT:      -4.2      4.397      6.110
REMARK  Name = 
REMARK  8 active torsions:
REMARK  status: ('A' for Active; 'I' for Inactive)
REMARK    1  A    between atoms: C_1  and  O_2
REMARK    2  A    between atoms: O_2  and  C_3
REMARK    3  A    between atoms: C_3  and  C_4
REMARK    4  A    between atoms: N_6  and  C_7
REMARK    5  A    between atoms: C_7  and  C_8
REMARK    6  A    between atoms: C_8  and  C_9
REMARK    7  A    between atoms: C_9  and  C_10
REMARK    8  A    between atoms: C_10  and  N_11
REMARK                            x       y       z     vdW  Elec       q    Type
REMARK                         _______ _______ _______ _____ _____    ______ ____
ROOT
ATOM      1  C   UNL     1       6.790   4.953  16.124  0.00  0.00    +0.000 C 
ATOM      2  O   UNL     1       6.418   6.105  15.954  0.00  0.00    +0.000 OA
ATOM      3  N   UNL     1       6.527   3.993  15.198  0.00  0.00    +0.000 N 
ATOM      4  H   UNL     1       6.865   3.037  15.374  0.00  0.00    +0.000 HD
ENDROOT
BRANCH   1   5
ATOM      5  C   UNL     1       7.501   4.592  17.404  0.00  0.00    +0.000 C 
BRANCH   5   7
ATOM      6  C   UNL     1       6.490   5.362  19.350  0.00  0.00    +0.000 C 
ATOM      7  O   UNL     1       6.577   4.289  18.432  0.00  0.00    +0.000 OA
ENDBRANCH   5   7
ENDBRANCH   1   5
BRANCH   3   8
ATOM      8  C   UNL     1       5.746   4.275  14.007  0.00  0.00    +0.000 C 
BRANCH   8   9
ATOM      9  C   UNL     1       6.339   3.602  12.759  0.00  0.00    +0.000 C 
BRANCH   9  10
ATOM     10  C   UNL     1       5.256   2.967  11.869  0.00  0.00    +0.000 C 
BRANCH  10  11
ATOM     11  C   UNL     1       5.765   1.686  11.206  0.00  0.00    +0.000 C 
BRANCH  11  12
ATOM     12  N   UNL     1       7.216   1.597  11.331  0.00  0.00    +0.000 NA
ATOM     13  H   UNL     1       7.520   2.133  12.178  0.00  0.00    +0.000 HD
ATOM     14  H   UNL     1       7.650   2.054  10.497  0.00  0.00    +0.000 HD
ENDBRANCH  11  12
ENDBRANCH  10  11
ENDBRANCH   9  10
ENDBRANCH   8   9
ENDBRANCH   3   8
TORSDOF 7
ENDMDL
MODEL 7
REMARK VINA RESULT:      -4.1      1.737      2.100
REMARK  Name = 
REMARK  8 active torsions:
REMARK  status: ('A' for Active; 'I' for Inactive)
REMARK    1  A    between atoms: C_1  and  O_2
REMARK    2  A    between atoms: O_2  and  C_3
REMARK    3  A    between atoms: C_3  and  C_4
REMARK    4  A    between atoms: N_6  and  C_7
REMARK    5  A    between atoms: C_7  and  C_8
REMARK    6  A    between atoms: C_8  and  C_9
REMARK    7  A    between atoms: C_9  and  C_10
REMARK    8  A    between atoms: C_10  and  N_11
REMARK                            x       y       z     vdW  Elec       q    Type
REMARK                         _______ _______ _______ _____ _____    ______ ____
ROOT
ATOM      1  C   UNL     1       4.564   3.671  18.544  0.00  0.00    +0.000 C 
ATOM      2  O   UNL     1       4.889   3.301  19.663  0.00  0.00    +0.000 OA
ATOM      3  N   UNL     1       3.479   3.139  17.922  0.00  0.00    +0.000 N 
ATOM      4  H   UNL     1       3.233   3.485  16.984  0.00  0.00    +0.000 HD
ENDROOT
BRANCH   1   5
ATOM      5  C   UNL     1       5.414   4.694  17.835  0.00  0.00    +0.000 C 
BRANCH   5   7
ATOM      6  C   UNL     1       7.586   5.298  18.399  0.00  0.00    +0.000 C 
ATOM      7  O   UNL     1       6.221   5.410  18.752  0.00  0.00    +0.000 OA
ENDBRANCH   5   7
ENDBRANCH   1   5
BRANCH   3   8
ATOM      8  C   UNL     1       2.701   2.071  18.525  0.00  0.00    +0.000 C 
BRANCH   8   9
ATOM      9  C   UNL     1       1.275   2.526  18.874  0.00  0.00    +0.000 C 
BRANCH   9  10
ATOM     10  C   UNL     1       1.132   2.916  20.355  0.00  0.00    +0.000 C 
BRANCH  10  11
ATOM     11  C   UNL     1       1.218   4.432  20.541  0.00  0.00    +0.000 C 
BRANCH  11  12
ATOM     12  N   UNL     1       2.471   4.787  21.198  0.00  0.00    +0.000 NA
ATOM     13  H   UNL     1       2.635   4.134  22.000  0.00  0.00    +0.000 HD
ATOM     14  H   UNL     1       2.379   5.751  21.590  0.00  0.00    +0.000 HD
ENDBRANCH  11  12
ENDBRANCH  10  11
ENDBRANCH   9  10
ENDBRANCH   8   9
ENDBRANCH   3   8
TORSDOF 7
ENDMDL
MODEL 8
REMARK VINA RESULT:      -4.1      1.880      2.123
REMARK  Name = 
REMARK  8 active torsions:
REMARK  status: ('A' for Active; 'I' for Inactive)
REMARK    1  A    between atoms: C_1  and  O_2
REMARK    2  A    between atoms: O_2  and  C_3
REMARK    3  A    between atoms: C_3  and  C_4
REMARK    4  A    between atoms: N_6  and  C_7
REMARK    5  A    between atoms: C_7  and  C_8
REMARK    6  A    between atoms: C_8  and  C_9
REMARK    7  A    between atoms: C_9  and  C_10
REMARK    8  A    between atoms: C_10  and  N_11
REMARK                            x       y       z     vdW  Elec       q    Type
REMARK                         _______ _______ _______ _____ _____    ______ ____
ROOT
ATOM      1  C   UNL     1       5.581   4.878  18.777  0.00  0.00    +0.000 C 
ATOM      2  O   UNL     1       5.683   3.784  19.313  0.00  0.00    +0.000 OA
ATOM      3  N   UNL     1       4.416   5.576  18.836  0.00  0.00    +0.000 N 
ATOM      4  H   UNL     1       4.374   6.498  18.380  0.00  0.00    +0.000 HD
ENDROOT
BRANCH   1   5
ATOM      5  C   UNL     1       6.751   5.427  18.000  0.00  0.00    +0.000 C 
BRANCH   5   7
ATOM      6  C   UNL     1       6.619   4.305  15.968  0.00  0.00    +0.000 C 
ATOM      7  O   UNL     1       7.333   4.427  17.183  0.00  0.00    +0.000 OA
ENDBRANCH   5   7
ENDBRANCH   1   5
BRANCH   3   8
ATOM      8  C   UNL     1       3.232   5.032  19.477  0.00  0.00    +0.000 C 
BRANCH   8   9
ATOM      9  C   UNL     1       2.175   4.592  18.452  0.00  0.00    +0.000 C 
BRANCH   9  10
ATOM     10  C   UNL     1       1.895   3.080  18.515  0.00  0.00    +0.000 C 
BRANCH  10  11
ATOM     11  C   UNL     1       2.855   2.300  17.614  0.00  0.00    +0.000 C 
BRANCH  11  12
ATOM     12  N   UNL     1       3.798   1.539  18.427  0.00  0.00    +0.000 NA
ATOM     13  H   UNL     1       4.487   1.063  17.798  0.00  0.00    +0.000 HD
ATOM     14  H   UNL     1       3.270   0.794  18.937  0.00  0.00    +0.000 HD
ENDBRANCH  11  12
ENDBRANCH  10  11
ENDBRANCH   9  10
ENDBRANCH   8   9
ENDBRANCH   3   8
TORSDOF 7
ENDMDL
MODEL 9
REMARK VINA RESULT:      -4.1      1.983      2.326
REMARK  Name = 
REMARK  8 active torsions:
REMARK  status: ('A' for Active; 'I' for Inactive)
REMARK    1  A    between atoms: C_1  and  O_2
REMARK    2  A    between atoms: O_2  and  C_3
REMARK    3  A    between atoms: C_3  and  C_4
REMARK    4  A    between atoms: N_6  and  C_7
REMARK    5  A    between atoms: C_7  and  C_8
REMARK    6  A    between atoms: C_8  and  C_9
REMARK    7  A    between atoms: C_9  and  C_10
REMARK    8  A    between atoms: C_10  and  N_11
REMARK                            x       y       z     vdW  Elec       q    Type
REMARK                         _______ _______ _______ _____ _____    ______ ____
ROOT
ATOM      1  C   UNL     1       4.466   5.277  18.729  0.00  0.00    +0.000 C 
ATOM      2  O   UNL     1       3.995   5.704  17.684  0.00  0.00    +0.000 OA
ATOM      3  N   UNL     1       3.762   5.350  19.890  0.00  0.00    +0.000 N 
ATOM      4  H   UNL     1       4.189   4.970  20.746  0.00  0.00    +0.000 HD
ENDROOT
BRANCH   1   5
ATOM      5  C   UNL     1       5.863   4.712  18.727  0.00  0.00    +0.000 C 
BRANCH   5   7
ATOM      6  C   UNL     1       7.837   5.847  19.193  0.00  0.00    +0.000 C 
ATOM      7  O   UNL     1       6.653   5.305  19.743  0.00  0.00    +0.000 OA
ENDBRANCH   5   7
ENDBRANCH   1   5
BRANCH   3   8
ATOM      8  C   UNL     1       2.460   5.989  19.954  0.00  0.00    +0.000 C 
BRANCH   8   9
ATOM      9  C   UNL     1       1.389   5.053  20.538  0.00  0.00    +0.000 C 
BRANCH   9  10
ATOM     10  C   UNL     1       2.004   3.867  21.301  0.00  0.00    +0.000 C 
BRANCH  10  11
ATOM     11  C   UNL     1       1.656   2.536  20.633  0.00  0.00    +0.000 C 
BRANCH  11  12
ATOM     12  N   UNL     1       2.522   2.312  19.480  0.00  0.00    +0.000 NA
ATOM     13  H   UNL     1       3.477   2.046  19.815  0.00  0.00    +0.000 HD
ATOM     14  H   UNL     1       2.611   3.210  18.953  0.00  0.00    +0.000 HD
ENDBRANCH  11  12
ENDBRANCH  10  11
ENDBRANCH   9  10
ENDBRANCH   8   9
ENDBRANCH   3   8
TORSDOF 7
ENDMDL
