MODEL 1
REMARK VINA RESULT:      -8.4      0.000      0.000
REMARK  Name = 
REMARK  7 active torsions:
REMARK  status: ('A' for Active; 'I' for Inactive)
REMARK    1  A    between atoms: C_1  and  C_2
REMARK    2  A    between atoms: C_8  and  C_9
REMARK    3  A    between atoms: C_11  and  S_12
REMARK    4  A    between atoms: S_12  and  C_13
REMARK    5  A    between atoms: C_13  and  C_14
REMARK    6  A    between atoms: N_16  and  C_17
REMARK    7  A    between atoms: C_22  and  N_23
REMARK                            x       y       z     vdW  Elec       q    Type
REMARK                         _______ _______ _______ _____ _____    ______ ____
ROOT
ATOM      1  C   UNL     1       2.132   7.011  18.972  0.00  0.00    +0.000 C 
ATOM      2  O   UNL     1       1.825   6.590  17.859  0.00  0.00    +0.000 OA
ATOM      3  N   UNL     1       2.786   6.237  19.941  0.00  0.00    +0.000 N 
ATOM      4  H   UNL     1       2.453   6.409  20.882  0.00  0.00    +0.000 HD
ENDROOT
BRANCH   3   5
ATOM      5  C   UNL     1       3.050   4.870  19.644  0.00  0.00    +0.000 A 
ATOM      6  C   UNL     1       2.113   3.933  20.113  0.00  0.00    +0.000 A 
ATOM      7  C   UNL     1       2.189   2.597  19.723  0.00  0.00    +0.000 A 
ATOM      8  C   UNL     1       3.232   2.180  18.910  0.00  0.00    +0.000 A 
ATOM      9  C   UNL     1       4.200   3.098  18.496  0.00  0.00    +0.000 A 
ATOM     10  C   UNL     1       4.140   4.470  18.833  0.00  0.00    +0.000 A 
BRANCH  10  11
ATOM     11  N   UNL     1       5.142   5.312  18.382  0.00  0.00    +0.000 N 
ATOM     12  C   UNL     1       5.136   6.002  17.088  0.00  0.00    +0.000 C 
ATOM     13  C   UNL     1       6.416   5.667  16.307  0.00  0.00    +0.000 C 
ATOM     14  O   UNL     1       7.597   5.956  17.076  0.00  0.00    +0.000 OA
ATOM     15  C   UNL     1       7.594   5.171  18.283  0.00  0.00    +0.000 C 
ATOM     16  C   UNL     1       6.378   5.494  19.161  0.00  0.00    +0.000 C 
ENDBRANCH  10  11
ENDBRANCH   3   5
BRANCH   1  17
ATOM     17  C   UNL     1       1.859   8.447  19.446  0.00  0.00    +0.000 C 
BRANCH  17  18
ATOM     18  S   UNL     1       1.613   9.584  18.029  0.00  0.00    +0.000 S 
BRANCH  18  27
ATOM     19  C   UNL     1      -2.917   9.566  15.357  0.00  0.00    +0.000 C 
ATOM     20  C   UNL     1      -3.182  10.429  16.561  0.00  0.00    +0.000 A 
ATOM     21  C   UNL     1      -4.435  11.050  16.689  0.00  0.00    +0.000 A 
ATOM     22  C   UNL     1      -4.744  11.799  17.816  0.00  0.00    +0.000 A 
ATOM     23  C   UNL     1      -3.799  11.933  18.826  0.00  0.00    +0.000 A 
ATOM     24  C   UNL     1      -2.528  11.353  18.684  0.00  0.00    +0.000 A 
ATOM     25  C   UNL     1      -1.559  11.525  19.675  0.00  0.00    +0.000 A 
ATOM     26  C   UNL     1      -0.278  10.993  19.514  0.00  0.00    +0.000 A 
ATOM     27  C   UNL     1      -0.010  10.269  18.351  0.00  0.00    +0.000 A 
ATOM     28  N   UNL     1      -0.955  10.062  17.393  0.00  0.00    +0.000 NA
ATOM     29  C   UNL     1      -2.191  10.597  17.542  0.00  0.00    +0.000 A 
BRANCH  26  30
ATOM     30  C   UNL     1       0.688  11.250  20.544  0.00  0.00    +0.000 C 
ATOM     31  N   UNL     1       1.388  11.484  21.435  0.00  0.00    +0.000 NA
ENDBRANCH  26  30
ENDBRANCH  18  27
ENDBRANCH  17  18
ENDBRANCH   1  17
TORSDOF 6
ENDMDL
MODEL 2
REMARK VINA RESULT:      -8.2      1.961      3.374
REMARK  Name = 
REMARK  7 active torsions:
REMARK  status: ('A' for Active; 'I' for Inactive)
REMARK    1  A    between atoms: C_1  and  C_2
REMARK    2  A    between atoms: C_8  and  C_9
REMARK    3  A    between atoms: C_11  and  S_12
REMARK    4  A    between atoms: S_12  and  C_13
REMARK    5  A    between atoms: C_13  and  C_14
REMARK    6  A    between atoms: N_16  and  C_17
REMARK    7  A    between atoms: C_22  and  N_23
REMARK                            x       y       z     vdW  Elec       q    Type
REMARK                         _______ _______ _______ _____ _____    ______ ____
ROOT
ATOM      1  C   UNL     1       1.959   8.599  18.464  0.00  0.00    +0.000 C 
ATOM      2  O   UNL     1       1.980   8.862  17.264  0.00  0.00    +0.000 OA
ATOM      3  N   UNL     1       2.613   7.494  19.027  0.00  0.00    +0.000 N 
ATOM      4  H   UNL     1       2.084   7.051  19.767  0.00  0.00    +0.000 HD
ENDROOT
BRANCH   3   5
ATOM      5  C   UNL     1       3.284   6.592  18.153  0.00  0.00    +0.000 A 
ATOM      6  C   UNL     1       4.177   7.161  17.229  0.00  0.00    +0.000 A 
ATOM      7  C   UNL     1       5.010   6.352  16.457  0.00  0.00    +0.000 A 
ATOM      8  C   UNL     1       4.914   4.972  16.563  0.00  0.00    +0.000 A 
ATOM      9  C   UNL     1       3.981   4.406  17.434  0.00  0.00    +0.000 A 
ATOM     10  C   UNL     1       3.146   5.187  18.266  0.00  0.00    +0.000 A 
BRANCH  10  11
ATOM     11  N   UNL     1       2.248   4.545  19.101  0.00  0.00    +0.000 N 
ATOM     12  C   UNL     1       2.225   4.670  20.562  0.00  0.00    +0.000 C 
ATOM     13  C   UNL     1       2.316   3.279  21.210  0.00  0.00    +0.000 C 
ATOM     14  O   UNL     1       1.290   2.398  20.721  0.00  0.00    +0.000 OA
ATOM     15  C   UNL     1       1.429   2.235  19.298  0.00  0.00    +0.000 C 
ATOM     16  C   UNL     1       1.283   3.573  18.560  0.00  0.00    +0.000 C 
ENDBRANCH  10  11
ENDBRANCH   3   5
BRANCH   1  17
ATOM     17  C   UNL     1       1.230   9.453  19.512  0.00  0.00    +0.000 C 
BRANCH  17  18
ATOM     18  S   UNL     1       1.090  11.200  18.972  0.00  0.00    +0.000 S 
BRANCH  18  27
ATOM     19  C   UNL     1      -2.811  10.295  15.563  0.00  0.00    +0.000 C 
ATOM     20  C   UNL     1      -3.462  11.016  16.712  0.00  0.00    +0.000 A 
ATOM     21  C   UNL     1      -4.828  11.332  16.630  0.00  0.00    +0.000 A 
ATOM     22  C   UNL     1      -5.482  11.937  17.695  0.00  0.00    +0.000 A 
ATOM     23  C   UNL     1      -4.773  12.230  18.853  0.00  0.00    +0.000 A 
ATOM     24  C   UNL     1      -3.397  11.958  18.925  0.00  0.00    +0.000 A 
ATOM     25  C   UNL     1      -2.670  12.295  20.070  0.00  0.00    +0.000 A 
ATOM     26  C   UNL     1      -1.292  12.072  20.125  0.00  0.00    +0.000 A 
ATOM     27  C   UNL     1      -0.678  11.486  19.018  0.00  0.00    +0.000 A 
ATOM     28  N   UNL     1      -1.379  11.119  17.910  0.00  0.00    +0.000 NA
ATOM     29  C   UNL     1      -2.711  11.354  17.850  0.00  0.00    +0.000 A 
BRANCH  26  30
ATOM     30  C   UNL     1      -0.594  12.489  21.308  0.00  0.00    +0.000 C 
ATOM     31  N   UNL     1      -0.108  12.781  22.316  0.00  0.00    +0.000 NA
ENDBRANCH  26  30
ENDBRANCH  18  27
ENDBRANCH  17  18
ENDBRANCH   1  17
TORSDOF 6
ENDMDL
MODEL 3
REMARK VINA RESULT:      -8.0      1.033      1.340
REMARK  Name = 
REMARK  7 active torsions:
REMARK  status: ('A' for Active; 'I' for Inactive)
REMARK    1  A    between atoms: C_1  and  C_2
REMARK    2  A    between atoms: C_8  and  C_9
REMARK    3  A    between atoms: C_11  and  S_12
REMARK    4  A    between atoms: S_12  and  C_13
REMARK    5  A    between atoms: C_13  and  C_14
REMARK    6  A    between atoms: N_16  and  C_17
REMARK    7  A    between atoms: C_22  and  N_23
REMARK                            x       y       z     vdW  Elec       q    Type
REMARK                         _______ _______ _______ _____ _____    ______ ____
ROOT
ATOM      1  C   UNL     1       2.046   7.277  18.682  0.00  0.00    +0.000 C 
ATOM      2  O   UNL     1       2.246   7.572  19.858  0.00  0.00    +0.000 OA
ATOM      3  N   UNL     1       2.145   5.971  18.181  0.00  0.00    +0.000 N 
ATOM      4  H   UNL     1       2.558   5.926  17.258  0.00  0.00    +0.000 HD
ENDROOT
BRANCH   3   5
ATOM      5  C   UNL     1       2.561   4.940  19.070  0.00  0.00    +0.000 A 
ATOM      6  C   UNL     1       1.608   4.489  19.999  0.00  0.00    +0.000 A 
ATOM      7  C   UNL     1       1.860   3.367  20.786  0.00  0.00    +0.000 A 
ATOM      8  C   UNL     1       3.087   2.725  20.692  0.00  0.00    +0.000 A 
ATOM      9  C   UNL     1       4.059   3.213  19.816  0.00  0.00    +0.000 A 
ATOM     10  C   UNL     1       3.832   4.321  18.968  0.00  0.00    +0.000 A 
BRANCH  10  11
ATOM     11  N   UNL     1       4.850   4.740  18.129  0.00  0.00    +0.000 N 
ATOM     12  C   UNL     1       5.794   5.821  18.432  0.00  0.00    +0.000 C 
ATOM     13  C   UNL     1       5.767   6.872  17.312  0.00  0.00    +0.000 C 
ATOM     14  O   UNL     1       6.009   6.279  16.024  0.00  0.00    +0.000 OA
ATOM     15  C   UNL     1       4.992   5.302  15.740  0.00  0.00    +0.000 C 
ATOM     16  C   UNL     1       4.992   4.172  16.779  0.00  0.00    +0.000 C 
ENDBRANCH  10  11
ENDBRANCH   3   5
BRANCH   1  17
ATOM     17  C   UNL     1       1.645   8.296  17.604  0.00  0.00    +0.000 C 
BRANCH  17  18
ATOM     18  S   UNL     1       1.805  10.017  18.217  0.00  0.00    +0.000 S 
BRANCH  18  27
ATOM     19  C   UNL     1      -2.491   9.689  15.200  0.00  0.00    +0.000 C 
ATOM     20  C   UNL     1      -2.933  10.452  16.420  0.00  0.00    +0.000 A 
ATOM     21  C   UNL     1      -4.251  10.934  16.479  0.00  0.00    +0.000 A 
ATOM     22  C   UNL     1      -4.718  11.583  17.613  0.00  0.00    +0.000 A 
ATOM     23  C   UNL     1      -3.869  11.756  18.699  0.00  0.00    +0.000 A 
ATOM     24  C   UNL     1      -2.537  11.316  18.630  0.00  0.00    +0.000 A 
ATOM     25  C   UNL     1      -1.666  11.530  19.701  0.00  0.00    +0.000 A 
ATOM     26  C   UNL     1      -0.328  11.140  19.615  0.00  0.00    +0.000 A 
ATOM     27  C   UNL     1       0.099  10.514  18.443  0.00  0.00    +0.000 A 
ATOM     28  N   UNL     1      -0.746  10.266  17.405  0.00  0.00    +0.000 NA
ATOM     29  C   UNL     1      -2.039  10.664  17.482  0.00  0.00    +0.000 A 
BRANCH  26  30
ATOM     30  C   UNL     1       0.528  11.435  20.729  0.00  0.00    +0.000 C 
ATOM     31  N   UNL     1       1.263  11.582  21.610  0.00  0.00    +0.000 NA
ENDBRANCH  26  30
ENDBRANCH  18  27
ENDBRANCH  17  18
ENDBRANCH   1  17
TORSDOF 6
ENDMDL
MODEL 4
REMARK VINA RESULT:      -7.9      1.266      1.371
REMARK  Name = 
REMARK  7 active torsions:
REMARK  status: ('A' for Active; 'I' for Inactive)
REMARK    1  A    between atoms: C_1  and  C_2
REMARK    2  A    between atoms: C_8  and  C_9
REMARK    3  A    between atoms: C_11  and  S_12
REMARK    4  A    between atoms: S_12  and  C_13
REMARK    5  A    between atoms: C_13  and  C_14
REMARK    6  A    between atoms: N_16  and  C_17
REMARK    7  A    between atoms: C_22  and  N_23
REMARK                            x       y       z     vdW  Elec       q    Type
REMARK                         _______ _______ _______ _____ _____    ______ ____
ROOT
ATOM      1  C   UNL     1       1.992   8.112  18.689  0.00  0.00    +0.000 C 
ATOM      2  O   UNL     1       2.035   8.173  19.915  0.00  0.00    +0.000 OA
ATOM      3  N   UNL     1       2.377   6.981  17.955  0.00  0.00    +0.000 N 
ATOM      4  H   UNL     1       2.866   7.206  17.098  0.00  0.00    +0.000 HD
ENDROOT
BRANCH   3   5
ATOM      5  C   UNL     1       2.906   5.865  18.665  0.00  0.00    +0.000 A 
ATOM      6  C   UNL     1       2.136   5.382  19.737  0.00  0.00    +0.000 A 
ATOM      7  C   UNL     1       2.479   4.191  20.376  0.00  0.00    +0.000 A 
ATOM      8  C   UNL     1       3.623   3.510  19.987  0.00  0.00    +0.000 A 
ATOM      9  C   UNL     1       4.423   4.025  18.965  0.00  0.00    +0.000 A 
ATOM     10  C   UNL     1       4.092   5.205  18.261  0.00  0.00    +0.000 A 
BRANCH  10  11
ATOM     11  N   UNL     1       4.942   5.647  17.261  0.00  0.00    +0.000 N 
ATOM     12  C   UNL     1       5.189   4.940  16.000  0.00  0.00    +0.000 C 
ATOM     13  C   UNL     1       6.696   4.697  15.821  0.00  0.00    +0.000 C 
ATOM     14  O   UNL     1       7.445   5.921  15.918  0.00  0.00    +0.000 OA
ATOM     15  C   UNL     1       7.242   6.512  17.214  0.00  0.00    +0.000 C 
ATOM     16  C   UNL     1       5.764   6.852  17.453  0.00  0.00    +0.000 C 
ENDBRANCH  10  11
ENDBRANCH   3   5
BRANCH   1  17
ATOM     17  C   UNL     1       1.496   9.258  17.794  0.00  0.00    +0.000 C 
BRANCH  17  18
ATOM     18  S   UNL     1       1.542  10.864  18.677  0.00  0.00    +0.000 S 
BRANCH  18  27
ATOM     19  C   UNL     1      -2.768   9.707  15.894  0.00  0.00    +0.000 C 
ATOM     20  C   UNL     1      -3.250  10.620  16.990  0.00  0.00    +0.000 A 
ATOM     21  C   UNL     1      -4.602  10.997  17.014  0.00  0.00    +0.000 A 
ATOM     22  C   UNL     1      -5.101  11.783  18.044  0.00  0.00    +0.000 A 
ATOM     23  C   UNL     1      -4.248  12.197  19.060  0.00  0.00    +0.000 A 
ATOM     24  C   UNL     1      -2.886  11.860  19.019  0.00  0.00    +0.000 A 
ATOM     25  C   UNL     1      -2.016  12.314  20.013  0.00  0.00    +0.000 A 
ATOM     26  C   UNL     1      -0.651  12.024  19.946  0.00  0.00    +0.000 A 
ATOM     27  C   UNL     1      -0.196  11.253  18.877  0.00  0.00    +0.000 A 
ATOM     28  N   UNL     1      -1.037  10.773  17.920  0.00  0.00    +0.000 NA
ATOM     29  C   UNL     1      -2.357  11.072  17.975  0.00  0.00    +0.000 A 
BRANCH  26  30
ATOM     30  C   UNL     1       0.198  12.564  20.970  0.00  0.00    +0.000 C 
ATOM     31  N   UNL     1       0.963  12.972  21.737  0.00  0.00    +0.000 NA
ENDBRANCH  26  30
ENDBRANCH  18  27
ENDBRANCH  17  18
ENDBRANCH   1  17
TORSDOF 6
ENDMDL
MODEL 5
REMARK VINA RESULT:      -7.9      1.431      3.046
REMARK  Name = 
REMARK  7 active torsions:
REMARK  status: ('A' for Active; 'I' for Inactive)
REMARK    1  A    between atoms: C_1  and  C_2
REMARK    2  A    between atoms: C_8  and  C_9
REMARK    3  A    between atoms: C_11  and  S_12
REMARK    4  A    between atoms: S_12  and  C_13
REMARK    5  A    between atoms: C_13  and  C_14
REMARK    6  A    between atoms: N_16  and  C_17
REMARK    7  A    between atoms: C_22  and  N_23
REMARK                            x       y       z     vdW  Elec       q    Type
REMARK                         _______ _______ _______ _____ _____    ______ ____
ROOT
ATOM      1  C   UNL     1       2.783   7.247  18.528  0.00  0.00    +0.000 C 
ATOM      2  O   UNL     1       3.161   7.042  19.679  0.00  0.00    +0.000 OA
ATOM      3  N   UNL     1       3.505   6.853  17.393  0.00  0.00    +0.000 N 
ATOM      4  H   UNL     1       3.472   7.531  16.642  0.00  0.00    +0.000 HD
ENDROOT
BRANCH   3   5
ATOM      5  C   UNL     1       4.776   6.239  17.583  0.00  0.00    +0.000 A 
ATOM      6  C   UNL     1       5.904   7.045  17.347  0.00  0.00    +0.000 A 
ATOM      7  C   UNL     1       7.180   6.592  17.677  0.00  0.00    +0.000 A 
ATOM      8  C   UNL     1       7.342   5.313  18.189  0.00  0.00    +0.000 A 
ATOM      9  C   UNL     1       6.228   4.489  18.363  0.00  0.00    +0.000 A 
ATOM     10  C   UNL     1       4.912   4.921  18.082  0.00  0.00    +0.000 A 
BRANCH  10  11
ATOM     11  N   UNL     1       3.863   4.039  18.283  0.00  0.00    +0.000 N 
ATOM     12  C   UNL     1       2.894   3.642  17.255  0.00  0.00    +0.000 C 
ATOM     13  C   UNL     1       1.465   3.920  17.746  0.00  0.00    +0.000 C 
ATOM     14  O   UNL     1       1.208   3.289  19.013  0.00  0.00    +0.000 OA
ATOM     15  C   UNL     1       2.123   3.796  20.002  0.00  0.00    +0.000 C 
ATOM     16  C   UNL     1       3.581   3.500  19.623  0.00  0.00    +0.000 C 
ENDBRANCH  10  11
ENDBRANCH   3   5
BRANCH   1  17
ATOM     17  C   UNL     1       1.461   7.946  18.176  0.00  0.00    +0.000 C 
BRANCH  17  18
ATOM     18  S   UNL     1       1.663   9.767  18.116  0.00  0.00    +0.000 S 
BRANCH  18  27
ATOM     19  C   UNL     1      -2.694   9.716  15.171  0.00  0.00    +0.000 C 
ATOM     20  C   UNL     1      -3.072  10.488  16.407  0.00  0.00    +0.000 A 
ATOM     21  C   UNL     1      -4.360  11.043  16.494  0.00  0.00    +0.000 A 
ATOM     22  C   UNL     1      -4.771  11.704  17.643  0.00  0.00    +0.000 A 
ATOM     23  C   UNL     1      -3.895  11.816  18.715  0.00  0.00    +0.000 A 
ATOM     24  C   UNL     1      -2.592  11.304  18.618  0.00  0.00    +0.000 A 
ATOM     25  C   UNL     1      -1.692  11.456  19.677  0.00  0.00    +0.000 A 
ATOM     26  C   UNL     1      -0.379  10.992  19.563  0.00  0.00    +0.000 A 
ATOM     27  C   UNL     1      -0.009  10.357  18.377  0.00  0.00    +0.000 A 
ATOM     28  N   UNL     1      -0.883  10.169  17.351  0.00  0.00    +0.000 NA
ATOM     29  C   UNL     1      -2.150  10.638  17.455  0.00  0.00    +0.000 A 
BRANCH  26  30
ATOM     30  C   UNL     1       0.510  11.226  20.665  0.00  0.00    +0.000 C 
ATOM     31  N   UNL     1       1.299  11.440  21.484  0.00  0.00    +0.000 NA
ENDBRANCH  26  30
ENDBRANCH  18  27
ENDBRANCH  17  18
ENDBRANCH   1  17
TORSDOF 6
ENDMDL
MODEL 6
REMARK VINA RESULT:      -7.8      2.203      3.774
REMARK  Name = 
REMARK  7 active torsions:
REMARK  status: ('A' for Active; 'I' for Inactive)
REMARK    1  A    between atoms: C_1  and  C_2
REMARK    2  A    between atoms: C_8  and  C_9
REMARK    3  A    between atoms: C_11  and  S_12
REMARK    4  A    between atoms: S_12  and  C_13
REMARK    5  A    between atoms: C_13  and  C_14
REMARK    6  A    between atoms: N_16  and  C_17
REMARK    7  A    between atoms: C_22  and  N_23
REMARK                            x       y       z     vdW  Elec       q    Type
REMARK                         _______ _______ _______ _____ _____    ______ ____
ROOT
ATOM      1  C   UNL     1       2.169   7.205  19.087  0.00  0.00    +0.000 C 
ATOM      2  O   UNL     1       2.303   6.693  20.196  0.00  0.00    +0.000 OA
ATOM      3  N   UNL     1       2.229   6.483  17.887  0.00  0.00    +0.000 N 
ATOM      4  H   UNL     1       2.703   6.981  17.143  0.00  0.00    +0.000 HD
ENDROOT
BRANCH   3   5
ATOM      5  C   UNL     1       2.525   5.092  17.953  0.00  0.00    +0.000 A 
ATOM      6  C   UNL     1       1.470   4.243  18.332  0.00  0.00    +0.000 A 
ATOM      7  C   UNL     1       1.611   2.859  18.253  0.00  0.00    +0.000 A 
ATOM      8  C   UNL     1       2.821   2.314  17.851  0.00  0.00    +0.000 A 
ATOM      9  C   UNL     1       3.890   3.157  17.536  0.00  0.00    +0.000 A 
ATOM     10  C   UNL     1       3.781   4.566  17.561  0.00  0.00    +0.000 A 
BRANCH  10  11
ATOM     11  N   UNL     1       4.890   5.327  17.235  0.00  0.00    +0.000 N 
ATOM     12  C   UNL     1       5.302   5.665  15.868  0.00  0.00    +0.000 C 
ATOM     13  C   UNL     1       6.755   5.223  15.633  0.00  0.00    +0.000 C 
ATOM     14  O   UNL     1       7.642   5.772  16.623  0.00  0.00    +0.000 OA
ATOM     15  C   UNL     1       7.247   5.322  17.932  0.00  0.00    +0.000 C 
ATOM     16  C   UNL     1       5.824   5.779  18.279  0.00  0.00    +0.000 C 
ENDBRANCH  10  11
ENDBRANCH   3   5
BRANCH   1  17
ATOM     17  C   UNL     1       1.901   8.701  18.865  0.00  0.00    +0.000 C 
BRANCH  17  18
ATOM     18  S   UNL     1       0.755   9.371  20.130  0.00  0.00    +0.000 S 
BRANCH  18  27
ATOM     19  C   UNL     1       3.298  13.885  21.034  0.00  0.00    +0.000 C 
ATOM     20  C   UNL     1       2.103  14.274  20.206  0.00  0.00    +0.000 A 
ATOM     21  C   UNL     1       1.887  15.632  19.921  0.00  0.00    +0.000 A 
ATOM     22  C   UNL     1       0.836  16.028  19.106  0.00  0.00    +0.000 A 
ATOM     23  C   UNL     1      -0.009  15.065  18.568  0.00  0.00    +0.000 A 
ATOM     24  C   UNL     1       0.174  13.709  18.884  0.00  0.00    +0.000 A 
ATOM     25  C   UNL     1      -0.702  12.743  18.383  0.00  0.00    +0.000 A 
ATOM     26  C   UNL     1      -0.553  11.400  18.738  0.00  0.00    +0.000 A 
ATOM     27  C   UNL     1       0.505  11.058  19.581  0.00  0.00    +0.000 A 
ATOM     28  N   UNL     1       1.388  11.983  20.048  0.00  0.00    +0.000 NA
ATOM     29  C   UNL     1       1.229  13.287  19.720  0.00  0.00    +0.000 A 
BRANCH  26  30
ATOM     30  C   UNL     1      -1.517  10.464  18.233  0.00  0.00    +0.000 C 
ATOM     31  N   UNL     1      -2.219   9.674  17.763  0.00  0.00    +0.000 NA
ENDBRANCH  26  30
ENDBRANCH  18  27
ENDBRANCH  17  18
ENDBRANCH   1  17
TORSDOF 6
ENDMDL
MODEL 7
REMARK VINA RESULT:      -7.8      1.486      3.142
REMARK  Name = 
REMARK  7 active torsions:
REMARK  status: ('A' for Active; 'I' for Inactive)
REMARK    1  A    between atoms: C_1  and  C_2
REMARK    2  A    between atoms: C_8  and  C_9
REMARK    3  A    between atoms: C_11  and  S_12
REMARK    4  A    between atoms: S_12  and  C_13
REMARK    5  A    between atoms: C_13  and  C_14
REMARK    6  A    between atoms: N_16  and  C_17
REMARK    7  A    between atoms: C_22  and  N_23
REMARK                            x       y       z     vdW  Elec       q    Type
REMARK                         _______ _______ _______ _____ _____    ______ ____
ROOT
ATOM      1  C   UNL     1       2.550   7.637  18.364  0.00  0.00    +0.000 C 
ATOM      2  O   UNL     1       2.846   7.510  19.550  0.00  0.00    +0.000 OA
ATOM      3  N   UNL     1       3.276   7.051  17.316  0.00  0.00    +0.000 N 
ATOM      4  H   UNL     1       3.358   7.648  16.503  0.00  0.00    +0.000 HD
ENDROOT
BRANCH   3   5
ATOM      5  C   UNL     1       4.455   6.322  17.640  0.00  0.00    +0.000 A 
ATOM      6  C   UNL     1       5.679   6.966  17.390  0.00  0.00    +0.000 A 
ATOM      7  C   UNL     1       6.877   6.411  17.836  0.00  0.00    +0.000 A 
ATOM      8  C   UNL     1       6.865   5.184  18.483  0.00  0.00    +0.000 A 
ATOM      9  C   UNL     1       5.655   4.513  18.674  0.00  0.00    +0.000 A 
ATOM     10  C   UNL     1       4.412   5.057  18.276  0.00  0.00    +0.000 A 
BRANCH  10  11
ATOM     11  N   UNL     1       3.259   4.325  18.503  0.00  0.00    +0.000 N 
ATOM     12  C   UNL     1       2.645   4.117  19.818  0.00  0.00    +0.000 C 
ATOM     13  C   UNL     1       2.480   2.614  20.090  0.00  0.00    +0.000 C 
ATOM     14  O   UNL     1       1.750   1.962  19.036  0.00  0.00    +0.000 OA
ATOM     15  C   UNL     1       2.456   2.113  17.792  0.00  0.00    +0.000 C 
ATOM     16  C   UNL     1       2.607   3.591  17.406  0.00  0.00    +0.000 C 
ENDBRANCH  10  11
ENDBRANCH   3   5
BRANCH   1  17
ATOM     17  C   UNL     1       1.338   8.439  17.868  0.00  0.00    +0.000 C 
BRANCH  17  18
ATOM     18  S   UNL     1       1.486  10.214  18.305  0.00  0.00    +0.000 S 
BRANCH  18  27
ATOM     19  C   UNL     1      -2.766   9.826  15.234  0.00  0.00    +0.000 C 
ATOM     20  C   UNL     1      -3.225  10.613  16.432  0.00  0.00    +0.000 A 
ATOM     21  C   UNL     1      -4.544  11.096  16.462  0.00  0.00    +0.000 A 
ATOM     22  C   UNL     1      -5.028  11.768  17.576  0.00  0.00    +0.000 A 
ATOM     23  C   UNL     1      -4.194  11.962  18.671  0.00  0.00    +0.000 A 
ATOM     24  C   UNL     1      -2.861  11.521  18.629  0.00  0.00    +0.000 A 
ATOM     25  C   UNL     1      -2.006  11.757  19.708  0.00  0.00    +0.000 A 
ATOM     26  C   UNL     1      -0.666  11.365  19.649  0.00  0.00    +0.000 A 
ATOM     27  C   UNL     1      -0.223  10.716  18.497  0.00  0.00    +0.000 A 
ATOM     28  N   UNL     1      -1.053  10.447  17.451  0.00  0.00    +0.000 NA
ATOM     29  C   UNL     1      -2.347  10.846  17.502  0.00  0.00    +0.000 A 
BRANCH  26  30
ATOM     30  C   UNL     1       0.173  11.683  20.769  0.00  0.00    +0.000 C 
ATOM     31  N   UNL     1       0.774  11.903  21.733  0.00  0.00    +0.000 NA
ENDBRANCH  26  30
ENDBRANCH  18  27
ENDBRANCH  17  18
ENDBRANCH   1  17
TORSDOF 6
ENDMDL
MODEL 8
REMARK VINA RESULT:      -7.8      2.600      8.835
REMARK  Name = 
REMARK  7 active torsions:
REMARK  status: ('A' for Active; 'I' for Inactive)
REMARK    1  A    between atoms: C_1  and  C_2
REMARK    2  A    between atoms: C_8  and  C_9
REMARK    3  A    between atoms: C_11  and  S_12
REMARK    4  A    between atoms: S_12  and  C_13
REMARK    5  A    between atoms: C_13  and  C_14
REMARK    6  A    between atoms: N_16  and  C_17
REMARK    7  A    between atoms: C_22  and  N_23
REMARK                            x       y       z     vdW  Elec       q    Type
REMARK                         _______ _______ _______ _____ _____    ______ ____
ROOT
ATOM      1  C   UNL     1       1.656   8.601  18.832  0.00  0.00    +0.000 C 
ATOM      2  O   UNL     1       1.634   8.621  17.604  0.00  0.00    +0.000 OA
ATOM      3  N   UNL     1       0.825   9.394  19.636  0.00  0.00    +0.000 N 
ATOM      4  H   UNL     1       1.290   9.753  20.461  0.00  0.00    +0.000 HD
ENDROOT
BRANCH   3   5
ATOM      5  C   UNL     1      -0.047  10.320  18.995  0.00  0.00    +0.000 A 
ATOM      6  C   UNL     1      -1.284   9.817  18.557  0.00  0.00    +0.000 A 
ATOM      7  C   UNL     1      -2.272  10.678  18.082  0.00  0.00    +0.000 A 
ATOM      8  C   UNL     1      -2.009  12.037  17.989  0.00  0.00    +0.000 A 
ATOM      9  C   UNL     1      -0.756  12.528  18.364  0.00  0.00    +0.000 A 
ATOM     10  C   UNL     1       0.261  11.699  18.890  0.00  0.00    +0.000 A 
BRANCH  10  11
ATOM     11  N   UNL     1       1.474  12.268  19.236  0.00  0.00    +0.000 N 
ATOM     12  C   UNL     1       1.810  12.777  20.570  0.00  0.00    +0.000 C 
ATOM     13  C   UNL     1       2.265  14.241  20.474  0.00  0.00    +0.000 C 
ATOM     14  O   UNL     1       3.346  14.400  19.539  0.00  0.00    +0.000 OA
ATOM     15  C   UNL     1       2.921  13.981  18.230  0.00  0.00    +0.000 C 
ATOM     16  C   UNL     1       2.511  12.502  18.218  0.00  0.00    +0.000 C 
ENDBRANCH  10  11
ENDBRANCH   3   5
BRANCH   1  17
ATOM     17  C   UNL     1       2.583   7.692  19.654  0.00  0.00    +0.000 C 
BRANCH  17  18
ATOM     18  S   UNL     1       1.988   5.958  19.660  0.00  0.00    +0.000 S 
BRANCH  18  27
ATOM     19  C   UNL     1       6.552   7.326  17.434  0.00  0.00    +0.000 C 
ATOM     20  C   UNL     1       6.164   6.038  16.760  0.00  0.00    +0.000 A 
ATOM     21  C   UNL     1       6.978   5.538  15.730  0.00  0.00    +0.000 A 
ATOM     22  C   UNL     1       6.694   4.320  15.128  0.00  0.00    +0.000 A 
ATOM     23  C   UNL     1       5.590   3.591  15.554  0.00  0.00    +0.000 A 
ATOM     24  C   UNL     1       4.747   4.105  16.552  0.00  0.00    +0.000 A 
ATOM     25  C   UNL     1       3.610   3.397  16.949  0.00  0.00    +0.000 A 
ATOM     26  C   UNL     1       2.742   3.930  17.905  0.00  0.00    +0.000 A 
ATOM     27  C   UNL     1       3.059   5.169  18.460  0.00  0.00    +0.000 A 
ATOM     28  N   UNL     1       4.182   5.855  18.110  0.00  0.00    +0.000 NA
ATOM     29  C   UNL     1       5.012   5.346  17.168  0.00  0.00    +0.000 A 
BRANCH  26  30
ATOM     30  C   UNL     1       1.564   3.178  18.231  0.00  0.00    +0.000 C 
ATOM     31  N   UNL     1       0.669   2.526  18.569  0.00  0.00    +0.000 NA
ENDBRANCH  26  30
ENDBRANCH  18  27
ENDBRANCH  17  18
ENDBRANCH   1  17
TORSDOF 6
ENDMDL
MODEL 9
REMARK VINA RESULT:      -7.8      3.638      9.828
REMARK  Name = 
REMARK  7 active torsions:
REMARK  status: ('A' for Active; 'I' for Inactive)
REMARK    1  A    between atoms: C_1  and  C_2
REMARK    2  A    between atoms: C_8  and  C_9
REMARK    3  A    between atoms: C_11  and  S_12
REMARK    4  A    between atoms: S_12  and  C_13
REMARK    5  A    between atoms: C_13  and  C_14
REMARK    6  A    between atoms: N_16  and  C_17
REMARK    7  A    between atoms: C_22  and  N_23
REMARK                            x       y       z     vdW  Elec       q    Type
REMARK                         _______ _______ _______ _____ _____    ______ ____
ROOT
ATOM      1  C   UNL     1      -0.016  10.696  20.907  0.00  0.00    +0.000 C 
ATOM      2  O   UNL     1       0.663  11.247  21.771  0.00  0.00    +0.000 OA
ATOM      3  N   UNL     1      -0.855  11.387  20.022  0.00  0.00    +0.000 N 
ATOM      4  H   UNL     1      -1.726  10.906  19.838  0.00  0.00    +0.000 HD
ENDROOT
BRANCH   3   5
ATOM      5  C   UNL     1      -0.976  12.798  20.173  0.00  0.00    +0.000 A 
ATOM      6  C   UNL     1      -0.020  13.585  19.509  0.00  0.00    +0.000 A 
ATOM      7  C   UNL     1      -0.159  14.971  19.449  0.00  0.00    +0.000 A 
ATOM      8  C   UNL     1      -1.220  15.581  20.101  0.00  0.00    +0.000 A 
ATOM      9  C   UNL     1      -2.134  14.805  20.815  0.00  0.00    +0.000 A 
ATOM     10  C   UNL     1      -2.057  13.394  20.868  0.00  0.00    +0.000 A 
BRANCH  10  11
ATOM     11  N   UNL     1      -3.005  12.701  21.601  0.00  0.00    +0.000 N 
ATOM     12  C   UNL     1      -4.399  12.500  21.190  0.00  0.00    +0.000 C 
ATOM     13  C   UNL     1      -5.348  13.007  22.286  0.00  0.00    +0.000 C 
ATOM     14  O   UNL     1      -5.060  12.401  23.559  0.00  0.00    +0.000 OA
ATOM     15  C   UNL     1      -3.714  12.720  23.955  0.00  0.00    +0.000 C 
ATOM     16  C   UNL     1      -2.689  12.188  22.944  0.00  0.00    +0.000 C 
ENDBRANCH  10  11
ENDBRANCH   3   5
BRANCH   1  17
ATOM     17  C   UNL     1      -0.026   9.178  20.669  0.00  0.00    +0.000 C 
BRANCH  17  18
ATOM     18  S   UNL     1       1.517   8.396  21.275  0.00  0.00    +0.000 S 
BRANCH  18  27
ATOM     19  C   UNL     1       1.532   3.145  21.571  0.00  0.00    +0.000 C 
ATOM     20  C   UNL     1       1.946   3.453  20.157  0.00  0.00    +0.000 A 
ATOM     21  C   UNL     1       2.283   2.392  19.301  0.00  0.00    +0.000 A 
ATOM     22  C   UNL     1       2.605   2.627  17.972  0.00  0.00    +0.000 A 
ATOM     23  C   UNL     1       2.592   3.930  17.488  0.00  0.00    +0.000 A 
ATOM     24  C   UNL     1       2.299   5.000  18.348  0.00  0.00    +0.000 A 
ATOM     25  C   UNL     1       2.331   6.315  17.877  0.00  0.00    +0.000 A 
ATOM     26  C   UNL     1       2.091   7.384  18.744  0.00  0.00    +0.000 A 
ATOM     27  C   UNL     1       1.797   7.095  20.076  0.00  0.00    +0.000 A 
ATOM     28  N   UNL     1       1.727   5.817  20.543  0.00  0.00    +0.000 NA
ATOM     29  C   UNL     1       1.980   4.783  19.706  0.00  0.00    +0.000 A 
BRANCH  26  30
ATOM     30  C   UNL     1       2.190   8.712  18.209  0.00  0.00    +0.000 C 
ATOM     31  N   UNL     1       2.211   9.751  17.700  0.00  0.00    +0.000 NA
ENDBRANCH  26  30
ENDBRANCH  18  27
ENDBRANCH  17  18
ENDBRANCH   1  17
TORSDOF 6
ENDMDL
