MODEL 1
REMARK VINA RESULT:      -8.0      0.000      0.000
REMARK  Name = 
REMARK  17 active torsions:
REMARK  status: ('A' for Active; 'I' for Inactive)
REMARK    1  A    between atoms: C_1  and  C_2
REMARK    2  A    between atoms: C_2  and  C_3
REMARK    3  A    between atoms: C_2  and  C_4
REMARK    4  A    between atoms: C_2  and  O_5
REMARK    5  A    between atoms: O_5  and  C_6
REMARK    6  A    between atoms: C_6  and  C_8
REMARK    7  A    between atoms: C_8  and  C_9
REMARK    8  A    between atoms: C_8  and  N_17
REMARK    9  A    between atoms: C_9  and  C_10
REMARK   10  A    between atoms: C_10  and  C_11
REMARK   11  A    between atoms: C_18  and  C_20
REMARK   12  A    between atoms: C_23  and  N_24
REMARK   13  A    between atoms: C_25  and  O_26
REMARK   14  A    between atoms: O_26  and  C_27
REMARK   15  A    between atoms: C_27  and  C_28
REMARK   16  A    between atoms: C_28  and  C_29
REMARK   17  A    between atoms: C_32  and  O_33
REMARK                            x       y       z     vdW  Elec       q    Type
REMARK                         _______ _______ _______ _____ _____    ______ ____
ROOT
ATOM      1  N   UNL     1       1.235   8.832  19.689  0.00  0.00    +0.000 N 
ATOM      2  C   UNL     1       2.125   8.139  18.899  0.00  0.00    +0.000 C 
ATOM      3  O   UNL     1       2.817   8.669  18.039  0.00  0.00    +0.000 OA
ATOM      4  H   UNL     1       0.732   8.373  20.436  0.00  0.00    +0.000 HD
ENDROOT
BRANCH   2   5
ATOM      5  C   UNL     1       2.258   6.683  19.177  0.00  0.00    +0.000 A 
ATOM      6  C   UNL     1       1.720   6.107  20.330  0.00  0.00    +0.000 A 
ATOM      7  C   UNL     1       1.921   4.749  20.590  0.00  0.00    +0.000 A 
ATOM      8  C   UNL     1       2.635   3.947  19.692  0.00  0.00    +0.000 A 
ATOM      9  C   UNL     1       3.205   4.539  18.547  0.00  0.00    +0.000 A 
ATOM     10  C   UNL     1       2.969   5.889  18.265  0.00  0.00    +0.000 A 
BRANCH   8  11
ATOM     11  N   UNL     1       2.975   2.634  20.066  0.00  0.00    +0.000 N 
ATOM     12  H   UNL     1       3.163   2.015  19.284  0.00  0.00    +0.000 HD
ATOM     13  H   UNL     1       3.721   2.636  20.759  0.00  0.00    +0.000 HD
ENDBRANCH   8  11
BRANCH   9  14
ATOM     14  O   UNL     1       3.961   3.705  17.751  0.00  0.00    +0.000 OA
BRANCH  14  15
ATOM     15  C   UNL     1       4.211   4.186  16.425  0.00  0.00    +0.000 C 
BRANCH  15  16
ATOM     16  C   UNL     1       5.706   4.062  16.121  0.00  0.00    +0.000 C 
BRANCH  16  17
ATOM     17  C   UNL     1       6.517   5.062  16.908  0.00  0.00    +0.000 A 
ATOM     18  C   UNL     1       7.289   4.642  18.002  0.00  0.00    +0.000 A 
ATOM     19  C   UNL     1       8.015   5.566  18.758  0.00  0.00    +0.000 A 
ATOM     20  C   UNL     1       7.966   6.915  18.420  0.00  0.00    +0.000 A 
ATOM     21  C   UNL     1       7.204   7.349  17.344  0.00  0.00    +0.000 A 
ATOM     22  C   UNL     1       6.477   6.426  16.588  0.00  0.00    +0.000 A 
BRANCH  20  23
ATOM     23  O   UNL     1       8.661   7.850  19.129  0.00  0.00    +0.000 OA
ATOM     24  H   UNL     1       8.364   8.731  18.851  0.00  0.00    +0.000 HD
ENDBRANCH  20  23
ENDBRANCH  16  17
ENDBRANCH  15  16
ENDBRANCH  14  15
ENDBRANCH   9  14
ENDBRANCH   2   5
BRANCH   1  25
ATOM     25  C   UNL     1       1.015  10.275  19.526  0.00  0.00    +0.000 C 
BRANCH  25  26
ATOM     26  C   UNL     1       1.254  10.937  20.882  0.00  0.00    +0.000 C 
ATOM     27  O   UNL     1       1.370  12.151  21.010  0.00  0.00    +0.000 OA
BRANCH  26  28
ATOM     28  O   UNL     1       1.324  10.014  21.884  0.00  0.00    +0.000 OA
BRANCH  28  30
ATOM     29  C   UNL     1       0.466   9.371  24.107  0.00  0.00    +0.000 C 
ATOM     30  C   UNL     1       0.128   9.688  22.643  0.00  0.00    +0.000 C 
ATOM     31  C   UNL     1      -0.635   8.546  21.959  0.00  0.00    +0.000 C 
ATOM     32  C   UNL     1      -0.761  10.943  22.636  0.00  0.00    +0.000 C 
ENDBRANCH  28  30
ENDBRANCH  26  28
ENDBRANCH  25  26
BRANCH  25  33
ATOM     33  C   UNL     1      -0.429  10.539  19.083  0.00  0.00    +0.000 C 
BRANCH  33  34
ATOM     34  C   UNL     1      -0.774   9.810  17.782  0.00  0.00    +0.000 C 
BRANCH  34  35
ATOM     35  C   UNL     1      -2.080  10.281  17.195  0.00  0.00    +0.000 A 
ATOM     36  C   UNL     1      -2.372  10.066  15.843  0.00  0.00    +0.000 A 
ATOM     37  C   UNL     1      -3.584  10.505  15.305  0.00  0.00    +0.000 A 
ATOM     38  C   UNL     1      -4.510  11.164  16.113  0.00  0.00    +0.000 A 
ATOM     39  C   UNL     1      -4.225  11.389  17.456  0.00  0.00    +0.000 A 
ATOM     40  C   UNL     1      -3.014  10.945  17.999  0.00  0.00    +0.000 A 
ENDBRANCH  34  35
ENDBRANCH  33  34
ENDBRANCH  25  33
ENDBRANCH   1  25
TORSDOF 14
ENDMDL
MODEL 2
REMARK VINA RESULT:      -8.0      3.010      8.519
REMARK  Name = 
REMARK  17 active torsions:
REMARK  status: ('A' for Active; 'I' for Inactive)
REMARK    1  A    between atoms: C_1  and  C_2
REMARK    2  A    between atoms: C_2  and  C_3
REMARK    3  A    between atoms: C_2  and  C_4
REMARK    4  A    between atoms: C_2  and  O_5
REMARK    5  A    between atoms: O_5  and  C_6
REMARK    6  A    between atoms: C_6  and  C_8
REMARK    7  A    between atoms: C_8  and  C_9
REMARK    8  A    between atoms: C_8  and  N_17
REMARK    9  A    between atoms: C_9  and  C_10
REMARK   10  A    between atoms: C_10  and  C_11
REMARK   11  A    between atoms: C_18  and  C_20
REMARK   12  A    between atoms: C_23  and  N_24
REMARK   13  A    between atoms: C_25  and  O_26
REMARK   14  A    between atoms: O_26  and  C_27
REMARK   15  A    between atoms: C_27  and  C_28
REMARK   16  A    between atoms: C_28  and  C_29
REMARK   17  A    between atoms: C_32  and  O_33
REMARK                            x       y       z     vdW  Elec       q    Type
REMARK                         _______ _______ _______ _____ _____    ______ ____
ROOT
ATOM      1  N   UNL     1       2.929   5.880  18.079  0.00  0.00    +0.000 N 
ATOM      2  C   UNL     1       2.875   6.199  19.417  0.00  0.00    +0.000 C 
ATOM      3  O   UNL     1       3.502   5.597  20.279  0.00  0.00    +0.000 OA
ATOM      4  H   UNL     1       2.452   6.443  17.388  0.00  0.00    +0.000 HD
ENDROOT
BRANCH   2   5
ATOM      5  C   UNL     1       2.042   7.377  19.781  0.00  0.00    +0.000 A 
ATOM      6  C   UNL     1       1.288   7.404  20.958  0.00  0.00    +0.000 A 
ATOM      7  C   UNL     1       0.467   8.499  21.234  0.00  0.00    +0.000 A 
ATOM      8  C   UNL     1       0.410   9.590  20.359  0.00  0.00    +0.000 A 
ATOM      9  C   UNL     1       1.145   9.545  19.157  0.00  0.00    +0.000 A 
ATOM     10  C   UNL     1       2.000   8.466  18.899  0.00  0.00    +0.000 A 
BRANCH   8  11
ATOM     11  N   UNL     1      -0.558  10.590  20.571  0.00  0.00    +0.000 N 
ATOM     12  H   UNL     1      -1.150  10.772  19.767  0.00  0.00    +0.000 HD
ATOM     13  H   UNL     1      -1.087  10.408  21.422  0.00  0.00    +0.000 HD
ENDBRANCH   8  11
BRANCH   9  14
ATOM     14  O   UNL     1       0.977  10.617  18.307  0.00  0.00    +0.000 OA
BRANCH  14  15
ATOM     15  C   UNL     1       1.927  11.677  18.465  0.00  0.00    +0.000 C 
BRANCH  15  16
ATOM     16  C   UNL     1       1.184  13.013  18.522  0.00  0.00    +0.000 C 
BRANCH  16  17
ATOM     17  C   UNL     1       2.136  14.173  18.676  0.00  0.00    +0.000 A 
ATOM     18  C   UNL     1       1.928  15.130  19.681  0.00  0.00    +0.000 A 
ATOM     19  C   UNL     1       2.784  16.227  19.808  0.00  0.00    +0.000 A 
ATOM     20  C   UNL     1       3.851  16.368  18.926  0.00  0.00    +0.000 A 
ATOM     21  C   UNL     1       4.068  15.434  17.922  0.00  0.00    +0.000 A 
ATOM     22  C   UNL     1       3.212  14.338  17.793  0.00  0.00    +0.000 A 
BRANCH  20  23
ATOM     23  O   UNL     1       4.712  17.421  19.015  0.00  0.00    +0.000 OA
ATOM     24  H   UNL     1       4.448  17.973  19.768  0.00  0.00    +0.000 HD
ENDBRANCH  20  23
ENDBRANCH  16  17
ENDBRANCH  15  16
ENDBRANCH  14  15
ENDBRANCH   9  14
ENDBRANCH   2   5
BRANCH   1  25
ATOM     25  C   UNL     1       3.722   4.748  17.583  0.00  0.00    +0.000 C 
BRANCH  25  26
ATOM     26  C   UNL     1       4.775   5.303  16.626  0.00  0.00    +0.000 C 
ATOM     27  O   UNL     1       4.914   4.880  15.484  0.00  0.00    +0.000 OA
BRANCH  26  28
ATOM     28  O   UNL     1       5.512   6.291  17.210  0.00  0.00    +0.000 OA
BRANCH  28  30
ATOM     29  C   UNL     1       7.754   7.240  17.614  0.00  0.00    +0.000 C 
ATOM     30  C   UNL     1       6.853   5.999  17.690  0.00  0.00    +0.000 C 
ATOM     31  C   UNL     1       7.436   4.804  16.926  0.00  0.00    +0.000 C 
ATOM     32  C   UNL     1       6.721   5.614  19.174  0.00  0.00    +0.000 C 
ENDBRANCH  28  30
ENDBRANCH  26  28
ENDBRANCH  25  26
BRANCH  25  33
ATOM     33  C   UNL     1       2.819   3.766  16.826  0.00  0.00    +0.000 C 
BRANCH  33  34
ATOM     34  C   UNL     1       2.715   2.414  17.536  0.00  0.00    +0.000 C 
BRANCH  34  35
ATOM     35  C   UNL     1       2.350   2.562  18.991  0.00  0.00    +0.000 A 
ATOM     36  C   UNL     1       3.279   2.257  19.993  0.00  0.00    +0.000 A 
ATOM     37  C   UNL     1       2.935   2.397  21.339  0.00  0.00    +0.000 A 
ATOM     38  C   UNL     1       1.661   2.838  21.694  0.00  0.00    +0.000 A 
ATOM     39  C   UNL     1       0.728   3.136  20.704  0.00  0.00    +0.000 A 
ATOM     40  C   UNL     1       1.073   3.003  19.355  0.00  0.00    +0.000 A 
ENDBRANCH  34  35
ENDBRANCH  33  34
ENDBRANCH  25  33
ENDBRANCH   1  25
TORSDOF 14
ENDMDL
MODEL 3
REMARK VINA RESULT:      -8.0      1.229      2.056
REMARK  Name = 
REMARK  17 active torsions:
REMARK  status: ('A' for Active; 'I' for Inactive)
REMARK    1  A    between atoms: C_1  and  C_2
REMARK    2  A    between atoms: C_2  and  C_3
REMARK    3  A    between atoms: C_2  and  C_4
REMARK    4  A    between atoms: C_2  and  O_5
REMARK    5  A    between atoms: O_5  and  C_6
REMARK    6  A    between atoms: C_6  and  C_8
REMARK    7  A    between atoms: C_8  and  C_9
REMARK    8  A    between atoms: C_8  and  N_17
REMARK    9  A    between atoms: C_9  and  C_10
REMARK   10  A    between atoms: C_10  and  C_11
REMARK   11  A    between atoms: C_18  and  C_20
REMARK   12  A    between atoms: C_23  and  N_24
REMARK   13  A    between atoms: C_25  and  O_26
REMARK   14  A    between atoms: O_26  and  C_27
REMARK   15  A    between atoms: C_27  and  C_28
REMARK   16  A    between atoms: C_28  and  C_29
REMARK   17  A    between atoms: C_32  and  O_33
REMARK                            x       y       z     vdW  Elec       q    Type
REMARK                         _______ _______ _______ _____ _____    ______ ____
ROOT
ATOM      1  N   UNL     1       1.198   8.981  19.824  0.00  0.00    +0.000 N 
ATOM      2  C   UNL     1       2.011   8.252  18.984  0.00  0.00    +0.000 C 
ATOM      3  O   UNL     1       2.687   8.757  18.096  0.00  0.00    +0.000 OA
ATOM      4  H   UNL     1       0.708   8.539  20.590  0.00  0.00    +0.000 HD
ENDROOT
BRANCH   2   5
ATOM      5  C   UNL     1       2.081   6.788  19.241  0.00  0.00    +0.000 A 
ATOM      6  C   UNL     1       1.824   6.254  20.506  0.00  0.00    +0.000 A 
ATOM      7  C   UNL     1       1.964   4.882  20.725  0.00  0.00    +0.000 A 
ATOM      8  C   UNL     1       2.332   4.025  19.681  0.00  0.00    +0.000 A 
ATOM      9  C   UNL     1       2.624   4.571  18.415  0.00  0.00    +0.000 A 
ATOM     10  C   UNL     1       2.444   5.940  18.185  0.00  0.00    +0.000 A 
BRANCH   8  11
ATOM     11  N   UNL     1       2.640   2.683  19.972  0.00  0.00    +0.000 N 
ATOM     12  H   UNL     1       2.997   2.532  20.911  0.00  0.00    +0.000 HD
ATOM     13  H   UNL     1       1.858   2.073  19.742  0.00  0.00    +0.000 HD
ENDBRANCH   8  11
BRANCH   9  14
ATOM     14  O   UNL     1       3.058   3.678  17.460  0.00  0.00    +0.000 OA
BRANCH  14  15
ATOM     15  C   UNL     1       4.303   4.010  16.832  0.00  0.00    +0.000 C 
BRANCH  15  16
ATOM     16  C   UNL     1       5.417   3.978  17.880  0.00  0.00    +0.000 C 
BRANCH  16  17
ATOM     17  C   UNL     1       6.188   5.275  17.911  0.00  0.00    +0.000 A 
ATOM     18  C   UNL     1       5.792   6.353  17.103  0.00  0.00    +0.000 A 
ATOM     19  C   UNL     1       6.521   7.544  17.099  0.00  0.00    +0.000 A 
ATOM     20  C   UNL     1       7.652   7.657  17.902  0.00  0.00    +0.000 A 
ATOM     21  C   UNL     1       8.062   6.599  18.703  0.00  0.00    +0.000 A 
ATOM     22  C   UNL     1       7.334   5.407  18.707  0.00  0.00    +0.000 A 
BRANCH  20  23
ATOM     23  O   UNL     1       8.392   8.803  17.931  0.00  0.00    +0.000 OA
ATOM     24  H   UNL     1       9.124   8.682  18.556  0.00  0.00    +0.000 HD
ENDBRANCH  20  23
ENDBRANCH  16  17
ENDBRANCH  15  16
ENDBRANCH  14  15
ENDBRANCH   9  14
ENDBRANCH   2   5
BRANCH   1  25
ATOM     25  C   UNL     1       1.047  10.435  19.687  0.00  0.00    +0.000 C 
BRANCH  25  26
ATOM     26  C   UNL     1       0.522  10.974  21.016  0.00  0.00    +0.000 C 
ATOM     27  O   UNL     1       1.010  10.656  22.094  0.00  0.00    +0.000 OA
BRANCH  26  28
ATOM     28  O   UNL     1      -0.531  11.822  20.831  0.00  0.00    +0.000 OA
BRANCH  28  30
ATOM     29  C   UNL     1      -0.774  13.382  22.728  0.00  0.00    +0.000 C 
ATOM     30  C   UNL     1      -0.416  13.211  21.245  0.00  0.00    +0.000 C 
ATOM     31  C   UNL     1      -1.263  14.105  20.331  0.00  0.00    +0.000 C 
ATOM     32  C   UNL     1       1.063  13.604  21.079  0.00  0.00    +0.000 C 
ENDBRANCH  28  30
ENDBRANCH  26  28
ENDBRANCH  25  26
BRANCH  25  33
ATOM     33  C   UNL     1       0.037  10.754  18.577  0.00  0.00    +0.000 C 
BRANCH  33  34
ATOM     34  C   UNL     1      -1.201   9.857  18.649  0.00  0.00    +0.000 C 
BRANCH  34  35
ATOM     35  C   UNL     1      -2.297  10.325  17.728  0.00  0.00    +0.000 A 
ATOM     36  C   UNL     1      -3.306  11.176  18.195  0.00  0.00    +0.000 A 
ATOM     37  C   UNL     1      -4.319  11.607  17.336  0.00  0.00    +0.000 A 
ATOM     38  C   UNL     1      -4.334  11.188  16.006  0.00  0.00    +0.000 A 
ATOM     39  C   UNL     1      -3.340  10.335  15.535  0.00  0.00    +0.000 A 
ATOM     40  C   UNL     1      -2.321   9.907  16.392  0.00  0.00    +0.000 A 
ENDBRANCH  34  35
ENDBRANCH  33  34
ENDBRANCH  25  33
ENDBRANCH   1  25
TORSDOF 14
ENDMDL
MODEL 4
REMARK VINA RESULT:      -7.9      1.637      2.708
REMARK  Name = 
REMARK  17 active torsions:
REMARK  status: ('A' for Active; 'I' for Inactive)
REMARK    1  A    between atoms: C_1  and  C_2
REMARK    2  A    between atoms: C_2  and  C_3
REMARK    3  A    between atoms: C_2  and  C_4
REMARK    4  A    between atoms: C_2  and  O_5
REMARK    5  A    between atoms: O_5  and  C_6
REMARK    6  A    between atoms: C_6  and  C_8
REMARK    7  A    between atoms: C_8  and  C_9
REMARK    8  A    between atoms: C_8  and  N_17
REMARK    9  A    between atoms: C_9  and  C_10
REMARK   10  A    between atoms: C_10  and  C_11
REMARK   11  A    between atoms: C_18  and  C_20
REMARK   12  A    between atoms: C_23  and  N_24
REMARK   13  A    between atoms: C_25  and  O_26
REMARK   14  A    between atoms: O_26  and  C_27
REMARK   15  A    between atoms: C_27  and  C_28
REMARK   16  A    between atoms: C_28  and  C_29
REMARK   17  A    between atoms: C_32  and  O_33
REMARK                            x       y       z     vdW  Elec       q    Type
REMARK                         _______ _______ _______ _____ _____    ______ ____
ROOT
ATOM      1  N   UNL     1       1.108   9.683  19.306  0.00  0.00    +0.000 N 
ATOM      2  C   UNL     1       1.799   8.846  18.458  0.00  0.00    +0.000 C 
ATOM      3  O   UNL     1       2.295   9.217  17.401  0.00  0.00    +0.000 OA
ATOM      4  H   UNL     1       0.773   9.357  20.202  0.00  0.00    +0.000 HD
ENDROOT
BRANCH   2   5
ATOM      5  C   UNL     1       1.972   7.440  18.914  0.00  0.00    +0.000 A 
ATOM      6  C   UNL     1       1.950   7.105  20.271  0.00  0.00    +0.000 A 
ATOM      7  C   UNL     1       2.182   5.785  20.665  0.00  0.00    +0.000 A 
ATOM      8  C   UNL     1       2.408   4.783  19.715  0.00  0.00    +0.000 A 
ATOM      9  C   UNL     1       2.462   5.131  18.350  0.00  0.00    +0.000 A 
ATOM     10  C   UNL     1       2.190   6.445  17.951  0.00  0.00    +0.000 A 
BRANCH   8  11
ATOM     11  N   UNL     1       2.816   3.507  20.147  0.00  0.00    +0.000 N 
ATOM     12  H   UNL     1       3.350   3.512  21.009  0.00  0.00    +0.000 HD
ATOM     13  H   UNL     1       2.027   2.862  20.170  0.00  0.00    +0.000 HD
ENDBRANCH   8  11
BRANCH   9  14
ATOM     14  O   UNL     1       2.769   4.108  17.479  0.00  0.00    +0.000 OA
BRANCH  14  15
ATOM     15  C   UNL     1       4.138   3.685  17.489  0.00  0.00    +0.000 C 
BRANCH  15  16
ATOM     16  C   UNL     1       4.934   4.540  16.501  0.00  0.00    +0.000 C 
BRANCH  16  17
ATOM     17  C   UNL     1       5.946   5.408  17.208  0.00  0.00    +0.000 A 
ATOM     18  C   UNL     1       6.305   6.655  16.673  0.00  0.00    +0.000 A 
ATOM     19  C   UNL     1       7.268   7.448  17.301  0.00  0.00    +0.000 A 
ATOM     20  C   UNL     1       7.876   6.992  18.467  0.00  0.00    +0.000 A 
ATOM     21  C   UNL     1       7.537   5.758  19.007  0.00  0.00    +0.000 A 
ATOM     22  C   UNL     1       6.575   4.964  18.379  0.00  0.00    +0.000 A 
BRANCH  20  23
ATOM     23  O   UNL     1       8.819   7.735  19.114  0.00  0.00    +0.000 OA
ATOM     24  H   UNL     1       8.647   7.688  20.068  0.00  0.00    +0.000 HD
ENDBRANCH  20  23
ENDBRANCH  16  17
ENDBRANCH  15  16
ENDBRANCH  14  15
ENDBRANCH   9  14
ENDBRANCH   2   5
BRANCH   1  25
ATOM     25  C   UNL     1       0.876  11.096  18.980  0.00  0.00    +0.000 C 
BRANCH  25  26
ATOM     26  C   UNL     1       1.641  11.939  19.998  0.00  0.00    +0.000 C 
ATOM     27  O   UNL     1       1.424  11.873  21.203  0.00  0.00    +0.000 OA
BRANCH  26  28
ATOM     28  O   UNL     1       2.558  12.746  19.392  0.00  0.00    +0.000 OA
BRANCH  28  30
ATOM     29  C   UNL     1       3.209  14.929  18.443  0.00  0.00    +0.000 C 
ATOM     30  C   UNL     1       2.473  14.187  19.567  0.00  0.00    +0.000 C 
ATOM     31  C   UNL     1       2.983  14.579  20.959  0.00  0.00    +0.000 C 
ATOM     32  C   UNL     1       0.983  14.560  19.469  0.00  0.00    +0.000 C 
ENDBRANCH  28  30
ENDBRANCH  26  28
ENDBRANCH  25  26
BRANCH  25  33
ATOM     33  C   UNL     1      -0.621  11.417  19.081  0.00  0.00    +0.000 C 
BRANCH  33  34
ATOM     34  C   UNL     1      -1.493  10.192  18.798  0.00  0.00    +0.000 C 
BRANCH  34  35
ATOM     35  C   UNL     1      -2.380  10.390  17.596  0.00  0.00    +0.000 A 
ATOM     36  C   UNL     1      -3.469  11.268  17.650  0.00  0.00    +0.000 A 
ATOM     37  C   UNL     1      -4.286  11.448  16.533  0.00  0.00    +0.000 A 
ATOM     38  C   UNL     1      -4.025  10.749  15.355  0.00  0.00    +0.000 A 
ATOM     39  C   UNL     1      -2.949   9.868  15.294  0.00  0.00    +0.000 A 
ATOM     40  C   UNL     1      -2.125   9.691  16.411  0.00  0.00    +0.000 A 
ENDBRANCH  34  35
ENDBRANCH  33  34
ENDBRANCH  25  33
ENDBRANCH   1  25
TORSDOF 14
ENDMDL
MODEL 5
REMARK VINA RESULT:      -7.9      3.099      8.983
REMARK  Name = 
REMARK  17 active torsions:
REMARK  status: ('A' for Active; 'I' for Inactive)
REMARK    1  A    between atoms: C_1  and  C_2
REMARK    2  A    between atoms: C_2  and  C_3
REMARK    3  A    between atoms: C_2  and  C_4
REMARK    4  A    between atoms: C_2  and  O_5
REMARK    5  A    between atoms: O_5  and  C_6
REMARK    6  A    between atoms: C_6  and  C_8
REMARK    7  A    between atoms: C_8  and  C_9
REMARK    8  A    between atoms: C_8  and  N_17
REMARK    9  A    between atoms: C_9  and  C_10
REMARK   10  A    between atoms: C_10  and  C_11
REMARK   11  A    between atoms: C_18  and  C_20
REMARK   12  A    between atoms: C_23  and  N_24
REMARK   13  A    between atoms: C_25  and  O_26
REMARK   14  A    between atoms: O_26  and  C_27
REMARK   15  A    between atoms: C_27  and  C_28
REMARK   16  A    between atoms: C_28  and  C_29
REMARK   17  A    between atoms: C_32  and  O_33
REMARK                            x       y       z     vdW  Elec       q    Type
REMARK                         _______ _______ _______ _____ _____    ______ ____
ROOT
ATOM      1  N   UNL     1       1.979   7.037  20.196  0.00  0.00    +0.000 N 
ATOM      2  C   UNL     1       1.542   8.247  19.704  0.00  0.00    +0.000 C 
ATOM      3  O   UNL     1       1.641   8.571  18.527  0.00  0.00    +0.000 OA
ATOM      4  H   UNL     1       1.818   6.776  21.159  0.00  0.00    +0.000 HD
ENDROOT
BRANCH   2   5
ATOM      5  C   UNL     1       0.873   9.152  20.678  0.00  0.00    +0.000 A 
ATOM      6  C   UNL     1       0.348   8.672  21.881  0.00  0.00    +0.000 A 
ATOM      7  C   UNL     1      -0.330   9.539  22.740  0.00  0.00    +0.000 A 
ATOM      8  C   UNL     1      -0.468  10.896  22.425  0.00  0.00    +0.000 A 
ATOM      9  C   UNL     1       0.033  11.370  21.195  0.00  0.00    +0.000 A 
ATOM     10  C   UNL     1       0.748  10.510  20.353  0.00  0.00    +0.000 A 
BRANCH   8  11
ATOM     11  N   UNL     1      -1.308  11.702  23.216  0.00  0.00    +0.000 N 
ATOM     12  H   UNL     1      -2.192  11.936  22.777  0.00  0.00    +0.000 HD
ATOM     13  H   UNL     1      -1.419  11.306  24.148  0.00  0.00    +0.000 HD
ENDBRANCH   8  11
BRANCH   9  14
ATOM     14  O   UNL     1      -0.211  12.697  20.917  0.00  0.00    +0.000 OA
BRANCH  14  15
ATOM     15  C   UNL     1      -0.433  13.002  19.535  0.00  0.00    +0.000 C 
BRANCH  15  16
ATOM     16  C   UNL     1      -0.609  14.514  19.377  0.00  0.00    +0.000 C 
BRANCH  16  17
ATOM     17  C   UNL     1       0.708  15.201  19.110  0.00  0.00    +0.000 A 
ATOM     18  C   UNL     1       0.825  16.591  19.268  0.00  0.00    +0.000 A 
ATOM     19  C   UNL     1       2.030  17.240  18.988  0.00  0.00    +0.000 A 
ATOM     20  C   UNL     1       3.120  16.497  18.546  0.00  0.00    +0.000 A 
ATOM     21  C   UNL     1       3.021  15.122  18.379  0.00  0.00    +0.000 A 
ATOM     22  C   UNL     1       1.816  14.473  18.658  0.00  0.00    +0.000 A 
BRANCH  20  23
ATOM     23  O   UNL     1       4.316  17.089  18.264  0.00  0.00    +0.000 OA
ATOM     24  H   UNL     1       4.571  17.645  19.018  0.00  0.00    +0.000 HD
ENDBRANCH  20  23
ENDBRANCH  16  17
ENDBRANCH  15  16
ENDBRANCH  14  15
ENDBRANCH   9  14
ENDBRANCH   2   5
BRANCH   1  25
ATOM     25  C   UNL     1       2.646   6.048  19.340  0.00  0.00    +0.000 C 
BRANCH  25  26
ATOM     26  C   UNL     1       2.736   4.740  20.124  0.00  0.00    +0.000 C 
ATOM     27  O   UNL     1       2.235   4.604  21.235  0.00  0.00    +0.000 OA
BRANCH  26  28
ATOM     28  O   UNL     1       3.433   3.791  19.436  0.00  0.00    +0.000 OA
BRANCH  28  30
ATOM     29  C   UNL     1       1.267   2.662  19.080  0.00  0.00    +0.000 C 
ATOM     30  C   UNL     1       2.717   2.835  18.607  0.00  0.00    +0.000 C 
ATOM     31  C   UNL     1       3.479   1.505  18.558  0.00  0.00    +0.000 C 
ATOM     32  C   UNL     1       2.671   3.425  17.186  0.00  0.00    +0.000 C 
ENDBRANCH  28  30
ENDBRANCH  26  28
ENDBRANCH  25  26
BRANCH  25  33
ATOM     33  C   UNL     1       4.060   6.526  18.990  0.00  0.00    +0.000 C 
BRANCH  33  34
ATOM     34  C   UNL     1       4.207   6.850  17.501  0.00  0.00    +0.000 C 
BRANCH  34  35
ATOM     35  C   UNL     1       5.247   5.989  16.832  0.00  0.00    +0.000 A 
ATOM     36  C   UNL     1       5.253   5.830  15.441  0.00  0.00    +0.000 A 
ATOM     37  C   UNL     1       6.220   5.032  14.827  0.00  0.00    +0.000 A 
ATOM     38  C   UNL     1       7.184   4.383  15.597  0.00  0.00    +0.000 A 
ATOM     39  C   UNL     1       7.182   4.529  16.981  0.00  0.00    +0.000 A 
ATOM     40  C   UNL     1       6.218   5.333  17.598  0.00  0.00    +0.000 A 
ENDBRANCH  34  35
ENDBRANCH  33  34
ENDBRANCH  25  33
ENDBRANCH   1  25
TORSDOF 14
ENDMDL
MODEL 6
REMARK VINA RESULT:      -7.8      3.159      6.047
REMARK  Name = 
REMARK  17 active torsions:
REMARK  status: ('A' for Active; 'I' for Inactive)
REMARK    1  A    between atoms: C_1  and  C_2
REMARK    2  A    between atoms: C_2  and  C_3
REMARK    3  A    between atoms: C_2  and  C_4
REMARK    4  A    between atoms: C_2  and  O_5
REMARK    5  A    between atoms: O_5  and  C_6
REMARK    6  A    between atoms: C_6  and  C_8
REMARK    7  A    between atoms: C_8  and  C_9
REMARK    8  A    between atoms: C_8  and  N_17
REMARK    9  A    between atoms: C_9  and  C_10
REMARK   10  A    between atoms: C_10  and  C_11
REMARK   11  A    between atoms: C_18  and  C_20
REMARK   12  A    between atoms: C_23  and  N_24
REMARK   13  A    between atoms: C_25  and  O_26
REMARK   14  A    between atoms: O_26  and  C_27
REMARK   15  A    between atoms: C_27  and  C_28
REMARK   16  A    between atoms: C_28  and  C_29
REMARK   17  A    between atoms: C_32  and  O_33
REMARK                            x       y       z     vdW  Elec       q    Type
REMARK                         _______ _______ _______ _____ _____    ______ ____
ROOT
ATOM      1  N   UNL     1       3.342   5.672  19.622  0.00  0.00    +0.000 N 
ATOM      2  C   UNL     1       4.568   5.053  19.527  0.00  0.00    +0.000 C 
ATOM      3  O   UNL     1       5.046   4.363  20.419  0.00  0.00    +0.000 OA
ATOM      4  H   UNL     1       2.949   6.176  18.838  0.00  0.00    +0.000 HD
ENDROOT
BRANCH   2   5
ATOM      5  C   UNL     1       5.290   5.213  18.235  0.00  0.00    +0.000 A 
ATOM      6  C   UNL     1       5.106   4.316  17.179  0.00  0.00    +0.000 A 
ATOM      7  C   UNL     1       5.850   4.461  16.006  0.00  0.00    +0.000 A 
ATOM      8  C   UNL     1       6.761   5.513  15.861  0.00  0.00    +0.000 A 
ATOM      9  C   UNL     1       6.968   6.395  16.940  0.00  0.00    +0.000 A 
ATOM     10  C   UNL     1       6.194   6.276  18.100  0.00  0.00    +0.000 A 
BRANCH   8  11
ATOM     11  N   UNL     1       7.622   5.527  14.747  0.00  0.00    +0.000 N 
ATOM     12  H   UNL     1       8.355   6.227  14.798  0.00  0.00    +0.000 HD
ATOM     13  H   UNL     1       7.976   4.592  14.551  0.00  0.00    +0.000 HD
ENDBRANCH   8  11
BRANCH   9  14
ATOM     14  O   UNL     1       7.938   7.357  16.755  0.00  0.00    +0.000 OA
BRANCH  14  15
ATOM     15  C   UNL     1       7.701   8.601  17.424  0.00  0.00    +0.000 C 
BRANCH  15  16
ATOM     16  C   UNL     1       8.642   8.711  18.625  0.00  0.00    +0.000 C 
BRANCH  16  17
ATOM     17  C   UNL     1       9.059  10.140  18.876  0.00  0.00    +0.000 A 
ATOM     18  C   UNL     1       9.645  10.502  20.099  0.00  0.00    +0.000 A 
ATOM     19  C   UNL     1      10.001  11.829  20.353  0.00  0.00    +0.000 A 
ATOM     20  C   UNL     1       9.766  12.797  19.382  0.00  0.00    +0.000 A 
ATOM     21  C   UNL     1       9.181  12.459  18.168  0.00  0.00    +0.000 A 
ATOM     22  C   UNL     1       8.825  11.132  17.914  0.00  0.00    +0.000 A 
BRANCH  20  23
ATOM     23  O   UNL     1      10.099  14.104  19.586  0.00  0.00    +0.000 OA
ATOM     24  H   UNL     1      10.565  14.431  18.800  0.00  0.00    +0.000 HD
ENDBRANCH  20  23
ENDBRANCH  16  17
ENDBRANCH  15  16
ENDBRANCH  14  15
ENDBRANCH   9  14
ENDBRANCH   2   5
BRANCH   1  25
ATOM     25  C   UNL     1       2.521   5.585  20.837  0.00  0.00    +0.000 C 
BRANCH  25  26
ATOM     26  C   UNL     1       2.036   4.143  20.967  0.00  0.00    +0.000 C 
ATOM     27  O   UNL     1       2.450   3.386  21.838  0.00  0.00    +0.000 OA
BRANCH  26  28
ATOM     28  O   UNL     1       1.118   3.835  20.007  0.00  0.00    +0.000 OA
BRANCH  28  30
ATOM     29  C   UNL     1       2.773   2.179  19.228  0.00  0.00    +0.000 C 
ATOM     30  C   UNL     1       1.497   2.968  18.904  0.00  0.00    +0.000 C 
ATOM     31  C   UNL     1       1.626   3.784  17.612  0.00  0.00    +0.000 C 
ATOM     32  C   UNL     1       0.357   1.949  18.726  0.00  0.00    +0.000 C 
ENDBRANCH  28  30
ENDBRANCH  26  28
ENDBRANCH  25  26
BRANCH  25  33
ATOM     33  C   UNL     1       1.310   6.518  20.718  0.00  0.00    +0.000 C 
BRANCH  33  34
ATOM     34  C   UNL     1       1.590   7.904  21.304  0.00  0.00    +0.000 C 
BRANCH  34  35
ATOM     35  C   UNL     1       1.088   9.011  20.413  0.00  0.00    +0.000 A 
ATOM     36  C   UNL     1       0.320  10.056  20.939  0.00  0.00    +0.000 A 
ATOM     37  C   UNL     1      -0.142  11.079  20.108  0.00  0.00    +0.000 A 
ATOM     38  C   UNL     1       0.156  11.062  18.746  0.00  0.00    +0.000 A 
ATOM     39  C   UNL     1       0.913  10.023  18.213  0.00  0.00    +0.000 A 
ATOM     40  C   UNL     1       1.382   9.001  19.045  0.00  0.00    +0.000 A 
ENDBRANCH  34  35
ENDBRANCH  33  34
ENDBRANCH  25  33
ENDBRANCH   1  25
TORSDOF 14
ENDMDL
MODEL 7
REMARK VINA RESULT:      -7.8      2.454      9.464
REMARK  Name = 
REMARK  17 active torsions:
REMARK  status: ('A' for Active; 'I' for Inactive)
REMARK    1  A    between atoms: C_1  and  C_2
REMARK    2  A    between atoms: C_2  and  C_3
REMARK    3  A    between atoms: C_2  and  C_4
REMARK    4  A    between atoms: C_2  and  O_5
REMARK    5  A    between atoms: O_5  and  C_6
REMARK    6  A    between atoms: C_6  and  C_8
REMARK    7  A    between atoms: C_8  and  C_9
REMARK    8  A    between atoms: C_8  and  N_17
REMARK    9  A    between atoms: C_9  and  C_10
REMARK   10  A    between atoms: C_10  and  C_11
REMARK   11  A    between atoms: C_18  and  C_20
REMARK   12  A    between atoms: C_23  and  N_24
REMARK   13  A    between atoms: C_25  and  O_26
REMARK   14  A    between atoms: O_26  and  C_27
REMARK   15  A    between atoms: C_27  and  C_28
REMARK   16  A    between atoms: C_28  and  C_29
REMARK   17  A    between atoms: C_32  and  O_33
REMARK                            x       y       z     vdW  Elec       q    Type
REMARK                         _______ _______ _______ _____ _____    ______ ____
ROOT
ATOM      1  N   UNL     1       2.813   6.396  18.350  0.00  0.00    +0.000 N 
ATOM      2  C   UNL     1       2.530   6.564  19.688  0.00  0.00    +0.000 C 
ATOM      3  O   UNL     1       2.892   5.781  20.557  0.00  0.00    +0.000 OA
ATOM      4  H   UNL     1       2.558   7.099  17.670  0.00  0.00    +0.000 HD
ENDROOT
BRANCH   2   5
ATOM      5  C   UNL     1       1.791   7.802  20.055  0.00  0.00    +0.000 A 
ATOM      6  C   UNL     1       1.430   8.073  21.377  0.00  0.00    +0.000 A 
ATOM      7  C   UNL     1       0.679   9.213  21.674  0.00  0.00    +0.000 A 
ATOM      8  C   UNL     1       0.306  10.108  20.665  0.00  0.00    +0.000 A 
ATOM      9  C   UNL     1       0.643   9.814  19.328  0.00  0.00    +0.000 A 
ATOM     10  C   UNL     1       1.431   8.695  19.035  0.00  0.00    +0.000 A 
BRANCH   8  11
ATOM     11  N   UNL     1      -0.598  11.144  20.966  0.00  0.00    +0.000 N 
ATOM     12  H   UNL     1      -1.358  11.238  20.300  0.00  0.00    +0.000 HD
ATOM     13  H   UNL     1      -0.920  11.076  21.930  0.00  0.00    +0.000 HD
ENDBRANCH   8  11
BRANCH   9  14
ATOM     14  O   UNL     1       0.174  10.698  18.381  0.00  0.00    +0.000 OA
BRANCH  14  15
ATOM     15  C   UNL     1      -1.170  10.467  17.941  0.00  0.00    +0.000 C 
BRANCH  15  16
ATOM     16  C   UNL     1      -1.934  11.792  17.945  0.00  0.00    +0.000 C 
BRANCH  16  17
ATOM     17  C   UNL     1      -3.380  11.598  18.329  0.00  0.00    +0.000 A 
ATOM     18  C   UNL     1      -4.206  10.751  17.574  0.00  0.00    +0.000 A 
ATOM     19  C   UNL     1      -5.555  10.594  17.901  0.00  0.00    +0.000 A 
ATOM     20  C   UNL     1      -6.081  11.289  18.986  0.00  0.00    +0.000 A 
ATOM     21  C   UNL     1      -5.281  12.136  19.741  0.00  0.00    +0.000 A 
ATOM     22  C   UNL     1      -3.932  12.294  19.414  0.00  0.00    +0.000 A 
BRANCH  20  23
ATOM     23  O   UNL     1      -7.391  11.163  19.341  0.00  0.00    +0.000 OA
ATOM     24  H   UNL     1      -7.542  10.256  19.651  0.00  0.00    +0.000 HD
ENDBRANCH  20  23
ENDBRANCH  16  17
ENDBRANCH  15  16
ENDBRANCH  14  15
ENDBRANCH   9  14
ENDBRANCH   2   5
BRANCH   1  25
ATOM     25  C   UNL     1       3.546   5.224  17.855  0.00  0.00    +0.000 C 
BRANCH  25  26
ATOM     26  C   UNL     1       4.653   5.725  16.930  0.00  0.00    +0.000 C 
ATOM     27  O   UNL     1       4.709   5.419  15.744  0.00  0.00    +0.000 OA
BRANCH  26  28
ATOM     28  O   UNL     1       5.537   6.524  17.595  0.00  0.00    +0.000 OA
BRANCH  28  30
ATOM     29  C   UNL     1       7.288   4.862  17.080  0.00  0.00    +0.000 C 
ATOM     30  C   UNL     1       6.816   5.980  18.020  0.00  0.00    +0.000 C 
ATOM     31  C   UNL     1       6.733   5.520  19.481  0.00  0.00    +0.000 C 
ATOM     32  C   UNL     1       7.841   7.125  17.926  0.00  0.00    +0.000 C 
ENDBRANCH  28  30
ENDBRANCH  26  28
ENDBRANCH  25  26
BRANCH  25  33
ATOM     33  C   UNL     1       2.601   4.311  17.063  0.00  0.00    +0.000 C 
BRANCH  33  34
ATOM     34  C   UNL     1       2.635   2.868  17.571  0.00  0.00    +0.000 C 
BRANCH  34  35
ATOM     35  C   UNL     1       2.397   2.782  19.056  0.00  0.00    +0.000 A 
ATOM     36  C   UNL     1       1.129   3.040  19.592  0.00  0.00    +0.000 A 
ATOM     37  C   UNL     1       0.915   2.958  20.969  0.00  0.00    +0.000 A 
ATOM     38  C   UNL     1       1.966   2.622  21.821  0.00  0.00    +0.000 A 
ATOM     39  C   UNL     1       3.232   2.371  21.299  0.00  0.00    +0.000 A 
ATOM     40  C   UNL     1       3.447   2.447  19.919  0.00  0.00    +0.000 A 
ENDBRANCH  34  35
ENDBRANCH  33  34
ENDBRANCH  25  33
ENDBRANCH   1  25
TORSDOF 14
ENDMDL
MODEL 8
REMARK VINA RESULT:      -7.8      3.118      8.705
REMARK  Name = 
REMARK  17 active torsions:
REMARK  status: ('A' for Active; 'I' for Inactive)
REMARK    1  A    between atoms: C_1  and  C_2
REMARK    2  A    between atoms: C_2  and  C_3
REMARK    3  A    between atoms: C_2  and  C_4
REMARK    4  A    between atoms: C_2  and  O_5
REMARK    5  A    between atoms: O_5  and  C_6
REMARK    6  A    between atoms: C_6  and  C_8
REMARK    7  A    between atoms: C_8  and  C_9
REMARK    8  A    between atoms: C_8  and  N_17
REMARK    9  A    between atoms: C_9  and  C_10
REMARK   10  A    between atoms: C_10  and  C_11
REMARK   11  A    between atoms: C_18  and  C_20
REMARK   12  A    between atoms: C_23  and  N_24
REMARK   13  A    between atoms: C_25  and  O_26
REMARK   14  A    between atoms: O_26  and  C_27
REMARK   15  A    between atoms: C_27  and  C_28
REMARK   16  A    between atoms: C_28  and  C_29
REMARK   17  A    between atoms: C_32  and  O_33
REMARK                            x       y       z     vdW  Elec       q    Type
REMARK                         _______ _______ _______ _____ _____    ______ ____
ROOT
ATOM      1  N   UNL     1       2.745   6.331  18.445  0.00  0.00    +0.000 N 
ATOM      2  C   UNL     1       2.458   6.565  19.772  0.00  0.00    +0.000 C 
ATOM      3  O   UNL     1       2.873   5.861  20.685  0.00  0.00    +0.000 OA
ATOM      4  H   UNL     1       2.443   6.973  17.725  0.00  0.00    +0.000 HD
ENDROOT
BRANCH   2   5
ATOM      5  C   UNL     1       1.645   7.775  20.068  0.00  0.00    +0.000 A 
ATOM      6  C   UNL     1       0.815   7.841  21.190  0.00  0.00    +0.000 A 
ATOM      7  C   UNL     1       0.016   8.968  21.399  0.00  0.00    +0.000 A 
ATOM      8  C   UNL     1       0.058  10.050  20.513  0.00  0.00    +0.000 A 
ATOM      9  C   UNL     1       0.871   9.965  19.364  0.00  0.00    +0.000 A 
ATOM     10  C   UNL     1       1.702   8.855  19.175  0.00  0.00    +0.000 A 
BRANCH   8  11
ATOM     11  N   UNL     1      -0.885  11.086  20.649  0.00  0.00    +0.000 N 
ATOM     12  H   UNL     1      -1.604  10.904  21.343  0.00  0.00    +0.000 HD
ATOM     13  H   UNL     1      -0.422  11.983  20.782  0.00  0.00    +0.000 HD
ENDBRANCH   8  11
BRANCH   9  14
ATOM     14  O   UNL     1       0.799  11.033  18.496  0.00  0.00    +0.000 OA
BRANCH  14  15
ATOM     15  C   UNL     1       2.019  11.763  18.321  0.00  0.00    +0.000 C 
BRANCH  15  16
ATOM     16  C   UNL     1       2.128  12.827  19.415  0.00  0.00    +0.000 C 
BRANCH  16  17
ATOM     17  C   UNL     1       2.146  14.220  18.834  0.00  0.00    +0.000 A 
ATOM     18  C   UNL     1       3.235  14.649  18.059  0.00  0.00    +0.000 A 
ATOM     19  C   UNL     1       3.277  15.949  17.548  0.00  0.00    +0.000 A 
ATOM     20  C   UNL     1       2.228  16.823  17.816  0.00  0.00    +0.000 A 
ATOM     21  C   UNL     1       1.146  16.418  18.586  0.00  0.00    +0.000 A 
ATOM     22  C   UNL     1       1.104  15.119  19.098  0.00  0.00    +0.000 A 
BRANCH  20  23
ATOM     23  O   UNL     1       2.227  18.099  17.335  0.00  0.00    +0.000 OA
ATOM     24  H   UNL     1       1.549  18.169  16.645  0.00  0.00    +0.000 HD
ENDBRANCH  20  23
ENDBRANCH  16  17
ENDBRANCH  15  16
ENDBRANCH  14  15
ENDBRANCH   9  14
ENDBRANCH   2   5
BRANCH   1  25
ATOM     25  C   UNL     1       3.547   5.178  18.017  0.00  0.00    +0.000 C 
BRANCH  25  26
ATOM     26  C   UNL     1       4.802   5.714  17.331  0.00  0.00    +0.000 C 
ATOM     27  O   UNL     1       4.951   5.683  16.115  0.00  0.00    +0.000 OA
BRANCH  26  28
ATOM     28  O   UNL     1       5.696   6.206  18.237  0.00  0.00    +0.000 OA
BRANCH  28  30
ATOM     29  C   UNL     1       7.865   5.793  19.340  0.00  0.00    +0.000 C 
ATOM     30  C   UNL     1       7.120   6.013  18.016  0.00  0.00    +0.000 C 
ATOM     31  C   UNL     1       7.692   7.187  17.211  0.00  0.00    +0.000 C 
ATOM     32  C   UNL     1       7.272   4.728  17.182  0.00  0.00    +0.000 C 
ENDBRANCH  28  30
ENDBRANCH  26  28
ENDBRANCH  25  26
BRANCH  25  33
ATOM     33  C   UNL     1       2.751   4.327  17.020  0.00  0.00    +0.000 C 
BRANCH  33  34
ATOM     34  C   UNL     1       2.589   2.882  17.497  0.00  0.00    +0.000 C 
BRANCH  34  35
ATOM     35  C   UNL     1       2.323   2.798  18.978  0.00  0.00    +0.000 A 
ATOM     36  C   UNL     1       1.051   3.079  19.491  0.00  0.00    +0.000 A 
ATOM     37  C   UNL     1       0.811   3.000  20.864  0.00  0.00    +0.000 A 
ATOM     38  C   UNL     1       1.840   2.643  21.735  0.00  0.00    +0.000 A 
ATOM     39  C   UNL     1       3.110   2.369  21.235  0.00  0.00    +0.000 A 
ATOM     40  C   UNL     1       3.351   2.443  19.859  0.00  0.00    +0.000 A 
ENDBRANCH  34  35
ENDBRANCH  33  34
ENDBRANCH  25  33
ENDBRANCH   1  25
TORSDOF 14
ENDMDL
MODEL 9
REMARK VINA RESULT:      -7.7      3.354      8.965
REMARK  Name = 
REMARK  17 active torsions:
REMARK  status: ('A' for Active; 'I' for Inactive)
REMARK    1  A    between atoms: C_1  and  C_2
REMARK    2  A    between atoms: C_2  and  C_3
REMARK    3  A    between atoms: C_2  and  C_4
REMARK    4  A    between atoms: C_2  and  O_5
REMARK    5  A    between atoms: O_5  and  C_6
REMARK    6  A    between atoms: C_6  and  C_8
REMARK    7  A    between atoms: C_8  and  C_9
REMARK    8  A    between atoms: C_8  and  N_17
REMARK    9  A    between atoms: C_9  and  C_10
REMARK   10  A    between atoms: C_10  and  C_11
REMARK   11  A    between atoms: C_18  and  C_20
REMARK   12  A    between atoms: C_23  and  N_24
REMARK   13  A    between atoms: C_25  and  O_26
REMARK   14  A    between atoms: O_26  and  C_27
REMARK   15  A    between atoms: C_27  and  C_28
REMARK   16  A    between atoms: C_28  and  C_29
REMARK   17  A    between atoms: C_32  and  O_33
REMARK                            x       y       z     vdW  Elec       q    Type
REMARK                         _______ _______ _______ _____ _____    ______ ____
ROOT
ATOM      1  N   UNL     1       3.543   6.280  18.335  0.00  0.00    +0.000 N 
ATOM      2  C   UNL     1       2.494   6.252  19.227  0.00  0.00    +0.000 C 
ATOM      3  O   UNL     1       2.038   5.218  19.698  0.00  0.00    +0.000 OA
ATOM      4  H   UNL     1       3.939   7.156  18.021  0.00  0.00    +0.000 HD
ENDROOT
BRANCH   2   5
ATOM      5  C   UNL     1       1.954   7.572  19.652  0.00  0.00    +0.000 A 
ATOM      6  C   UNL     1       1.428   7.770  20.931  0.00  0.00    +0.000 A 
ATOM      7  C   UNL     1       0.870   9.004  21.271  0.00  0.00    +0.000 A 
ATOM      8  C   UNL     1       0.857  10.061  20.355  0.00  0.00    +0.000 A 
ATOM      9  C   UNL     1       1.358   9.849  19.055  0.00  0.00    +0.000 A 
ATOM     10  C   UNL     1       1.955   8.626  18.726  0.00  0.00    +0.000 A 
BRANCH   8  11
ATOM     11  N   UNL     1       0.130  11.227  20.661  0.00  0.00    +0.000 N 
ATOM     12  H   UNL     1       0.660  12.086  20.554  0.00  0.00    +0.000 HD
ATOM     13  H   UNL     1      -0.758  11.242  20.164  0.00  0.00    +0.000 HD
ENDBRANCH   8  11
BRANCH   9  14
ATOM     14  O   UNL     1       1.239  10.909  18.182  0.00  0.00    +0.000 OA
BRANCH  14  15
ATOM     15  C   UNL     1       2.255  11.913  18.297  0.00  0.00    +0.000 C 
BRANCH  15  16
ATOM     16  C   UNL     1       1.608  13.295  18.183  0.00  0.00    +0.000 C 
BRANCH  16  17
ATOM     17  C   UNL     1       2.622  14.399  18.360  0.00  0.00    +0.000 A 
ATOM     18  C   UNL     1       2.210  15.681  18.754  0.00  0.00    +0.000 A 
ATOM     19  C   UNL     1       3.138  16.718  18.885  0.00  0.00    +0.000 A 
ATOM     20  C   UNL     1       4.481  16.472  18.618  0.00  0.00    +0.000 A 
ATOM     21  C   UNL     1       4.906  15.211  18.222  0.00  0.00    +0.000 A 
ATOM     22  C   UNL     1       3.979  14.174  18.089  0.00  0.00    +0.000 A 
BRANCH  20  23
ATOM     23  O   UNL     1       5.420  17.454  18.736  0.00  0.00    +0.000 OA
ATOM     24  H   UNL     1       5.636  17.564  19.676  0.00  0.00    +0.000 HD
ENDBRANCH  20  23
ENDBRANCH  16  17
ENDBRANCH  15  16
ENDBRANCH  14  15
ENDBRANCH   9  14
ENDBRANCH   2   5
BRANCH   1  25
ATOM     25  C   UNL     1       4.176   5.049  17.844  0.00  0.00    +0.000 C 
BRANCH  25  26
ATOM     26  C   UNL     1       5.317   4.701  18.796  0.00  0.00    +0.000 C 
ATOM     27  O   UNL     1       5.505   3.562  19.210  0.00  0.00    +0.000 OA
BRANCH  26  28
ATOM     28  O   UNL     1       6.061   5.801  19.109  0.00  0.00    +0.000 OA
BRANCH  28  30
ATOM     29  C   UNL     1       8.314   5.610  20.099  0.00  0.00    +0.000 C 
ATOM     30  C   UNL     1       7.486   5.809  18.822  0.00  0.00    +0.000 C 
ATOM     31  C   UNL     1       7.865   7.094  18.074  0.00  0.00    +0.000 C 
ATOM     32  C   UNL     1       7.762   4.608  17.900  0.00  0.00    +0.000 C 
ENDBRANCH  28  30
ENDBRANCH  26  28
ENDBRANCH  25  26
BRANCH  25  33
ATOM     33  C   UNL     1       4.742   5.277  16.437  0.00  0.00    +0.000 C 
BRANCH  33  34
ATOM     34  C   UNL     1       5.058   3.961  15.723  0.00  0.00    +0.000 C 
BRANCH  34  35
ATOM     35  C   UNL     1       5.874   4.173  14.474  0.00  0.00    +0.000 A 
ATOM     36  C   UNL     1       5.549   3.505  13.287  0.00  0.00    +0.000 A 
ATOM     37  C   UNL     1       6.308   3.706  12.133  0.00  0.00    +0.000 A 
ATOM     38  C   UNL     1       7.401   4.572  12.157  0.00  0.00    +0.000 A 
ATOM     39  C   UNL     1       7.737   5.235  13.334  0.00  0.00    +0.000 A 
ATOM     40  C   UNL     1       6.973   5.040  14.490  0.00  0.00    +0.000 A 
ENDBRANCH  34  35
ENDBRANCH  33  34
ENDBRANCH  25  33
ENDBRANCH   1  25
TORSDOF 14
ENDMDL
