MODEL 1
REMARK VINA RESULT:      -7.0      0.000      0.000
REMARK  Name = 
REMARK  3 active torsions:
REMARK  status: ('A' for Active; 'I' for Inactive)
REMARK    1  A    between atoms: C_1  and  N_2
REMARK    2  A    between atoms: C_8  and  O_9
REMARK    3  A    between atoms: O_9  and  C_10
REMARK                            x       y       z     vdW  Elec       q    Type
REMARK                         _______ _______ _______ _____ _____    ______ ____
ROOT
ATOM      1  O   UNL     1       5.513   4.111  17.861  0.00  0.00    +0.000 OA
ENDROOT
BRANCH   1   9
ATOM      2  C   UNL     1       0.866   3.895  20.148  0.00  0.00    +0.000 C 
ATOM      3  N   UNL     1       2.135   4.123  19.525  0.00  0.00    +0.000 NA
ATOM      4  C   UNL     1       3.278   3.274  19.837  0.00  0.00    +0.000 C 
ATOM      5  C   UNL     1       2.931   2.099  18.916  0.00  0.00    +0.000 C 
ATOM      6  C   UNL     1       2.474   2.718  17.618  0.00  0.00    +0.000 C 
ATOM      7  C   UNL     1       2.141   4.145  18.037  0.00  0.00    +0.000 C 
ATOM      8  C   UNL     1       3.267   5.100  17.569  0.00  0.00    +0.000 C 
ATOM      9  C   UNL     1       4.531   5.054  18.388  0.00  0.00    +0.000 C 
ATOM     10  C   UNL     1       4.220   4.513  19.810  0.00  0.00    +0.000 C 
ENDBRANCH   1   9
BRANCH   1  11
ATOM     11  C   UNL     1       5.921   4.295  16.635  0.00  0.00    +0.000 A 
ATOM     12  N   UNL     1       5.460   3.544  15.621  0.00  0.00    +0.000 NA
ATOM     13  C   UNL     1       6.108   3.929  14.434  0.00  0.00    +0.000 A 
ATOM     14  C   UNL     1       5.930   3.377  13.129  0.00  0.00    +0.000 A 
ATOM     15  C   UNL     1       6.690   3.855  12.053  0.00  0.00    +0.000 A 
ATOM     16  C   UNL     1       7.597   4.889  12.235  0.00  0.00    +0.000 A 
ATOM     17  C   UNL     1       7.788   5.470  13.496  0.00  0.00    +0.000 A 
ATOM     18  C   UNL     1       7.031   4.991  14.580  0.00  0.00    +0.000 A 
ATOM     19  S   UNL     1       7.059   5.477  16.226  0.00  0.00    +0.000 S 
ENDBRANCH   1  11
TORSDOF 2
ENDMDL
MODEL 2
REMARK VINA RESULT:      -6.8      4.271      7.117
REMARK  Name = 
REMARK  3 active torsions:
REMARK  status: ('A' for Active; 'I' for Inactive)
REMARK    1  A    between atoms: C_1  and  N_2
REMARK    2  A    between atoms: C_8  and  O_9
REMARK    3  A    between atoms: O_9  and  C_10
REMARK                            x       y       z     vdW  Elec       q    Type
REMARK                         _______ _______ _______ _____ _____    ______ ____
ROOT
ATOM      1  O   UNL     1       2.839   6.502  19.076  0.00  0.00    +0.000 OA
ENDROOT
BRANCH   1   9
ATOM      2  C   UNL     1       3.698   1.432  18.421  0.00  0.00    +0.000 C 
ATOM      3  N   UNL     1       3.301   2.791  18.637  0.00  0.00    +0.000 NA
ATOM      4  C   UNL     1       4.187   3.724  19.322  0.00  0.00    +0.000 C 
ATOM      5  C   UNL     1       5.087   4.076  18.133  0.00  0.00    +0.000 C 
ATOM      6  C   UNL     1       4.159   4.264  16.959  0.00  0.00    +0.000 C 
ATOM      7  C   UNL     1       2.894   3.556  17.428  0.00  0.00    +0.000 C 
ATOM      8  C   UNL     1       1.836   4.606  17.848  0.00  0.00    +0.000 C 
ATOM      9  C   UNL     1       2.077   5.262  19.184  0.00  0.00    +0.000 C 
ATOM     10  C   UNL     1       2.972   4.349  20.066  0.00  0.00    +0.000 C 
ENDBRANCH   1   9
BRANCH   1  11
ATOM     11  C   UNL     1       2.190   7.620  19.258  0.00  0.00    +0.000 A 
ATOM     12  N   UNL     1       1.651   7.932  20.449  0.00  0.00    +0.000 NA
ATOM     13  C   UNL     1       0.975   9.161  20.337  0.00  0.00    +0.000 A 
ATOM     14  C   UNL     1       0.250   9.848  21.357  0.00  0.00    +0.000 A 
ATOM     15  C   UNL     1      -0.402  11.054  21.065  0.00  0.00    +0.000 A 
ATOM     16  C   UNL     1      -0.322  11.609  19.796  0.00  0.00    +0.000 A 
ATOM     17  C   UNL     1       0.396  10.976  18.773  0.00  0.00    +0.000 A 
ATOM     18  C   UNL     1       1.048   9.763  19.059  0.00  0.00    +0.000 A 
ATOM     19  S   UNL     1       1.970   8.753  18.023  0.00  0.00    +0.000 S 
ENDBRANCH   1  11
TORSDOF 2
ENDMDL
MODEL 3
REMARK VINA RESULT:      -6.7      4.566      7.890
REMARK  Name = 
REMARK  3 active torsions:
REMARK  status: ('A' for Active; 'I' for Inactive)
REMARK    1  A    between atoms: C_1  and  N_2
REMARK    2  A    between atoms: C_8  and  O_9
REMARK    3  A    between atoms: O_9  and  C_10
REMARK                            x       y       z     vdW  Elec       q    Type
REMARK                         _______ _______ _______ _____ _____    ______ ____
ROOT
ATOM      1  O   UNL     1       2.338   6.844  19.501  0.00  0.00    +0.000 OA
ENDROOT
BRANCH   1   9
ATOM      2  C   UNL     1       3.485   1.838  18.795  0.00  0.00    +0.000 C 
ATOM      3  N   UNL     1       3.160   3.185  19.155  0.00  0.00    +0.000 NA
ATOM      4  C   UNL     1       3.800   4.309  18.483  0.00  0.00    +0.000 C 
ATOM      5  C   UNL     1       2.924   4.333  17.225  0.00  0.00    +0.000 C 
ATOM      6  C   UNL     1       1.508   4.137  17.709  0.00  0.00    +0.000 C 
ATOM      7  C   UNL     1       1.719   3.549  19.099  0.00  0.00    +0.000 C 
ATOM      8  C   UNL     1       1.449   4.637  20.168  0.00  0.00    +0.000 C 
ATOM      9  C   UNL     1       2.541   5.662  20.332  0.00  0.00    +0.000 C 
ATOM     10  C   UNL     1       3.891   5.079  19.832  0.00  0.00    +0.000 C 
ENDBRANCH   1   9
BRANCH   1  11
ATOM     11  C   UNL     1       1.692   7.846  20.033  0.00  0.00    +0.000 A 
ATOM     12  N   UNL     1       1.302   7.826  21.318  0.00  0.00    +0.000 NA
ATOM     13  C   UNL     1       0.589   9.006  21.599  0.00  0.00    +0.000 A 
ATOM     14  C   UNL     1      -0.017   9.381  22.836  0.00  0.00    +0.000 A 
ATOM     15  C   UNL     1      -0.729  10.584  22.934  0.00  0.00    +0.000 A 
ATOM     16  C   UNL     1      -0.825  11.437  21.844  0.00  0.00    +0.000 A 
ATOM     17  C   UNL     1      -0.228  11.114  20.618  0.00  0.00    +0.000 A 
ATOM     18  C   UNL     1       0.484   9.906  20.513  0.00  0.00    +0.000 A 
ATOM     19  S   UNL     1       1.289   9.233  19.156  0.00  0.00    +0.000 S 
ENDBRANCH   1  11
TORSDOF 2
ENDMDL
MODEL 4
REMARK VINA RESULT:      -6.6      2.446      6.392
REMARK  Name = 
REMARK  3 active torsions:
REMARK  status: ('A' for Active; 'I' for Inactive)
REMARK    1  A    between atoms: C_1  and  N_2
REMARK    2  A    between atoms: C_8  and  O_9
REMARK    3  A    between atoms: O_9  and  C_10
REMARK                            x       y       z     vdW  Elec       q    Type
REMARK                         _______ _______ _______ _____ _____    ______ ____
ROOT
ATOM      1  O   UNL     1       4.988   3.555  16.672  0.00  0.00    +0.000 OA
ENDROOT
BRANCH   1   9
ATOM      2  C   UNL     1       7.791   7.879  17.237  0.00  0.00    +0.000 C 
ATOM      3  N   UNL     1       6.938   6.764  16.955  0.00  0.00    +0.000 NA
ATOM      4  C   UNL     1       7.453   5.402  17.009  0.00  0.00    +0.000 C 
ATOM      5  C   UNL     1       7.371   5.202  18.526  0.00  0.00    +0.000 C 
ATOM      6  C   UNL     1       6.042   5.782  18.944  0.00  0.00    +0.000 C 
ATOM      7  C   UNL     1       5.690   6.673  17.759  0.00  0.00    +0.000 C 
ATOM      8  C   UNL     1       4.603   5.986  16.897  0.00  0.00    +0.000 C 
ATOM      9  C   UNL     1       5.093   4.858  16.024  0.00  0.00    +0.000 C 
ATOM     10  C   UNL     1       6.614   5.022  15.755  0.00  0.00    +0.000 C 
ENDBRANCH   1   9
BRANCH   1  11
ATOM     11  C   UNL     1       4.110   3.431  17.629  0.00  0.00    +0.000 A 
ATOM     12  N   UNL     1       4.479   3.130  18.886  0.00  0.00    +0.000 NA
ATOM     13  C   UNL     1       3.327   3.011  19.685  0.00  0.00    +0.000 A 
ATOM     14  C   UNL     1       3.265   2.685  21.074  0.00  0.00    +0.000 A 
ATOM     15  C   UNL     1       2.023   2.569  21.713  0.00  0.00    +0.000 A 
ATOM     16  C   UNL     1       0.846   2.801  21.016  0.00  0.00    +0.000 A 
ATOM     17  C   UNL     1       0.866   3.142  19.657  0.00  0.00    +0.000 A 
ATOM     18  C   UNL     1       2.109   3.256  19.009  0.00  0.00    +0.000 A 
ATOM     19  S   UNL     1       2.451   3.628  17.369  0.00  0.00    +0.000 S 
ENDBRANCH   1  11
TORSDOF 2
ENDMDL
MODEL 5
REMARK VINA RESULT:      -6.6      4.668      8.148
REMARK  Name = 
REMARK  3 active torsions:
REMARK  status: ('A' for Active; 'I' for Inactive)
REMARK    1  A    between atoms: C_1  and  N_2
REMARK    2  A    between atoms: C_8  and  O_9
REMARK    3  A    between atoms: O_9  and  C_10
REMARK                            x       y       z     vdW  Elec       q    Type
REMARK                         _______ _______ _______ _____ _____    ______ ____
ROOT
ATOM      1  O   UNL     1       2.447   6.931  19.743  0.00  0.00    +0.000 OA
ENDROOT
BRANCH   1   9
ATOM      2  C   UNL     1       4.801   3.871  16.285  0.00  0.00    +0.000 C 
ATOM      3  N   UNL     1       4.086   4.799  17.108  0.00  0.00    +0.000 NA
ATOM      4  C   UNL     1       3.431   4.355  18.332  0.00  0.00    +0.000 C 
ATOM      5  C   UNL     1       4.663   4.349  19.244  0.00  0.00    +0.000 C 
ATOM      6  C   UNL     1       5.417   5.616  18.920  0.00  0.00    +0.000 C 
ATOM      7  C   UNL     1       4.846   5.996  17.560  0.00  0.00    +0.000 C 
ATOM      8  C   UNL     1       3.851   7.171  17.724  0.00  0.00    +0.000 C 
ATOM      9  C   UNL     1       2.505   6.800  18.291  0.00  0.00    +0.000 C 
ATOM     10  C   UNL     1       2.224   5.293  18.041  0.00  0.00    +0.000 C 
ENDBRANCH   1   9
BRANCH   1  11
ATOM     11  C   UNL     1       1.731   7.910  20.227  0.00  0.00    +0.000 A 
ATOM     12  N   UNL     1       1.343   7.926  21.514  0.00  0.00    +0.000 NA
ATOM     13  C   UNL     1       0.547   9.064  21.737  0.00  0.00    +0.000 A 
ATOM     14  C   UNL     1      -0.083   9.456  22.957  0.00  0.00    +0.000 A 
ATOM     15  C   UNL     1      -0.879  10.609  22.998  0.00  0.00    +0.000 A 
ATOM     16  C   UNL     1      -1.037  11.398  21.868  0.00  0.00    +0.000 A 
ATOM     17  C   UNL     1      -0.419  11.058  20.656  0.00  0.00    +0.000 A 
ATOM     18  C   UNL     1       0.378   9.900  20.609  0.00  0.00    +0.000 A 
ATOM     19  S   UNL     1       1.230   9.219  19.284  0.00  0.00    +0.000 S 
ENDBRANCH   1  11
TORSDOF 2
ENDMDL
MODEL 6
REMARK VINA RESULT:      -6.5      2.723      3.652
REMARK  Name = 
REMARK  3 active torsions:
REMARK  status: ('A' for Active; 'I' for Inactive)
REMARK    1  A    between atoms: C_1  and  N_2
REMARK    2  A    between atoms: C_8  and  O_9
REMARK    3  A    between atoms: O_9  and  C_10
REMARK                            x       y       z     vdW  Elec       q    Type
REMARK                         _______ _______ _______ _____ _____    ______ ____
ROOT
ATOM      1  O   UNL     1       4.419   3.784  16.996  0.00  0.00    +0.000 OA
ENDROOT
BRANCH   1   9
ATOM      2  C   UNL     1       1.360   2.747  21.050  0.00  0.00    +0.000 C 
ATOM      3  N   UNL     1       2.068   3.098  19.856  0.00  0.00    +0.000 NA
ATOM      4  C   UNL     1       3.422   3.633  19.925  0.00  0.00    +0.000 C 
ATOM      5  C   UNL     1       4.169   2.305  20.092  0.00  0.00    +0.000 C 
ATOM      6  C   UNL     1       3.524   1.349  19.118  0.00  0.00    +0.000 C 
ATOM      7  C   UNL     1       2.192   2.029  18.829  0.00  0.00    +0.000 C 
ATOM      8  C   UNL     1       2.242   2.699  17.433  0.00  0.00    +0.000 C 
ATOM      9  C   UNL     1       3.023   3.987  17.366  0.00  0.00    +0.000 C 
ATOM     10  C   UNL     1       3.099   4.632  18.777  0.00  0.00    +0.000 C 
ENDBRANCH   1   9
BRANCH   1  11
ATOM     11  C   UNL     1       5.240   4.780  17.188  0.00  0.00    +0.000 A 
ATOM     12  N   UNL     1       6.233   4.709  18.091  0.00  0.00    +0.000 NA
ATOM     13  C   UNL     1       6.917   5.937  18.117  0.00  0.00    +0.000 A 
ATOM     14  C   UNL     1       8.025   6.296  18.944  0.00  0.00    +0.000 A 
ATOM     15  C   UNL     1       8.569   7.585  18.870  0.00  0.00    +0.000 A 
ATOM     16  C   UNL     1       8.062   8.514  17.973  0.00  0.00    +0.000 A 
ATOM     17  C   UNL     1       6.988   8.195  17.130  0.00  0.00    +0.000 A 
ATOM     18  C   UNL     1       6.436   6.904  17.203  0.00  0.00    +0.000 A 
ATOM     19  S   UNL     1       5.118   6.233  16.332  0.00  0.00    +0.000 S 
ENDBRANCH   1  11
TORSDOF 2
ENDMDL
MODEL 7
REMARK VINA RESULT:      -6.4      4.458      7.066
REMARK  Name = 
REMARK  3 active torsions:
REMARK  status: ('A' for Active; 'I' for Inactive)
REMARK    1  A    between atoms: C_1  and  N_2
REMARK    2  A    between atoms: C_8  and  O_9
REMARK    3  A    between atoms: O_9  and  C_10
REMARK                            x       y       z     vdW  Elec       q    Type
REMARK                         _______ _______ _______ _____ _____    ______ ____
ROOT
ATOM      1  O   UNL     1       2.764   6.406  19.450  0.00  0.00    +0.000 OA
ENDROOT
BRANCH   1   9
ATOM      2  C   UNL     1       3.636   1.420  18.330  0.00  0.00    +0.000 C 
ATOM      3  N   UNL     1       3.235   2.753  18.667  0.00  0.00    +0.000 NA
ATOM      4  C   UNL     1       4.107   3.615  19.455  0.00  0.00    +0.000 C 
ATOM      5  C   UNL     1       5.030   4.078  18.322  0.00  0.00    +0.000 C 
ATOM      6  C   UNL     1       4.123   4.379  17.154  0.00  0.00    +0.000 C 
ATOM      7  C   UNL     1       2.850   3.631  17.530  0.00  0.00    +0.000 C 
ATOM      8  C   UNL     1       1.784   4.637  18.029  0.00  0.00    +0.000 C 
ATOM      9  C   UNL     1       2.000   5.162  19.425  0.00  0.00    +0.000 C 
ATOM     10  C   UNL     1       2.878   4.168  20.233  0.00  0.00    +0.000 C 
ENDBRANCH   1   9
BRANCH   1  11
ATOM     11  C   UNL     1       2.096   7.515  19.619  0.00  0.00    +0.000 A 
ATOM     12  N   UNL     1       1.984   8.424  18.636  0.00  0.00    +0.000 NA
ATOM     13  C   UNL     1       1.259   9.530  19.116  0.00  0.00    +0.000 A 
ATOM     14  C   UNL     1       0.929  10.725  18.406  0.00  0.00    +0.000 A 
ATOM     15  C   UNL     1       0.228  11.753  19.051  0.00  0.00    +0.000 A 
ATOM     16  C   UNL     1      -0.180  11.611  20.369  0.00  0.00    +0.000 A 
ATOM     17  C   UNL     1       0.108  10.446  21.094  0.00  0.00    +0.000 A 
ATOM     18  C   UNL     1       0.814   9.412  20.453  0.00  0.00    +0.000 A 
ATOM     19  S   UNL     1       1.330   7.899  21.077  0.00  0.00    +0.000 S 
ENDBRANCH   1  11
TORSDOF 2
ENDMDL
MODEL 8
REMARK VINA RESULT:      -6.4      0.873      1.790
REMARK  Name = 
REMARK  3 active torsions:
REMARK  status: ('A' for Active; 'I' for Inactive)
REMARK    1  A    between atoms: C_1  and  N_2
REMARK    2  A    between atoms: C_8  and  O_9
REMARK    3  A    between atoms: O_9  and  C_10
REMARK                            x       y       z     vdW  Elec       q    Type
REMARK                         _______ _______ _______ _____ _____    ______ ____
ROOT
ATOM      1  O   UNL     1       4.980   4.271  17.573  0.00  0.00    +0.000 OA
ENDROOT
BRANCH   1   9
ATOM      2  C   UNL     1       0.457   3.101  19.819  0.00  0.00    +0.000 C 
ATOM      3  N   UNL     1       1.720   3.260  19.165  0.00  0.00    +0.000 NA
ATOM      4  C   UNL     1       1.972   4.407  18.302  0.00  0.00    +0.000 C 
ATOM      5  C   UNL     1       2.302   5.429  19.395  0.00  0.00    +0.000 C 
ATOM      6  C   UNL     1       3.193   4.706  20.375  0.00  0.00    +0.000 C 
ATOM      7  C   UNL     1       2.921   3.244  20.044  0.00  0.00    +0.000 C 
ATOM      8  C   UNL     1       4.108   2.664  19.236  0.00  0.00    +0.000 C 
ATOM      9  C   UNL     1       4.165   3.080  17.789  0.00  0.00    +0.000 C 
ATOM     10  C   UNL     1       2.751   3.501  17.305  0.00  0.00    +0.000 C 
ENDBRANCH   1   9
BRANCH   1  11
ATOM     11  C   UNL     1       5.537   4.411  16.401  0.00  0.00    +0.000 A 
ATOM     12  N   UNL     1       5.130   3.695  15.340  0.00  0.00    +0.000 NA
ATOM     13  C   UNL     1       5.938   4.014  14.234  0.00  0.00    +0.000 A 
ATOM     14  C   UNL     1       5.860   3.470  12.916  0.00  0.00    +0.000 A 
ATOM     15  C   UNL     1       6.774   3.874  11.934  0.00  0.00    +0.000 A 
ATOM     16  C   UNL     1       7.741   4.828  12.219  0.00  0.00    +0.000 A 
ATOM     17  C   UNL     1       7.838   5.400  13.495  0.00  0.00    +0.000 A 
ATOM     18  C   UNL     1       6.926   4.995  14.486  0.00  0.00    +0.000 A 
ATOM     19  S   UNL     1       6.811   5.488  16.126  0.00  0.00    +0.000 S 
ENDBRANCH   1  11
TORSDOF 2
ENDMDL
MODEL 9
REMARK VINA RESULT:      -6.4      4.250      7.163
REMARK  Name = 
REMARK  3 active torsions:
REMARK  status: ('A' for Active; 'I' for Inactive)
REMARK    1  A    between atoms: C_1  and  N_2
REMARK    2  A    between atoms: C_8  and  O_9
REMARK    3  A    between atoms: O_9  and  C_10
REMARK                            x       y       z     vdW  Elec       q    Type
REMARK                         _______ _______ _______ _____ _____    ______ ____
ROOT
ATOM      1  O   UNL     1       2.981   6.618  19.133  0.00  0.00    +0.000 OA
ENDROOT
BRANCH   1   9
ATOM      2  C   UNL     1       3.370   1.622  17.808  0.00  0.00    +0.000 C 
ATOM      3  N   UNL     1       3.213   3.030  18.016  0.00  0.00    +0.000 NA
ATOM      4  C   UNL     1       2.657   3.540  19.263  0.00  0.00    +0.000 C 
ATOM      5  C   UNL     1       3.930   3.461  20.113  0.00  0.00    +0.000 C 
ATOM      6  C   UNL     1       5.042   3.977  19.233  0.00  0.00    +0.000 C 
ATOM      7  C   UNL     1       4.435   3.859  17.840  0.00  0.00    +0.000 C 
ATOM      8  C   UNL     1       4.006   5.261  17.340  0.00  0.00    +0.000 C 
ATOM      9  C   UNL     1       2.737   5.800  17.950  0.00  0.00    +0.000 C 
ATOM     10  C   UNL     1       1.866   4.627  18.479  0.00  0.00    +0.000 C 
ENDBRANCH   1   9
BRANCH   1  11
ATOM     11  C   UNL     1       2.240   7.681  19.289  0.00  0.00    +0.000 A 
ATOM     12  N   UNL     1       1.677   7.977  20.472  0.00  0.00    +0.000 NA
ATOM     13  C   UNL     1       0.899   9.140  20.331  0.00  0.00    +0.000 A 
ATOM     14  C   UNL     1       0.118   9.790  21.335  0.00  0.00    +0.000 A 
ATOM     15  C   UNL     1      -0.634  10.927  21.014  0.00  0.00    +0.000 A 
ATOM     16  C   UNL     1      -0.604  11.454  19.730  0.00  0.00    +0.000 A 
ATOM     17  C   UNL     1       0.165  10.857  18.722  0.00  0.00    +0.000 A 
ATOM     18  C   UNL     1       0.918   9.713  19.038  0.00  0.00    +0.000 A 
ATOM     19  S   UNL     1       1.922   8.758  18.025  0.00  0.00    +0.000 S 
ENDBRANCH   1  11
TORSDOF 2
ENDMDL
