MODEL 1
REMARK VINA RESULT:      -7.0      0.000      0.000
REMARK  Name = 
REMARK  9 active torsions:
REMARK  status: ('A' for Active; 'I' for Inactive)
REMARK    1  A    between atoms: C_1  and  C_2
REMARK    2  A    between atoms: C_5  and  C_6
REMARK    3  A    between atoms: C_6  and  C_8
REMARK    4  A    between atoms: C_10  and  N_11
REMARK    5  A    between atoms: N_11  and  C_12
REMARK    6  A    between atoms: C_12  and  C_13
REMARK    7  A    between atoms: C_12  and  C_14
REMARK    8  A    between atoms: C_15  and  C_16
REMARK    9  A    between atoms: C_18  and  N_19
REMARK                            x       y       z     vdW  Elec       q    Type
REMARK                         _______ _______ _______ _____ _____    ______ ____
ROOT
ATOM      1  C   UNL     1       5.283   5.065  18.235  0.00  0.00    +0.000 A 
ATOM      2  S   UNL     1       4.542   4.041  19.390  0.00  0.00    +0.000 S 
ATOM      3  C   UNL     1       3.361   5.208  19.830  0.00  0.00    +0.000 A 
ATOM      4  C   UNL     1       3.416   6.280  18.949  0.00  0.00    +0.000 A 
ATOM      5  C   UNL     1       4.514   6.195  18.033  0.00  0.00    +0.000 A 
ENDROOT
BRANCH   5   6
ATOM      6  N   UNL     1       4.812   7.130  17.099  0.00  0.00    +0.000 N 
ATOM      7  H   UNL     1       4.445   8.079  17.125  0.00  0.00    +0.000 HD
ATOM      8  H   UNL     1       5.058   6.836  16.147  0.00  0.00    +0.000 HD
ENDBRANCH   5   6
BRANCH   1   9
ATOM      9  C   UNL     1       6.511   4.666  17.546  0.00  0.00    +0.000 C 
ATOM     10  O   UNL     1       7.561   4.426  18.146  0.00  0.00    +0.000 OA
BRANCH   9  15
ATOM     11  C   UNL     1       6.625   3.775  11.805  0.00  0.00    +0.000 C 
ATOM     12  C   UNL     1       6.571   4.045  13.280  0.00  0.00    +0.000 A 
ATOM     13  C   UNL     1       7.494   4.909  13.876  0.00  0.00    +0.000 A 
ATOM     14  C   UNL     1       7.450   5.151  15.249  0.00  0.00    +0.000 A 
ATOM     15  C   UNL     1       6.516   4.491  16.059  0.00  0.00    +0.000 A 
ATOM     16  C   UNL     1       5.561   3.660  15.460  0.00  0.00    +0.000 A 
ATOM     17  C   UNL     1       5.590   3.441  14.078  0.00  0.00    +0.000 A 
ENDBRANCH   9  15
ENDBRANCH   1   9
BRANCH   3  18
ATOM     18  N   UNL     1       2.470   5.015  20.853  0.00  0.00    +0.000 N 
ATOM     19  H   UNL     1       2.790   5.167  21.810  0.00  0.00    +0.000 HD
BRANCH  18  20
ATOM     20  C   UNL     1       1.374   4.042  20.776  0.00  0.00    +0.000 C 
ATOM     21  C   UNL     1       1.101   3.667  19.319  0.00  0.00    +0.000 C 
ATOM     22  C   UNL     1       1.775   2.799  21.568  0.00  0.00    +0.000 C 
ENDBRANCH  18  20
ENDBRANCH   3  18
BRANCH   4  23
ATOM     23  C   UNL     1       2.489   7.369  19.005  0.00  0.00    +0.000 C 
ATOM     24  N   UNL     1       1.732   8.250  19.061  0.00  0.00    +0.000 NA
ENDBRANCH   4  23
TORSDOF 6
ENDMDL
MODEL 2
REMARK VINA RESULT:      -6.9      2.163      2.829
REMARK  Name = 
REMARK  9 active torsions:
REMARK  status: ('A' for Active; 'I' for Inactive)
REMARK    1  A    between atoms: C_1  and  C_2
REMARK    2  A    between atoms: C_5  and  C_6
REMARK    3  A    between atoms: C_6  and  C_8
REMARK    4  A    between atoms: C_10  and  N_11
REMARK    5  A    between atoms: N_11  and  C_12
REMARK    6  A    between atoms: C_12  and  C_13
REMARK    7  A    between atoms: C_12  and  C_14
REMARK    8  A    between atoms: C_15  and  C_16
REMARK    9  A    between atoms: C_18  and  N_19
REMARK                            x       y       z     vdW  Elec       q    Type
REMARK                         _______ _______ _______ _____ _____    ______ ____
ROOT
ATOM      1  C   UNL     1       4.727   4.937  17.369  0.00  0.00    +0.000 A 
ATOM      2  S   UNL     1       3.027   4.965  17.578  0.00  0.00    +0.000 S 
ATOM      3  C   UNL     1       3.041   3.717  18.757  0.00  0.00    +0.000 A 
ATOM      4  C   UNL     1       4.351   3.441  19.127  0.00  0.00    +0.000 A 
ATOM      5  C   UNL     1       5.315   4.145  18.335  0.00  0.00    +0.000 A 
ENDROOT
BRANCH   5   6
ATOM      6  N   UNL     1       6.658   4.023  18.468  0.00  0.00    +0.000 N 
ATOM      7  H   UNL     1       7.242   3.535  17.791  0.00  0.00    +0.000 HD
ATOM      8  H   UNL     1       7.079   4.037  19.403  0.00  0.00    +0.000 HD
ENDBRANCH   5   6
BRANCH   1   9
ATOM      9  C   UNL     1       5.377   5.749  16.339  0.00  0.00    +0.000 C 
ATOM     10  O   UNL     1       5.620   6.948  16.494  0.00  0.00    +0.000 OA
BRANCH   9  15
ATOM     11  C   UNL     1       7.113   3.110  11.462  0.00  0.00    +0.000 C 
ATOM     12  C   UNL     1       6.653   3.830  12.696  0.00  0.00    +0.000 A 
ATOM     13  C   UNL     1       7.500   4.728  13.349  0.00  0.00    +0.000 A 
ATOM     14  C   UNL     1       7.076   5.389  14.502  0.00  0.00    +0.000 A 
ATOM     15  C   UNL     1       5.815   5.121  15.053  0.00  0.00    +0.000 A 
ATOM     16  C   UNL     1       4.947   4.256  14.377  0.00  0.00    +0.000 A 
ATOM     17  C   UNL     1       5.365   3.616  13.205  0.00  0.00    +0.000 A 
ENDBRANCH   9  15
ENDBRANCH   1   9
BRANCH   3  18
ATOM     18  N   UNL     1       1.896   3.173  19.278  0.00  0.00    +0.000 N 
ATOM     19  H   UNL     1       1.243   2.717  18.641  0.00  0.00    +0.000 HD
BRANCH  18  20
ATOM     20  C   UNL     1       1.232   3.717  20.469  0.00  0.00    +0.000 C 
ATOM     21  C   UNL     1       1.392   2.758  21.649  0.00  0.00    +0.000 C 
ATOM     22  C   UNL     1       1.867   5.065  20.802  0.00  0.00    +0.000 C 
ENDBRANCH  18  20
ENDBRANCH   3  18
BRANCH   4  23
ATOM     23  C   UNL     1       4.677   2.508  20.162  0.00  0.00    +0.000 C 
ATOM     24  N   UNL     1       4.931   1.749  21.005  0.00  0.00    +0.000 NA
ENDBRANCH   4  23
TORSDOF 6
ENDMDL
MODEL 3
REMARK VINA RESULT:      -6.9      1.417      2.806
REMARK  Name = 
REMARK  9 active torsions:
REMARK  status: ('A' for Active; 'I' for Inactive)
REMARK    1  A    between atoms: C_1  and  C_2
REMARK    2  A    between atoms: C_5  and  C_6
REMARK    3  A    between atoms: C_6  and  C_8
REMARK    4  A    between atoms: C_10  and  N_11
REMARK    5  A    between atoms: N_11  and  C_12
REMARK    6  A    between atoms: C_12  and  C_13
REMARK    7  A    between atoms: C_12  and  C_14
REMARK    8  A    between atoms: C_15  and  C_16
REMARK    9  A    between atoms: C_18  and  N_19
REMARK                            x       y       z     vdW  Elec       q    Type
REMARK                         _______ _______ _______ _____ _____    ______ ____
ROOT
ATOM      1  C   UNL     1       5.319   4.807  18.377  0.00  0.00    +0.000 A 
ATOM      2  S   UNL     1       4.496   6.303  18.245  0.00  0.00    +0.000 S 
ATOM      3  C   UNL     1       3.156   5.773  19.179  0.00  0.00    +0.000 A 
ATOM      4  C   UNL     1       3.445   4.541  19.750  0.00  0.00    +0.000 A 
ATOM      5  C   UNL     1       4.687   3.991  19.294  0.00  0.00    +0.000 A 
ENDROOT
BRANCH   5   6
ATOM      6  N   UNL     1       5.179   2.786  19.669  0.00  0.00    +0.000 N 
ATOM      7  H   UNL     1       5.996   2.359  19.234  0.00  0.00    +0.000 HD
ATOM      8  H   UNL     1       4.553   2.088  20.084  0.00  0.00    +0.000 HD
ENDBRANCH   5   6
BRANCH   1   9
ATOM      9  C   UNL     1       6.563   4.559  17.646  0.00  0.00    +0.000 C 
ATOM     10  O   UNL     1       7.647   4.410  18.213  0.00  0.00    +0.000 OA
BRANCH   9  15
ATOM     11  C   UNL     1       6.597   3.863  11.878  0.00  0.00    +0.000 C 
ATOM     12  C   UNL     1       6.563   4.083  13.361  0.00  0.00    +0.000 A 
ATOM     13  C   UNL     1       7.489   4.932  13.973  0.00  0.00    +0.000 A 
ATOM     14  C   UNL     1       7.464   5.128  15.353  0.00  0.00    +0.000 A 
ATOM     15  C   UNL     1       6.547   4.435  16.155  0.00  0.00    +0.000 A 
ATOM     16  C   UNL     1       5.589   3.617  15.542  0.00  0.00    +0.000 A 
ATOM     17  C   UNL     1       5.598   3.445  14.153  0.00  0.00    +0.000 A 
ENDBRANCH   9  15
ENDBRANCH   1   9
BRANCH   3  18
ATOM     18  N   UNL     1       2.031   6.535  19.365  0.00  0.00    +0.000 N 
ATOM     19  H   UNL     1       1.205   6.323  18.805  0.00  0.00    +0.000 HD
BRANCH  18  20
ATOM     20  C   UNL     1       2.088   7.943  19.772  0.00  0.00    +0.000 C 
ATOM     21  C   UNL     1       1.605   8.843  18.635  0.00  0.00    +0.000 C 
ATOM     22  C   UNL     1       1.197   8.128  20.999  0.00  0.00    +0.000 C 
ENDBRANCH  18  20
ENDBRANCH   3  18
BRANCH   4  23
ATOM     23  C   UNL     1       2.554   3.888  20.660  0.00  0.00    +0.000 C 
ATOM     24  N   UNL     1       1.827   3.367  21.403  0.00  0.00    +0.000 NA
ENDBRANCH   4  23
TORSDOF 6
ENDMDL
MODEL 4
REMARK VINA RESULT:      -6.9      2.924      6.765
REMARK  Name = 
REMARK  9 active torsions:
REMARK  status: ('A' for Active; 'I' for Inactive)
REMARK    1  A    between atoms: C_1  and  C_2
REMARK    2  A    between atoms: C_5  and  C_6
REMARK    3  A    between atoms: C_6  and  C_8
REMARK    4  A    between atoms: C_10  and  N_11
REMARK    5  A    between atoms: N_11  and  C_12
REMARK    6  A    between atoms: C_12  and  C_13
REMARK    7  A    between atoms: C_12  and  C_14
REMARK    8  A    between atoms: C_15  and  C_16
REMARK    9  A    between atoms: C_18  and  N_19
REMARK                            x       y       z     vdW  Elec       q    Type
REMARK                         _______ _______ _______ _____ _____    ______ ____
ROOT
ATOM      1  C   UNL     1       6.043   4.479  16.133  0.00  0.00    +0.000 A 
ATOM      2  S   UNL     1       5.509   3.286  15.028  0.00  0.00    +0.000 S 
ATOM      3  C   UNL     1       6.341   3.986  13.699  0.00  0.00    +0.000 A 
ATOM      4  C   UNL     1       7.179   4.995  14.155  0.00  0.00    +0.000 A 
ATOM      5  C   UNL     1       7.012   5.273  15.550  0.00  0.00    +0.000 A 
ENDROOT
BRANCH   5   6
ATOM      6  N   UNL     1       7.681   6.235  16.230  0.00  0.00    +0.000 N 
ATOM      7  H   UNL     1       8.123   6.073  17.133  0.00  0.00    +0.000 HD
ATOM      8  H   UNL     1       7.431   7.221  16.092  0.00  0.00    +0.000 HD
ENDBRANCH   5   6
BRANCH   1   9
ATOM      9  C   UNL     1       5.550   4.512  17.511  0.00  0.00    +0.000 C 
ATOM     10  O   UNL     1       6.183   5.034  18.431  0.00  0.00    +0.000 OA
BRANCH   9  15
ATOM     11  C   UNL     1       0.332   2.422  18.981  0.00  0.00    +0.000 C 
ATOM     12  C   UNL     1       1.677   2.936  18.562  0.00  0.00    +0.000 A 
ATOM     13  C   UNL     1       2.830   2.185  18.807  0.00  0.00    +0.000 A 
ATOM     14  C   UNL     1       4.082   2.669  18.426  0.00  0.00    +0.000 A 
ATOM     15  C   UNL     1       4.208   3.936  17.842  0.00  0.00    +0.000 A 
ATOM     16  C   UNL     1       3.052   4.672  17.554  0.00  0.00    +0.000 A 
ATOM     17  C   UNL     1       1.795   4.172  17.912  0.00  0.00    +0.000 A 
ENDBRANCH   9  15
ENDBRANCH   1   9
BRANCH   3  18
ATOM     18  N   UNL     1       6.220   3.519  12.416  0.00  0.00    +0.000 N 
ATOM     19  H   UNL     1       6.465   4.144  11.648  0.00  0.00    +0.000 HD
BRANCH  18  20
ATOM     20  C   UNL     1       5.217   2.520  12.029  0.00  0.00    +0.000 C 
ATOM     21  C   UNL     1       4.132   3.166  11.167  0.00  0.00    +0.000 C 
ATOM     22  C   UNL     1       5.916   1.412  11.245  0.00  0.00    +0.000 C 
ENDBRANCH  18  20
ENDBRANCH   3  18
BRANCH   4  23
ATOM     23  C   UNL     1       8.073   5.702  13.288  0.00  0.00    +0.000 C 
ATOM     24  N   UNL     1       8.790   6.282  12.580  0.00  0.00    +0.000 NA
ENDBRANCH   4  23
TORSDOF 6
ENDMDL
MODEL 5
REMARK VINA RESULT:      -6.8      2.212      3.041
REMARK  Name = 
REMARK  9 active torsions:
REMARK  status: ('A' for Active; 'I' for Inactive)
REMARK    1  A    between atoms: C_1  and  C_2
REMARK    2  A    between atoms: C_5  and  C_6
REMARK    3  A    between atoms: C_6  and  C_8
REMARK    4  A    between atoms: C_10  and  N_11
REMARK    5  A    between atoms: N_11  and  C_12
REMARK    6  A    between atoms: C_12  and  C_13
REMARK    7  A    between atoms: C_12  and  C_14
REMARK    8  A    between atoms: C_15  and  C_16
REMARK    9  A    between atoms: C_18  and  N_19
REMARK                            x       y       z     vdW  Elec       q    Type
REMARK                         _______ _______ _______ _____ _____    ______ ____
ROOT
ATOM      1  C   UNL     1       4.600   4.846  17.266  0.00  0.00    +0.000 A 
ATOM      2  S   UNL     1       2.902   4.820  17.486  0.00  0.00    +0.000 S 
ATOM      3  C   UNL     1       2.968   3.610  18.703  0.00  0.00    +0.000 A 
ATOM      4  C   UNL     1       4.289   3.392  19.071  0.00  0.00    +0.000 A 
ATOM      5  C   UNL     1       5.223   4.105  18.251  0.00  0.00    +0.000 A 
ENDROOT
BRANCH   5   6
ATOM      6  N   UNL     1       6.569   4.035  18.378  0.00  0.00    +0.000 N 
ATOM      7  H   UNL     1       7.037   3.892  19.272  0.00  0.00    +0.000 HD
ATOM      8  H   UNL     1       7.169   4.518  17.700  0.00  0.00    +0.000 HD
ENDBRANCH   5   6
BRANCH   1   9
ATOM      9  C   UNL     1       5.214   5.648  16.207  0.00  0.00    +0.000 C 
ATOM     10  O   UNL     1       5.363   6.868  16.300  0.00  0.00    +0.000 OA
BRANCH   9  15
ATOM     11  C   UNL     1       7.197   3.284  11.283  0.00  0.00    +0.000 C 
ATOM     12  C   UNL     1       6.696   3.854  12.577  0.00  0.00    +0.000 A 
ATOM     13  C   UNL     1       5.406   3.564  13.027  0.00  0.00    +0.000 A 
ATOM     14  C   UNL     1       4.937   4.103  14.225  0.00  0.00    +0.000 A 
ATOM     15  C   UNL     1       5.732   4.987  14.968  0.00  0.00    +0.000 A 
ATOM     16  C   UNL     1       7.041   5.245  14.544  0.00  0.00    +0.000 A 
ATOM     17  C   UNL     1       7.519   4.680  13.356  0.00  0.00    +0.000 A 
ENDBRANCH   9  15
ENDBRANCH   1   9
BRANCH   3  18
ATOM     18  N   UNL     1       1.846   3.043  19.249  0.00  0.00    +0.000 N 
ATOM     19  H   UNL     1       1.218   2.524  18.636  0.00  0.00    +0.000 HD
BRANCH  18  20
ATOM     20  C   UNL     1       1.151   3.618  20.407  0.00  0.00    +0.000 C 
ATOM     21  C   UNL     1       1.351   2.734  21.638  0.00  0.00    +0.000 C 
ATOM     22  C   UNL     1       1.719   5.012  20.667  0.00  0.00    +0.000 C 
ENDBRANCH  18  20
ENDBRANCH   3  18
BRANCH   4  23
ATOM     23  C   UNL     1       4.654   2.504  20.133  0.00  0.00    +0.000 C 
ATOM     24  N   UNL     1       4.940   1.781  20.997  0.00  0.00    +0.000 NA
ENDBRANCH   4  23
TORSDOF 6
ENDMDL
MODEL 6
REMARK VINA RESULT:      -6.8      2.909      6.690
REMARK  Name = 
REMARK  9 active torsions:
REMARK  status: ('A' for Active; 'I' for Inactive)
REMARK    1  A    between atoms: C_1  and  C_2
REMARK    2  A    between atoms: C_5  and  C_6
REMARK    3  A    between atoms: C_6  and  C_8
REMARK    4  A    between atoms: C_10  and  N_11
REMARK    5  A    between atoms: N_11  and  C_12
REMARK    6  A    between atoms: C_12  and  C_13
REMARK    7  A    between atoms: C_12  and  C_14
REMARK    8  A    between atoms: C_15  and  C_16
REMARK    9  A    between atoms: C_18  and  N_19
REMARK                            x       y       z     vdW  Elec       q    Type
REMARK                         _______ _______ _______ _____ _____    ______ ____
ROOT
ATOM      1  C   UNL     1       5.991   4.640  16.239  0.00  0.00    +0.000 A 
ATOM      2  S   UNL     1       5.410   3.467  15.135  0.00  0.00    +0.000 S 
ATOM      3  C   UNL     1       6.317   4.095  13.819  0.00  0.00    +0.000 A 
ATOM      4  C   UNL     1       7.204   5.057  14.283  0.00  0.00    +0.000 A 
ATOM      5  C   UNL     1       7.021   5.364  15.670  0.00  0.00    +0.000 A 
ENDROOT
BRANCH   5   6
ATOM      6  N   UNL     1       7.732   6.292  16.354  0.00  0.00    +0.000 N 
ATOM      7  H   UNL     1       8.065   7.159  15.934  0.00  0.00    +0.000 HD
ATOM      8  H   UNL     1       8.307   6.004  17.153  0.00  0.00    +0.000 HD
ENDBRANCH   5   6
BRANCH   1   9
ATOM      9  C   UNL     1       5.467   4.723  17.603  0.00  0.00    +0.000 C 
ATOM     10  O   UNL     1       6.053   5.329  18.504  0.00  0.00    +0.000 OA
BRANCH   9  15
ATOM     11  C   UNL     1       0.391   2.136  18.741  0.00  0.00    +0.000 C 
ATOM     12  C   UNL     1       1.696   2.829  18.487  0.00  0.00    +0.000 A 
ATOM     13  C   UNL     1       1.724   4.082  17.869  0.00  0.00    +0.000 A 
ATOM     14  C   UNL     1       2.939   4.722  17.624  0.00  0.00    +0.000 A 
ATOM     15  C   UNL     1       4.152   4.095  17.942  0.00  0.00    +0.000 A 
ATOM     16  C   UNL     1       4.126   2.859  18.601  0.00  0.00    +0.000 A 
ATOM     17  C   UNL     1       2.905   2.233  18.872  0.00  0.00    +0.000 A 
ENDBRANCH   9  15
ENDBRANCH   1   9
BRANCH   3  18
ATOM     18  N   UNL     1       6.197   3.619  12.539  0.00  0.00    +0.000 N 
ATOM     19  H   UNL     1       6.446   4.237  11.768  0.00  0.00    +0.000 HD
BRANCH  18  20
ATOM     20  C   UNL     1       5.193   2.620  12.157  0.00  0.00    +0.000 C 
ATOM     21  C   UNL     1       4.106   3.265  11.297  0.00  0.00    +0.000 C 
ATOM     22  C   UNL     1       5.889   1.510  11.374  0.00  0.00    +0.000 C 
ENDBRANCH  18  20
ENDBRANCH   3  18
BRANCH   4  23
ATOM     23  C   UNL     1       8.161   5.694  13.431  0.00  0.00    +0.000 C 
ATOM     24  N   UNL     1       8.944   6.203  12.738  0.00  0.00    +0.000 NA
ENDBRANCH   4  23
TORSDOF 6
ENDMDL
MODEL 7
REMARK VINA RESULT:      -6.8      0.114      1.059
REMARK  Name = 
REMARK  9 active torsions:
REMARK  status: ('A' for Active; 'I' for Inactive)
REMARK    1  A    between atoms: C_1  and  C_2
REMARK    2  A    between atoms: C_5  and  C_6
REMARK    3  A    between atoms: C_6  and  C_8
REMARK    4  A    between atoms: C_10  and  N_11
REMARK    5  A    between atoms: N_11  and  C_12
REMARK    6  A    between atoms: C_12  and  C_13
REMARK    7  A    between atoms: C_12  and  C_14
REMARK    8  A    between atoms: C_15  and  C_16
REMARK    9  A    between atoms: C_18  and  N_19
REMARK                            x       y       z     vdW  Elec       q    Type
REMARK                         _______ _______ _______ _____ _____    ______ ____
ROOT
ATOM      1  C   UNL     1       5.280   5.052  18.321  0.00  0.00    +0.000 A 
ATOM      2  S   UNL     1       4.530   4.025  19.468  0.00  0.00    +0.000 S 
ATOM      3  C   UNL     1       3.341   5.188  19.895  0.00  0.00    +0.000 A 
ATOM      4  C   UNL     1       3.404   6.261  19.016  0.00  0.00    +0.000 A 
ATOM      5  C   UNL     1       4.511   6.179  18.111  0.00  0.00    +0.000 A 
ENDROOT
BRANCH   5   6
ATOM      6  N   UNL     1       4.816   7.115  17.181  0.00  0.00    +0.000 N 
ATOM      7  H   UNL     1       5.640   7.058  16.584  0.00  0.00    +0.000 HD
ATOM      8  H   UNL     1       4.498   8.082  17.309  0.00  0.00    +0.000 HD
ENDBRANCH   5   6
BRANCH   1   9
ATOM      9  C   UNL     1       6.517   4.656  17.644  0.00  0.00    +0.000 C 
ATOM     10  O   UNL     1       7.577   4.481  18.248  0.00  0.00    +0.000 OA
BRANCH   9  15
ATOM     11  C   UNL     1       6.422   3.889  11.886  0.00  0.00    +0.000 C 
ATOM     12  C   UNL     1       6.472   4.047  13.377  0.00  0.00    +0.000 A 
ATOM     13  C   UNL     1       5.567   3.362  14.192  0.00  0.00    +0.000 A 
ATOM     14  C   UNL     1       5.608   3.518  15.578  0.00  0.00    +0.000 A 
ATOM     15  C   UNL     1       6.519   4.405  16.169  0.00  0.00    +0.000 A 
ATOM     16  C   UNL     1       7.455   5.058  15.359  0.00  0.00    +0.000 A 
ATOM     17  C   UNL     1       7.431   4.878  13.971  0.00  0.00    +0.000 A 
ENDBRANCH   9  15
ENDBRANCH   1   9
BRANCH   3  18
ATOM     18  N   UNL     1       2.440   4.993  20.910  0.00  0.00    +0.000 N 
ATOM     19  H   UNL     1       2.751   5.145  21.869  0.00  0.00    +0.000 HD
BRANCH  18  20
ATOM     20  C   UNL     1       1.348   4.017  20.820  0.00  0.00    +0.000 C 
ATOM     21  C   UNL     1       1.086   3.647  19.360  0.00  0.00    +0.000 C 
ATOM     22  C   UNL     1       1.747   2.772  21.610  0.00  0.00    +0.000 C 
ENDBRANCH  18  20
ENDBRANCH   3  18
BRANCH   4  23
ATOM     23  C   UNL     1       2.473   7.348  19.063  0.00  0.00    +0.000 C 
ATOM     24  N   UNL     1       1.723   8.235  19.110  0.00  0.00    +0.000 NA
ENDBRANCH   4  23
TORSDOF 6
ENDMDL
MODEL 8
REMARK VINA RESULT:      -6.6      2.548      6.874
REMARK  Name = 
REMARK  9 active torsions:
REMARK  status: ('A' for Active; 'I' for Inactive)
REMARK    1  A    between atoms: C_1  and  C_2
REMARK    2  A    between atoms: C_5  and  C_6
REMARK    3  A    between atoms: C_6  and  C_8
REMARK    4  A    between atoms: C_10  and  N_11
REMARK    5  A    between atoms: N_11  and  C_12
REMARK    6  A    between atoms: C_12  and  C_13
REMARK    7  A    between atoms: C_12  and  C_14
REMARK    8  A    between atoms: C_15  and  C_16
REMARK    9  A    between atoms: C_18  and  N_19
REMARK                            x       y       z     vdW  Elec       q    Type
REMARK                         _______ _______ _______ _____ _____    ______ ____
ROOT
ATOM      1  C   UNL     1       4.852   5.320  16.510  0.00  0.00    +0.000 A 
ATOM      2  S   UNL     1       4.573   3.753  15.878  0.00  0.00    +0.000 S 
ATOM      3  C   UNL     1       5.765   3.915  14.653  0.00  0.00    +0.000 A 
ATOM      4  C   UNL     1       6.500   5.073  14.870  0.00  0.00    +0.000 A 
ATOM      5  C   UNL     1       5.980   5.874  15.937  0.00  0.00    +0.000 A 
ENDROOT
BRANCH   5   6
ATOM      6  N   UNL     1       6.490   7.067  16.324  0.00  0.00    +0.000 N 
ATOM      7  H   UNL     1       7.159   7.594  15.764  0.00  0.00    +0.000 HD
ATOM      8  H   UNL     1       6.563   7.288  17.323  0.00  0.00    +0.000 HD
ENDBRANCH   5   6
BRANCH   1   9
ATOM      9  C   UNL     1       4.009   5.869  17.574  0.00  0.00    +0.000 C 
ATOM     10  O   UNL     1       3.771   7.075  17.676  0.00  0.00    +0.000 OA
BRANCH   9  15
ATOM     11  C   UNL     1       1.460   2.506  21.568  0.00  0.00    +0.000 C 
ATOM     12  C   UNL     1       2.120   3.337  20.507  0.00  0.00    +0.000 A 
ATOM     13  C   UNL     1       3.506   3.303  20.340  0.00  0.00    +0.000 A 
ATOM     14  C   UNL     1       4.119   4.084  19.360  0.00  0.00    +0.000 A 
ATOM     15  C   UNL     1       3.361   4.955  18.566  0.00  0.00    +0.000 A 
ATOM     16  C   UNL     1       1.967   4.959  18.700  0.00  0.00    +0.000 A 
ATOM     17  C   UNL     1       1.352   4.153  19.665  0.00  0.00    +0.000 A 
ENDBRANCH   9  15
ENDBRANCH   1   9
BRANCH   3  18
ATOM     18  N   UNL     1       5.968   2.968  13.683  0.00  0.00    +0.000 N 
ATOM     19  H   UNL     1       6.588   2.185  13.892  0.00  0.00    +0.000 HD
BRANCH  18  20
ATOM     20  C   UNL     1       5.922   3.281  12.250  0.00  0.00    +0.000 C 
ATOM     21  C   UNL     1       6.651   2.202  11.449  0.00  0.00    +0.000 C 
ATOM     22  C   UNL     1       4.459   3.353  11.818  0.00  0.00    +0.000 C 
ENDBRANCH  18  20
ENDBRANCH   3  18
BRANCH   4  23
ATOM     23  C   UNL     1       7.628   5.429  14.063  0.00  0.00    +0.000 C 
ATOM     24  N   UNL     1       8.551   5.713  13.416  0.00  0.00    +0.000 NA
ENDBRANCH   4  23
TORSDOF 6
ENDMDL
MODEL 9
REMARK VINA RESULT:      -6.6      1.396      2.995
REMARK  Name = 
REMARK  9 active torsions:
REMARK  status: ('A' for Active; 'I' for Inactive)
REMARK    1  A    between atoms: C_1  and  C_2
REMARK    2  A    between atoms: C_5  and  C_6
REMARK    3  A    between atoms: C_6  and  C_8
REMARK    4  A    between atoms: C_10  and  N_11
REMARK    5  A    between atoms: N_11  and  C_12
REMARK    6  A    between atoms: C_12  and  C_13
REMARK    7  A    between atoms: C_12  and  C_14
REMARK    8  A    between atoms: C_15  and  C_16
REMARK    9  A    between atoms: C_18  and  N_19
REMARK                            x       y       z     vdW  Elec       q    Type
REMARK                         _______ _______ _______ _____ _____    ______ ____
ROOT
ATOM      1  C   UNL     1       5.483   5.056  17.863  0.00  0.00    +0.000 A 
ATOM      2  S   UNL     1       4.662   6.484  17.395  0.00  0.00    +0.000 S 
ATOM      3  C   UNL     1       3.308   6.168  18.402  0.00  0.00    +0.000 A 
ATOM      4  C   UNL     1       3.588   5.091  19.234  0.00  0.00    +0.000 A 
ATOM      5  C   UNL     1       4.836   4.459  18.928  0.00  0.00    +0.000 A 
ENDROOT
BRANCH   5   6
ATOM      6  N   UNL     1       5.323   3.367  19.565  0.00  0.00    +0.000 N 
ATOM      7  H   UNL     1       5.245   3.229  20.572  0.00  0.00    +0.000 HD
ATOM      8  H   UNL     1       6.120   2.860  19.166  0.00  0.00    +0.000 HD
ENDBRANCH   5   6
BRANCH   1   9
ATOM      9  C   UNL     1       6.738   4.659  17.224  0.00  0.00    +0.000 C 
ATOM     10  O   UNL     1       7.759   4.406  17.866  0.00  0.00    +0.000 OA
BRANCH   9  15
ATOM     11  C   UNL     1       6.894   4.254  11.430  0.00  0.00    +0.000 C 
ATOM     12  C   UNL     1       6.881   4.319  12.928  0.00  0.00    +0.000 A 
ATOM     13  C   UNL     1       5.980   3.545  13.663  0.00  0.00    +0.000 A 
ATOM     14  C   UNL     1       5.961   3.614  15.056  0.00  0.00    +0.000 A 
ATOM     15  C   UNL     1       6.807   4.501  15.737  0.00  0.00    +0.000 A 
ATOM     16  C   UNL     1       7.741   5.246  15.007  0.00  0.00    +0.000 A 
ATOM     17  C   UNL     1       7.777   5.153  13.611  0.00  0.00    +0.000 A 
ENDBRANCH   9  15
ENDBRANCH   1   9
BRANCH   3  18
ATOM     18  N   UNL     1       2.180   6.948  18.399  0.00  0.00    +0.000 N 
ATOM     19  H   UNL     1       1.519   6.840  17.631  0.00  0.00    +0.000 HD
BRANCH  18  20
ATOM     20  C   UNL     1       2.148   8.293  18.984  0.00  0.00    +0.000 C 
ATOM     21  C   UNL     1       1.341   9.238  18.094  0.00  0.00    +0.000 C 
ATOM     22  C   UNL     1       1.506   8.203  20.367  0.00  0.00    +0.000 C 
ENDBRANCH  18  20
ENDBRANCH   3  18
BRANCH   4  23
ATOM     23  C   UNL     1       2.682   4.651  20.251  0.00  0.00    +0.000 C 
ATOM     24  N   UNL     1       1.947   4.282  21.073  0.00  0.00    +0.000 NA
ENDBRANCH   4  23
TORSDOF 6
ENDMDL
