MODEL 1
REMARK VINA RESULT:      -8.7      0.000      0.000
REMARK  Name = 
REMARK  8 active torsions:
REMARK  status: ('A' for Active; 'I' for Inactive)
REMARK    1  A    between atoms: C_1  and  O_2
REMARK    2  A    between atoms: O_2  and  C_3
REMARK    3  A    between atoms: C_6  and  N_7
REMARK    4  A    between atoms: N_7  and  S_8
REMARK    5  A    between atoms: S_8  and  C_11
REMARK    6  A    between atoms: C_16  and  C_17
REMARK    7  A    between atoms: C_17  and  O_18
REMARK    8  A    between atoms: O_18  and  C_19
REMARK                            x       y       z     vdW  Elec       q    Type
REMARK                         _______ _______ _______ _____ _____    ______ ____
ROOT
ATOM      1  C   UNL     1       2.685   4.427  18.918  0.00  0.00    +0.000 A 
ATOM      2  C   UNL     1       2.491   4.237  20.292  0.00  0.00    +0.000 A 
ATOM      3  C   UNL     1       2.075   5.287  21.114  0.00  0.00    +0.000 A 
ATOM      4  C   UNL     1       1.859   6.527  20.505  0.00  0.00    +0.000 A 
ATOM      5  N   UNL     1       1.412   7.724  21.008  0.00  0.00    +0.000 N 
ATOM      6  C   UNL     1       1.485   8.678  20.021  0.00  0.00    +0.000 A 
ATOM      7  N   UNL     1       1.840   8.111  18.876  0.00  0.00    +0.000 NA
ATOM      8  C   UNL     1       2.074   6.769  19.153  0.00  0.00    +0.000 A 
ATOM      9  C   UNL     1       2.482   5.694  18.325  0.00  0.00    +0.000 A 
ATOM     10  H   UNL     1       1.155   7.895  21.969  0.00  0.00    +0.000 HD
ENDROOT
BRANCH   1  11
ATOM     11  S   UNL     1       2.957   2.965  17.924  0.00  0.00    +0.000 S 
ATOM     12  O   UNL     1       2.415   3.229  16.608  0.00  0.00    +0.000 OA
ATOM     13  O   UNL     1       2.510   1.813  18.680  0.00  0.00    +0.000 OA
BRANCH  11  14
ATOM     14  N   UNL     1       4.628   2.852  17.706  0.00  0.00    +0.000 N 
ATOM     15  H   UNL     1       5.022   2.217  18.402  0.00  0.00    +0.000 HD
BRANCH  14  19
ATOM     16  C   UNL     1       6.830   6.400  17.047  0.00  0.00    +0.000 A 
ATOM     17  C   UNL     1       6.041   5.875  16.021  0.00  0.00    +0.000 A 
ATOM     18  C   UNL     1       5.316   4.690  16.210  0.00  0.00    +0.000 A 
ATOM     19  C   UNL     1       5.397   4.017  17.429  0.00  0.00    +0.000 A 
ATOM     20  C   UNL     1       6.201   4.525  18.445  0.00  0.00    +0.000 A 
ATOM     21  C   UNL     1       6.918   5.712  18.257  0.00  0.00    +0.000 A 
BRANCH  16  23
ATOM     22  C   UNL     1       7.871   8.365  17.864  0.00  0.00    +0.000 C 
ATOM     23  O   UNL     1       7.483   7.565  16.751  0.00  0.00    +0.000 OA
ENDBRANCH  16  23
ENDBRANCH  14  19
ENDBRANCH  11  14
ENDBRANCH   1  11
BRANCH   6  24
ATOM     24  C   UNL     1       1.350  10.153  20.356  0.00  0.00    +0.000 C 
BRANCH  24  25
ATOM     25  O   UNL     1       0.994  10.912  19.190  0.00  0.00    +0.000 OA
BRANCH  25  26
ATOM     26  C   UNL     1      -0.353  11.082  18.943  0.00  0.00    +0.000 A 
ATOM     27  C   UNL     1      -0.855  10.388  17.837  0.00  0.00    +0.000 A 
ATOM     28  C   UNL     1      -2.225  10.417  17.522  0.00  0.00    +0.000 A 
ATOM     29  C   UNL     1      -3.131  11.153  18.303  0.00  0.00    +0.000 A 
ATOM     30  C   UNL     1      -4.516  11.141  18.042  0.00  0.00    +0.000 A 
ATOM     31  C   UNL     1      -5.397  11.897  18.813  0.00  0.00    +0.000 A 
ATOM     32  C   UNL     1      -4.899  12.711  19.827  0.00  0.00    +0.000 A 
ATOM     33  C   UNL     1      -3.530  12.725  20.101  0.00  0.00    +0.000 A 
ATOM     34  C   UNL     1      -2.626  11.925  19.375  0.00  0.00    +0.000 A 
ATOM     35  C   UNL     1      -1.245  11.864  19.686  0.00  0.00    +0.000 A 
ENDBRANCH  25  26
ENDBRANCH  24  25
ENDBRANCH   6  24
TORSDOF 7
ENDMDL
MODEL 2
REMARK VINA RESULT:      -8.6      0.944      1.992
REMARK  Name = 
REMARK  8 active torsions:
REMARK  status: ('A' for Active; 'I' for Inactive)
REMARK    1  A    between atoms: C_1  and  O_2
REMARK    2  A    between atoms: O_2  and  C_3
REMARK    3  A    between atoms: C_6  and  N_7
REMARK    4  A    between atoms: N_7  and  S_8
REMARK    5  A    between atoms: S_8  and  C_11
REMARK    6  A    between atoms: C_16  and  C_17
REMARK    7  A    between atoms: C_17  and  O_18
REMARK    8  A    between atoms: O_18  and  C_19
REMARK                            x       y       z     vdW  Elec       q    Type
REMARK                         _______ _______ _______ _____ _____    ______ ____
ROOT
ATOM      1  C   UNL     1       2.398   4.571  19.043  0.00  0.00    +0.000 A 
ATOM      2  C   UNL     1       2.557   5.340  17.883  0.00  0.00    +0.000 A 
ATOM      3  C   UNL     1       2.380   6.726  17.906  0.00  0.00    +0.000 A 
ATOM      4  C   UNL     1       2.043   7.306  19.132  0.00  0.00    +0.000 A 
ATOM      5  N   UNL     1       1.848   8.614  19.499  0.00  0.00    +0.000 N 
ATOM      6  C   UNL     1       1.415   8.653  20.803  0.00  0.00    +0.000 A 
ATOM      7  N   UNL     1       1.445   7.433  21.321  0.00  0.00    +0.000 NA
ATOM      8  C   UNL     1       1.839   6.576  20.299  0.00  0.00    +0.000 A 
ATOM      9  C   UNL     1       2.036   5.173  20.269  0.00  0.00    +0.000 A 
ATOM     10  H   UNL     1       1.926   9.411  18.885  0.00  0.00    +0.000 HD
ENDROOT
BRANCH   1  11
ATOM     11  S   UNL     1       2.906   2.857  18.960  0.00  0.00    +0.000 S 
ATOM     12  O   UNL     1       2.540   2.361  17.650  0.00  0.00    +0.000 OA
ATOM     13  O   UNL     1       2.434   2.186  20.153  0.00  0.00    +0.000 OA
BRANCH  11  14
ATOM     14  N   UNL     1       4.595   2.869  18.978  0.00  0.00    +0.000 N 
ATOM     15  H   UNL     1       4.929   2.544  19.887  0.00  0.00    +0.000 HD
BRANCH  14  19
ATOM     16  C   UNL     1       6.597   6.234  17.384  0.00  0.00    +0.000 A 
ATOM     17  C   UNL     1       6.152   5.224  16.528  0.00  0.00    +0.000 A 
ATOM     18  C   UNL     1       5.501   4.090  17.035  0.00  0.00    +0.000 A 
ATOM     19  C   UNL     1       5.312   3.958  18.411  0.00  0.00    +0.000 A 
ATOM     20  C   UNL     1       5.776   4.952  19.268  0.00  0.00    +0.000 A 
ATOM     21  C   UNL     1       6.418   6.087  18.760  0.00  0.00    +0.000 A 
BRANCH  16  23
ATOM     22  C   UNL     1       8.003   8.125  17.616  0.00  0.00    +0.000 C 
ATOM     23  O   UNL     1       7.208   7.295  16.775  0.00  0.00    +0.000 OA
ENDBRANCH  16  23
ENDBRANCH  14  19
ENDBRANCH  11  14
ENDBRANCH   1  11
BRANCH   6  24
ATOM     24  C   UNL     1       0.827   9.925  21.389  0.00  0.00    +0.000 C 
BRANCH  24  25
ATOM     25  O   UNL     1       0.737  10.953  20.390  0.00  0.00    +0.000 OA
BRANCH  25  26
ATOM     26  C   UNL     1      -0.445  11.035  19.683  0.00  0.00    +0.000 A 
ATOM     27  C   UNL     1      -1.427  11.859  20.244  0.00  0.00    +0.000 A 
ATOM     28  C   UNL     1      -2.647  12.088  19.585  0.00  0.00    +0.000 A 
ATOM     29  C   UNL     1      -2.923  11.486  18.346  0.00  0.00    +0.000 A 
ATOM     30  C   UNL     1      -4.112  11.755  17.639  0.00  0.00    +0.000 A 
ATOM     31  C   UNL     1      -4.379  11.130  16.423  0.00  0.00    +0.000 A 
ATOM     32  C   UNL     1      -3.481  10.193  15.919  0.00  0.00    +0.000 A 
ATOM     33  C   UNL     1      -2.295   9.925  16.605  0.00  0.00    +0.000 A 
ATOM     34  C   UNL     1      -1.974  10.587  17.806  0.00  0.00    +0.000 A 
ATOM     35  C   UNL     1      -0.743  10.388  18.478  0.00  0.00    +0.000 A 
ENDBRANCH  25  26
ENDBRANCH  24  25
ENDBRANCH   6  24
TORSDOF 7
ENDMDL
MODEL 3
REMARK VINA RESULT:      -8.6      5.730     10.177
REMARK  Name = 
REMARK  8 active torsions:
REMARK  status: ('A' for Active; 'I' for Inactive)
REMARK    1  A    between atoms: C_1  and  O_2
REMARK    2  A    between atoms: O_2  and  C_3
REMARK    3  A    between atoms: C_6  and  N_7
REMARK    4  A    between atoms: N_7  and  S_8
REMARK    5  A    between atoms: S_8  and  C_11
REMARK    6  A    between atoms: C_16  and  C_17
REMARK    7  A    between atoms: C_17  and  O_18
REMARK    8  A    between atoms: O_18  and  C_19
REMARK                            x       y       z     vdW  Elec       q    Type
REMARK                         _______ _______ _______ _____ _____    ______ ____
ROOT
ATOM      1  C   UNL     1       9.328  12.764  18.784  0.00  0.00    +0.000 A 
ATOM      2  C   UNL     1       9.829  12.204  19.965  0.00  0.00    +0.000 A 
ATOM      3  C   UNL     1       9.744  10.830  20.207  0.00  0.00    +0.000 A 
ATOM      4  C   UNL     1       9.142  10.045  19.219  0.00  0.00    +0.000 A 
ATOM      5  N   UNL     1       8.946   8.690  19.126  0.00  0.00    +0.000 N 
ATOM      6  C   UNL     1       8.195   8.423  18.005  0.00  0.00    +0.000 A 
ATOM      7  N   UNL     1       8.012   9.539  17.314  0.00  0.00    +0.000 NA
ATOM      8  C   UNL     1       8.598  10.564  18.050  0.00  0.00    +0.000 A 
ATOM      9  C   UNL     1       8.703  11.956  17.807  0.00  0.00    +0.000 A 
ATOM     10  H   UNL     1       9.231   8.009  19.814  0.00  0.00    +0.000 HD
ENDROOT
BRANCH   1  11
ATOM     11  S   UNL     1       9.726  14.478  18.462  0.00  0.00    +0.000 S 
ATOM     12  O   UNL     1      10.950  14.499  17.690  0.00  0.00    +0.000 OA
ATOM     13  O   UNL     1       9.637  15.206  19.711  0.00  0.00    +0.000 OA
BRANCH  11  14
ATOM     14  N   UNL     1       8.527  15.048  17.418  0.00  0.00    +0.000 N 
ATOM     15  H   UNL     1       8.942  15.681  16.732  0.00  0.00    +0.000 HD
BRANCH  14  19
ATOM     16  C   UNL     1       4.676  16.180  18.746  0.00  0.00    +0.000 A 
ATOM     17  C   UNL     1       5.761  17.033  18.963  0.00  0.00    +0.000 A 
ATOM     18  C   UNL     1       7.050  16.671  18.547  0.00  0.00    +0.000 A 
ATOM     19  C   UNL     1       7.257  15.439  17.927  0.00  0.00    +0.000 A 
ATOM     20  C   UNL     1       6.182  14.577  17.732  0.00  0.00    +0.000 A 
ATOM     21  C   UNL     1       4.894  14.942  18.141  0.00  0.00    +0.000 A 
BRANCH  16  23
ATOM     22  C   UNL     1       2.493  16.904  18.178  0.00  0.00    +0.000 C 
ATOM     23  O   UNL     1       3.466  16.643  19.186  0.00  0.00    +0.000 OA
ENDBRANCH  16  23
ENDBRANCH  14  19
ENDBRANCH  11  14
ENDBRANCH   1  11
BRANCH   6  24
ATOM     24  C   UNL     1       7.563   7.058  17.802  0.00  0.00    +0.000 C 
BRANCH  24  25
ATOM     25  O   UNL     1       6.434   7.144  16.918  0.00  0.00    +0.000 OA
BRANCH  25  26
ATOM     26  C   UNL     1       5.319   6.403  17.255  0.00  0.00    +0.000 A 
ATOM     27  C   UNL     1       4.187   7.146  17.609  0.00  0.00    +0.000 A 
ATOM     28  C   UNL     1       2.965   6.514  17.900  0.00  0.00    +0.000 A 
ATOM     29  C   UNL     1       2.847   5.116  17.855  0.00  0.00    +0.000 A 
ATOM     30  C   UNL     1       1.615   4.468  18.078  0.00  0.00    +0.000 A 
ATOM     31  C   UNL     1       1.522   3.077  18.053  0.00  0.00    +0.000 A 
ATOM     32  C   UNL     1       2.669   2.315  17.849  0.00  0.00    +0.000 A 
ATOM     33  C   UNL     1       3.893   2.944  17.617  0.00  0.00    +0.000 A 
ATOM     34  C   UNL     1       4.002   4.348  17.578  0.00  0.00    +0.000 A 
ATOM     35  C   UNL     1       5.217   5.008  17.268  0.00  0.00    +0.000 A 
ENDBRANCH  25  26
ENDBRANCH  24  25
ENDBRANCH   6  24
TORSDOF 7
ENDMDL
MODEL 4
REMARK VINA RESULT:      -8.6      1.310      2.018
REMARK  Name = 
REMARK  8 active torsions:
REMARK  status: ('A' for Active; 'I' for Inactive)
REMARK    1  A    between atoms: C_1  and  O_2
REMARK    2  A    between atoms: O_2  and  C_3
REMARK    3  A    between atoms: C_6  and  N_7
REMARK    4  A    between atoms: N_7  and  S_8
REMARK    5  A    between atoms: S_8  and  C_11
REMARK    6  A    between atoms: C_16  and  C_17
REMARK    7  A    between atoms: C_17  and  O_18
REMARK    8  A    between atoms: O_18  and  C_19
REMARK                            x       y       z     vdW  Elec       q    Type
REMARK                         _______ _______ _______ _____ _____    ______ ____
ROOT
ATOM      1  C   UNL     1       2.521   4.865  18.956  0.00  0.00    +0.000 A 
ATOM      2  C   UNL     1       2.242   5.013  20.320  0.00  0.00    +0.000 A 
ATOM      3  C   UNL     1       1.848   6.245  20.848  0.00  0.00    +0.000 A 
ATOM      4  C   UNL     1       1.742   7.316  19.955  0.00  0.00    +0.000 A 
ATOM      5  N   UNL     1       1.344   8.617  20.136  0.00  0.00    +0.000 N 
ATOM      6  C   UNL     1       1.528   9.309  18.962  0.00  0.00    +0.000 A 
ATOM      7  N   UNL     1       1.910   8.473  18.006  0.00  0.00    +0.000 NA
ATOM      8  C   UNL     1       2.045   7.223  18.601  0.00  0.00    +0.000 A 
ATOM      9  C   UNL     1       2.429   5.965  18.073  0.00  0.00    +0.000 A 
ATOM     10  H   UNL     1       1.047   9.022  21.012  0.00  0.00    +0.000 HD
ENDROOT
BRANCH   1  11
ATOM     11  S   UNL     1       2.755   3.199  18.348  0.00  0.00    +0.000 S 
ATOM     12  O   UNL     1       2.197   3.143  17.014  0.00  0.00    +0.000 OA
ATOM     13  O   UNL     1       2.302   2.276  19.368  0.00  0.00    +0.000 OA
BRANCH  11  14
ATOM     14  N   UNL     1       4.421   3.005  18.146  0.00  0.00    +0.000 N 
ATOM     15  H   UNL     1       4.787   2.398  18.881  0.00  0.00    +0.000 HD
BRANCH  14  19
ATOM     16  C   UNL     1       6.945   6.194  16.993  0.00  0.00    +0.000 A 
ATOM     17  C   UNL     1       6.825   5.861  18.344  0.00  0.00    +0.000 A 
ATOM     18  C   UNL     1       5.980   4.819  18.752  0.00  0.00    +0.000 A 
ATOM     19  C   UNL     1       5.237   4.118  17.802  0.00  0.00    +0.000 A 
ATOM     20  C   UNL     1       5.337   4.464  16.457  0.00  0.00    +0.000 A 
ATOM     21  C   UNL     1       6.186   5.499  16.051  0.00  0.00    +0.000 A 
BRANCH  16  23
ATOM     22  C   UNL     1       7.816   8.298  17.646  0.00  0.00    +0.000 C 
ATOM     23  O   UNL     1       7.805   7.220  16.714  0.00  0.00    +0.000 OA
ENDBRANCH  16  23
ENDBRANCH  14  19
ENDBRANCH  11  14
ENDBRANCH   1  11
BRANCH   6  24
ATOM     24  C   UNL     1       1.468  10.826  18.937  0.00  0.00    +0.000 C 
BRANCH  24  25
ATOM     25  O   UNL     1       0.227  11.279  18.374  0.00  0.00    +0.000 OA
BRANCH  25  26
ATOM     26  C   UNL     1      -0.744  11.699  19.259  0.00  0.00    +0.000 A 
ATOM     27  C   UNL     1      -1.995  11.972  18.696  0.00  0.00    +0.000 A 
ATOM     28  C   UNL     1      -3.090  12.336  19.499  0.00  0.00    +0.000 A 
ATOM     29  C   UNL     1      -2.959  12.447  20.892  0.00  0.00    +0.000 A 
ATOM     30  C   UNL     1      -4.060  12.746  21.720  0.00  0.00    +0.000 A 
ATOM     31  C   UNL     1      -3.905  12.877  23.099  0.00  0.00    +0.000 A 
ATOM     32  C   UNL     1      -2.638  12.755  23.663  0.00  0.00    +0.000 A 
ATOM     33  C   UNL     1      -1.541  12.450  22.855  0.00  0.00    +0.000 A 
ATOM     34  C   UNL     1      -1.681  12.254  21.467  0.00  0.00    +0.000 A 
ATOM     35  C   UNL     1      -0.597  11.869  20.641  0.00  0.00    +0.000 A 
ENDBRANCH  25  26
ENDBRANCH  24  25
ENDBRANCH   6  24
TORSDOF 7
ENDMDL
MODEL 5
REMARK VINA RESULT:      -8.6      0.981      1.788
REMARK  Name = 
REMARK  8 active torsions:
REMARK  status: ('A' for Active; 'I' for Inactive)
REMARK    1  A    between atoms: C_1  and  O_2
REMARK    2  A    between atoms: O_2  and  C_3
REMARK    3  A    between atoms: C_6  and  N_7
REMARK    4  A    between atoms: N_7  and  S_8
REMARK    5  A    between atoms: S_8  and  C_11
REMARK    6  A    between atoms: C_16  and  C_17
REMARK    7  A    between atoms: C_17  and  O_18
REMARK    8  A    between atoms: O_18  and  C_19
REMARK                            x       y       z     vdW  Elec       q    Type
REMARK                         _______ _______ _______ _____ _____    ______ ____
ROOT
ATOM      1  C   UNL     1       2.910   4.958  18.691  0.00  0.00    +0.000 A 
ATOM      2  C   UNL     1       2.579   5.057  20.048  0.00  0.00    +0.000 A 
ATOM      3  C   UNL     1       2.061   6.241  20.580  0.00  0.00    +0.000 A 
ATOM      4  C   UNL     1       1.887   7.314  19.701  0.00  0.00    +0.000 A 
ATOM      5  N   UNL     1       1.370   8.571  19.888  0.00  0.00    +0.000 N 
ATOM      6  C   UNL     1       1.528   9.296  18.730  0.00  0.00    +0.000 A 
ATOM      7  N   UNL     1       2.010   8.513  17.775  0.00  0.00    +0.000 NA
ATOM      8  C   UNL     1       2.238   7.270  18.356  0.00  0.00    +0.000 A 
ATOM      9  C   UNL     1       2.747   6.061  17.822  0.00  0.00    +0.000 A 
ATOM     10  H   UNL     1       1.013   8.933  20.759  0.00  0.00    +0.000 HD
ENDROOT
BRANCH   1  11
ATOM     11  S   UNL     1       3.309   3.329  18.067  0.00  0.00    +0.000 S 
ATOM     12  O   UNL     1       2.375   3.034  17.002  0.00  0.00    +0.000 OA
ATOM     13  O   UNL     1       3.438   2.430  19.196  0.00  0.00    +0.000 OA
BRANCH  11  14
ATOM     14  N   UNL     1       4.815   3.472  17.316  0.00  0.00    +0.000 N 
ATOM     15  H   UNL     1       5.249   2.551  17.242  0.00  0.00    +0.000 HD
BRANCH  14  19
ATOM     16  C   UNL     1       7.538   6.588  18.183  0.00  0.00    +0.000 A 
ATOM     17  C   UNL     1       7.141   5.714  19.198  0.00  0.00    +0.000 A 
ATOM     18  C   UNL     1       6.226   4.684  18.938  0.00  0.00    +0.000 A 
ATOM     19  C   UNL     1       5.690   4.541  17.659  0.00  0.00    +0.000 A 
ATOM     20  C   UNL     1       6.065   5.426  16.652  0.00  0.00    +0.000 A 
ATOM     21  C   UNL     1       6.985   6.449  16.910  0.00  0.00    +0.000 A 
BRANCH  16  23
ATOM     22  C   UNL     1       8.227   8.848  18.014  0.00  0.00    +0.000 C 
ATOM     23  O   UNL     1       8.442   7.546  18.552  0.00  0.00    +0.000 OA
ENDBRANCH  16  23
ENDBRANCH  14  19
ENDBRANCH  11  14
ENDBRANCH   1  11
BRANCH   6  24
ATOM     24  C   UNL     1       1.334  10.802  18.724  0.00  0.00    +0.000 C 
BRANCH  24  25
ATOM     25  O   UNL     1       0.571  11.224  19.865  0.00  0.00    +0.000 OA
BRANCH  25  26
ATOM     26  C   UNL     1      -0.775  11.452  19.667  0.00  0.00    +0.000 A 
ATOM     27  C   UNL     1      -1.426  12.145  20.694  0.00  0.00    +0.000 A 
ATOM     28  C   UNL     1      -2.780  12.507  20.582  0.00  0.00    +0.000 A 
ATOM     29  C   UNL     1      -3.524  12.175  19.438  0.00  0.00    +0.000 A 
ATOM     30  C   UNL     1      -4.862  12.587  19.279  0.00  0.00    +0.000 A 
ATOM     31  C   UNL     1      -5.592  12.228  18.147  0.00  0.00    +0.000 A 
ATOM     32  C   UNL     1      -5.007  11.413  17.181  0.00  0.00    +0.000 A 
ATOM     33  C   UNL     1      -3.679  11.007  17.323  0.00  0.00    +0.000 A 
ATOM     34  C   UNL     1      -2.902  11.406  18.428  0.00  0.00    +0.000 A 
ATOM     35  C   UNL     1      -1.531  11.069  18.554  0.00  0.00    +0.000 A 
ENDBRANCH  25  26
ENDBRANCH  24  25
ENDBRANCH   6  24
TORSDOF 7
ENDMDL
MODEL 6
REMARK VINA RESULT:      -8.4      0.878      1.315
REMARK  Name = 
REMARK  8 active torsions:
REMARK  status: ('A' for Active; 'I' for Inactive)
REMARK    1  A    between atoms: C_1  and  O_2
REMARK    2  A    between atoms: O_2  and  C_3
REMARK    3  A    between atoms: C_6  and  N_7
REMARK    4  A    between atoms: N_7  and  S_8
REMARK    5  A    between atoms: S_8  and  C_11
REMARK    6  A    between atoms: C_16  and  C_17
REMARK    7  A    between atoms: C_17  and  O_18
REMARK    8  A    between atoms: O_18  and  C_19
REMARK                            x       y       z     vdW  Elec       q    Type
REMARK                         _______ _______ _______ _____ _____    ______ ____
ROOT
ATOM      1  C   UNL     1       2.393   5.231  18.974  0.00  0.00    +0.000 A 
ATOM      2  C   UNL     1       2.193   5.407  20.349  0.00  0.00    +0.000 A 
ATOM      3  C   UNL     1       1.807   6.644  20.870  0.00  0.00    +0.000 A 
ATOM      4  C   UNL     1       1.625   7.691  19.961  0.00  0.00    +0.000 A 
ATOM      5  N   UNL     1       1.213   8.988  20.135  0.00  0.00    +0.000 N 
ATOM      6  C   UNL     1       1.313   9.654  18.936  0.00  0.00    +0.000 A 
ATOM      7  N   UNL     1       1.653   8.802  17.979  0.00  0.00    +0.000 NA
ATOM      8  C   UNL     1       1.849   7.569  18.593  0.00  0.00    +0.000 A 
ATOM      9  C   UNL     1       2.226   6.307  18.073  0.00  0.00    +0.000 A 
ATOM     10  H   UNL     1       0.961   9.409  21.017  0.00  0.00    +0.000 HD
ENDROOT
BRANCH   1  11
ATOM     11  S   UNL     1       2.624   3.555  18.393  0.00  0.00    +0.000 S 
ATOM     12  O   UNL     1       2.175   3.509  17.018  0.00  0.00    +0.000 OA
ATOM     13  O   UNL     1       2.061   2.652  19.376  0.00  0.00    +0.000 OA
BRANCH  11  14
ATOM     14  N   UNL     1       4.294   3.308  18.327  0.00  0.00    +0.000 N 
ATOM     15  H   UNL     1       4.590   2.758  19.135  0.00  0.00    +0.000 HD
BRANCH  14  19
ATOM     16  C   UNL     1       6.957   6.344  17.076  0.00  0.00    +0.000 A 
ATOM     17  C   UNL     1       6.892   5.994  18.427  0.00  0.00    +0.000 A 
ATOM     18  C   UNL     1       6.005   5.003  18.868  0.00  0.00    +0.000 A 
ATOM     19  C   UNL     1       5.162   4.371  17.953  0.00  0.00    +0.000 A 
ATOM     20  C   UNL     1       5.208   4.736  16.610  0.00  0.00    +0.000 A 
ATOM     21  C   UNL     1       6.100   5.720  16.170  0.00  0.00    +0.000 A 
BRANCH  16  23
ATOM     22  C   UNL     1       7.966   8.400  17.682  0.00  0.00    +0.000 C 
ATOM     23  O   UNL     1       7.867   7.316  16.763  0.00  0.00    +0.000 OA
ENDBRANCH  16  23
ENDBRANCH  14  19
ENDBRANCH  11  14
ENDBRANCH   1  11
BRANCH   6  24
ATOM     24  C   UNL     1       1.220  11.168  18.878  0.00  0.00    +0.000 C 
BRANCH  24  25
ATOM     25  O   UNL     1       0.133  11.645  19.686  0.00  0.00    +0.000 OA
BRANCH  25  26
ATOM     26  C   UNL     1      -1.117  11.668  19.102  0.00  0.00    +0.000 A 
ATOM     27  C   UNL     1      -1.181  11.165  17.798  0.00  0.00    +0.000 A 
ATOM     28  C   UNL     1      -2.408  11.062  17.119  0.00  0.00    +0.000 A 
ATOM     29  C   UNL     1      -3.606  11.472  17.725  0.00  0.00    +0.000 A 
ATOM     30  C   UNL     1      -4.853  11.316  17.087  0.00  0.00    +0.000 A 
ATOM     31  C   UNL     1      -6.029  11.751  17.695  0.00  0.00    +0.000 A 
ATOM     32  C   UNL     1      -5.969  12.389  18.931  0.00  0.00    +0.000 A 
ATOM     33  C   UNL     1      -4.742  12.541  19.578  0.00  0.00    +0.000 A 
ATOM     34  C   UNL     1      -3.546  12.057  19.012  0.00  0.00    +0.000 A 
ATOM     35  C   UNL     1      -2.302  12.132  19.685  0.00  0.00    +0.000 A 
ENDBRANCH  25  26
ENDBRANCH  24  25
ENDBRANCH   6  24
TORSDOF 7
ENDMDL
MODEL 7
REMARK VINA RESULT:      -8.3      2.339      3.710
REMARK  Name = 
REMARK  8 active torsions:
REMARK  status: ('A' for Active; 'I' for Inactive)
REMARK    1  A    between atoms: C_1  and  O_2
REMARK    2  A    between atoms: O_2  and  C_3
REMARK    3  A    between atoms: C_6  and  N_7
REMARK    4  A    between atoms: N_7  and  S_8
REMARK    5  A    between atoms: S_8  and  C_11
REMARK    6  A    between atoms: C_16  and  C_17
REMARK    7  A    between atoms: C_17  and  O_18
REMARK    8  A    between atoms: O_18  and  C_19
REMARK                            x       y       z     vdW  Elec       q    Type
REMARK                         _______ _______ _______ _____ _____    ______ ____
ROOT
ATOM      1  C   UNL     1       2.793   4.609  19.054  0.00  0.00    +0.000 A 
ATOM      2  C   UNL     1       2.892   5.265  17.821  0.00  0.00    +0.000 A 
ATOM      3  C   UNL     1       2.593   6.625  17.699  0.00  0.00    +0.000 A 
ATOM      4  C   UNL     1       2.196   7.297  18.860  0.00  0.00    +0.000 A 
ATOM      5  N   UNL     1       1.884   8.614  19.089  0.00  0.00    +0.000 N 
ATOM      6  C   UNL     1       1.439   8.749  20.383  0.00  0.00    +0.000 A 
ATOM      7  N   UNL     1       1.574   7.597  21.024  0.00  0.00    +0.000 NA
ATOM      8  C   UNL     1       2.049   6.677  20.096  0.00  0.00    +0.000 A 
ATOM      9  C   UNL     1       2.370   5.302  20.211  0.00  0.00    +0.000 A 
ATOM     10  H   UNL     1       1.895   9.347  18.395  0.00  0.00    +0.000 HD
ENDROOT
BRANCH   1  11
ATOM     11  S   UNL     1       3.451   2.949  19.148  0.00  0.00    +0.000 S 
ATOM     12  O   UNL     1       3.168   2.300  17.886  0.00  0.00    +0.000 OA
ATOM     13  O   UNL     1       3.004   2.354  20.392  0.00  0.00    +0.000 OA
BRANCH  11  14
ATOM     14  N   UNL     1       5.131   3.114  19.201  0.00  0.00    +0.000 N 
ATOM     15  H   UNL     1       5.470   2.870  20.133  0.00  0.00    +0.000 HD
BRANCH  14  19
ATOM     16  C   UNL     1       7.131   6.306  17.282  0.00  0.00    +0.000 A 
ATOM     17  C   UNL     1       7.001   6.308  18.673  0.00  0.00    +0.000 A 
ATOM     18  C   UNL     1       6.326   5.269  19.330  0.00  0.00    +0.000 A 
ATOM     19  C   UNL     1       5.762   4.231  18.588  0.00  0.00    +0.000 A 
ATOM     20  C   UNL     1       5.870   4.240  17.200  0.00  0.00    +0.000 A 
ATOM     21  C   UNL     1       6.550   5.274  16.546  0.00  0.00    +0.000 A 
BRANCH  16  23
ATOM     22  C   UNL     1       7.872   8.539  17.560  0.00  0.00    +0.000 C 
ATOM     23  O   UNL     1       7.817   7.365  16.754  0.00  0.00    +0.000 OA
ENDBRANCH  16  23
ENDBRANCH  14  19
ENDBRANCH  11  14
ENDBRANCH   1  11
BRANCH   6  24
ATOM     24  C   UNL     1       0.738  10.018  20.834  0.00  0.00    +0.000 C 
BRANCH  24  25
ATOM     25  O   UNL     1       0.040  10.633  19.740  0.00  0.00    +0.000 OA
BRANCH  25  26
ATOM     26  C   UNL     1       0.443  11.902  19.377  0.00  0.00    +0.000 A 
ATOM     27  C   UNL     1      -0.527  12.902  19.507  0.00  0.00    +0.000 A 
ATOM     28  C   UNL     1      -0.222  14.249  19.243  0.00  0.00    +0.000 A 
ATOM     29  C   UNL     1       1.064  14.631  18.828  0.00  0.00    +0.000 A 
ATOM     30  C   UNL     1       1.407  15.982  18.622  0.00  0.00    +0.000 A 
ATOM     31  C   UNL     1       2.682  16.339  18.187  0.00  0.00    +0.000 A 
ATOM     32  C   UNL     1       3.617  15.347  17.909  0.00  0.00    +0.000 A 
ATOM     33  C   UNL     1       3.293  14.005  18.118  0.00  0.00    +0.000 A 
ATOM     34  C   UNL     1       2.032  13.621  18.614  0.00  0.00    +0.000 A 
ATOM     35  C   UNL     1       1.708  12.273  18.906  0.00  0.00    +0.000 A 
ENDBRANCH  25  26
ENDBRANCH  24  25
ENDBRANCH   6  24
TORSDOF 7
ENDMDL
MODEL 8
REMARK VINA RESULT:      -8.3      3.241     10.344
REMARK  Name = 
REMARK  8 active torsions:
REMARK  status: ('A' for Active; 'I' for Inactive)
REMARK    1  A    between atoms: C_1  and  O_2
REMARK    2  A    between atoms: O_2  and  C_3
REMARK    3  A    between atoms: C_6  and  N_7
REMARK    4  A    between atoms: N_7  and  S_8
REMARK    5  A    between atoms: S_8  and  C_11
REMARK    6  A    between atoms: C_16  and  C_17
REMARK    7  A    between atoms: C_17  and  O_18
REMARK    8  A    between atoms: O_18  and  C_19
REMARK                            x       y       z     vdW  Elec       q    Type
REMARK                         _______ _______ _______ _____ _____    ______ ____
ROOT
ATOM      1  C   UNL     1       1.121   9.568  19.552  0.00  0.00    +0.000 A 
ATOM      2  C   UNL     1       0.902   8.970  20.798  0.00  0.00    +0.000 A 
ATOM      3  C   UNL     1       1.397   7.695  21.085  0.00  0.00    +0.000 A 
ATOM      4  C   UNL     1       2.120   7.050  20.078  0.00  0.00    +0.000 A 
ATOM      5  N   UNL     1       2.767   5.840  20.052  0.00  0.00    +0.000 N 
ATOM      6  C   UNL     1       3.232   5.608  18.779  0.00  0.00    +0.000 A 
ATOM      7  N   UNL     1       3.018   6.677  18.024  0.00  0.00    +0.000 NA
ATOM      8  C   UNL     1       2.330   7.592  18.814  0.00  0.00    +0.000 A 
ATOM      9  C   UNL     1       1.837   8.891  18.538  0.00  0.00    +0.000 A 
ATOM     10  H   UNL     1       2.817   5.186  20.820  0.00  0.00    +0.000 HD
ENDROOT
BRANCH   1  11
ATOM     11  S   UNL     1       0.678  11.293  19.386  0.00  0.00    +0.000 S 
ATOM     12  O   UNL     1      -0.750  11.352  19.154  0.00  0.00    +0.000 OA
ATOM     13  O   UNL     1       1.596  11.910  18.451  0.00  0.00    +0.000 OA
BRANCH  11  14
ATOM     14  N   UNL     1       0.912  11.984  20.910  0.00  0.00    +0.000 N 
ATOM     15  H   UNL     1       1.665  11.494  21.396  0.00  0.00    +0.000 HD
BRANCH  14  19
ATOM     16  C   UNL     1      -2.285  13.200  23.394  0.00  0.00    +0.000 A 
ATOM     17  C   UNL     1      -1.978  11.843  23.277  0.00  0.00    +0.000 A 
ATOM     18  C   UNL     1      -0.933  11.414  22.446  0.00  0.00    +0.000 A 
ATOM     19  C   UNL     1      -0.205  12.350  21.712  0.00  0.00    +0.000 A 
ATOM     20  C   UNL     1      -0.525  13.701  21.807  0.00  0.00    +0.000 A 
ATOM     21  C   UNL     1      -1.563  14.128  22.643  0.00  0.00    +0.000 A 
BRANCH  16  23
ATOM     22  C   UNL     1      -4.277  12.467  24.446  0.00  0.00    +0.000 C 
ATOM     23  O   UNL     1      -3.317  13.500  24.241  0.00  0.00    +0.000 OA
ENDBRANCH  16  23
ENDBRANCH  14  19
ENDBRANCH  11  14
ENDBRANCH   1  11
BRANCH   6  24
ATOM     24  C   UNL     1       3.717   4.229  18.368  0.00  0.00    +0.000 C 
BRANCH  24  25
ATOM     25  O   UNL     1       5.148   4.203  18.254  0.00  0.00    +0.000 OA
BRANCH  25  26
ATOM     26  C   UNL     1       5.678   4.414  16.997  0.00  0.00    +0.000 A 
ATOM     27  C   UNL     1       6.728   5.336  16.934  0.00  0.00    +0.000 A 
ATOM     28  C   UNL     1       7.405   5.586  15.727  0.00  0.00    +0.000 A 
ATOM     29  C   UNL     1       7.040   4.924  14.544  0.00  0.00    +0.000 A 
ATOM     30  C   UNL     1       7.748   5.111  13.340  0.00  0.00    +0.000 A 
ATOM     31  C   UNL     1       7.356   4.463  12.170  0.00  0.00    +0.000 A 
ATOM     32  C   UNL     1       6.222   3.655  12.178  0.00  0.00    +0.000 A 
ATOM     33  C   UNL     1       5.517   3.453  13.367  0.00  0.00    +0.000 A 
ATOM     34  C   UNL     1       5.928   4.049  14.575  0.00  0.00    +0.000 A 
ATOM     35  C   UNL     1       5.274   3.799  15.807  0.00  0.00    +0.000 A 
ENDBRANCH  25  26
ENDBRANCH  24  25
ENDBRANCH   6  24
TORSDOF 7
ENDMDL
MODEL 9
REMARK VINA RESULT:      -8.2      1.560      2.401
REMARK  Name = 
REMARK  8 active torsions:
REMARK  status: ('A' for Active; 'I' for Inactive)
REMARK    1  A    between atoms: C_1  and  O_2
REMARK    2  A    between atoms: O_2  and  C_3
REMARK    3  A    between atoms: C_6  and  N_7
REMARK    4  A    between atoms: N_7  and  S_8
REMARK    5  A    between atoms: S_8  and  C_11
REMARK    6  A    between atoms: C_16  and  C_17
REMARK    7  A    between atoms: C_17  and  O_18
REMARK    8  A    between atoms: O_18  and  C_19
REMARK                            x       y       z     vdW  Elec       q    Type
REMARK                         _______ _______ _______ _____ _____    ______ ____
ROOT
ATOM      1  C   UNL     1       2.391   6.237  19.350  0.00  0.00    +0.000 A 
ATOM      2  C   UNL     1       2.578   6.822  18.091  0.00  0.00    +0.000 A 
ATOM      3  C   UNL     1       2.229   8.153  17.854  0.00  0.00    +0.000 A 
ATOM      4  C   UNL     1       1.690   8.872  18.926  0.00  0.00    +0.000 A 
ATOM      5  N   UNL     1       1.295  10.182  19.039  0.00  0.00    +0.000 N 
ATOM      6  C   UNL     1       0.721  10.371  20.273  0.00  0.00    +0.000 A 
ATOM      7  N   UNL     1       0.846   9.268  20.998  0.00  0.00    +0.000 NA
ATOM      8  C   UNL     1       1.453   8.320  20.180  0.00  0.00    +0.000 A 
ATOM      9  C   UNL     1       1.825   6.974  20.415  0.00  0.00    +0.000 A 
ATOM     10  H   UNL     1       1.339  10.871  18.303  0.00  0.00    +0.000 HD
ENDROOT
BRANCH   1  11
ATOM     11  S   UNL     1       3.114   4.622  19.613  0.00  0.00    +0.000 S 
ATOM     12  O   UNL     1       2.843   3.829  18.433  0.00  0.00    +0.000 OA
ATOM     13  O   UNL     1       2.705   4.150  20.920  0.00  0.00    +0.000 OA
BRANCH  11  14
ATOM     14  N   UNL     1       4.787   4.855  19.622  0.00  0.00    +0.000 N 
ATOM     15  H   UNL     1       5.033   5.544  20.335  0.00  0.00    +0.000 HD
BRANCH  14  19
ATOM     16  C   UNL     1       6.856   5.333  15.966  0.00  0.00    +0.000 A 
ATOM     17  C   UNL     1       5.969   4.265  16.124  0.00  0.00    +0.000 A 
ATOM     18  C   UNL     1       5.285   4.077  17.333  0.00  0.00    +0.000 A 
ATOM     19  C   UNL     1       5.505   4.951  18.397  0.00  0.00    +0.000 A 
ATOM     20  C   UNL     1       6.407   6.001  18.250  0.00  0.00    +0.000 A 
ATOM     21  C   UNL     1       7.083   6.193  17.040  0.00  0.00    +0.000 A 
BRANCH  16  23
ATOM     22  C   UNL     1       6.953   4.551  13.732  0.00  0.00    +0.000 C 
ATOM     23  O   UNL     1       7.457   5.422  14.740  0.00  0.00    +0.000 OA
ENDBRANCH  16  23
ENDBRANCH  14  19
ENDBRANCH  11  14
ENDBRANCH   1  11
BRANCH   6  24
ATOM     24  C   UNL     1      -0.081  11.625  20.573  0.00  0.00    +0.000 C 
BRANCH  24  25
ATOM     25  O   UNL     1      -0.513  12.258  19.359  0.00  0.00    +0.000 OA
BRANCH  25  26
ATOM     26  C   UNL     1      -1.845  12.125  19.025  0.00  0.00    +0.000 A 
ATOM     27  C   UNL     1      -2.097  11.634  17.739  0.00  0.00    +0.000 A 
ATOM     28  C   UNL     1      -3.409  11.381  17.302  0.00  0.00    +0.000 A 
ATOM     29  C   UNL     1      -4.509  11.624  18.140  0.00  0.00    +0.000 A 
ATOM     30  C   UNL     1      -5.826  11.315  17.745  0.00  0.00    +0.000 A 
ATOM     31  C   UNL     1      -6.907  11.586  18.581  0.00  0.00    +0.000 A 
ATOM     32  C   UNL     1      -6.690  12.212  19.806  0.00  0.00    +0.000 A 
ATOM     33  C   UNL     1      -5.390  12.515  20.213  0.00  0.00    +0.000 A 
ATOM     34  C   UNL     1      -4.275  12.197  19.412  0.00  0.00    +0.000 A 
ATOM     35  C   UNL     1      -2.943  12.425  19.838  0.00  0.00    +0.000 A 
ENDBRANCH  25  26
ENDBRANCH  24  25
ENDBRANCH   6  24
TORSDOF 7
ENDMDL
