MODEL 1
REMARK VINA RESULT:      -7.1      0.000      0.000
REMARK  Name = 
REMARK  6 active torsions:
REMARK  status: ('A' for Active; 'I' for Inactive)
REMARK    1  A    between atoms: O_1  and  C_2
REMARK    2  A    between atoms: C_2  and  C_3
REMARK    3  A    between atoms: C_2  and  C_17
REMARK    4  A    between atoms: C_3  and  N_4
REMARK    5  A    between atoms: N_7  and  C_8
REMARK    6  A    between atoms: C_8  and  C_9
REMARK                            x       y       z     vdW  Elec       q    Type
REMARK                         _______ _______ _______ _____ _____    ______ ____
ROOT
ATOM      1  N   UNL     1       4.185   4.923  18.930  0.00  0.00    +0.000 NA
ATOM      2  C   UNL     1       4.301   3.573  18.344  0.00  0.00    +0.000 C 
ATOM      3  C   UNL     1       3.917   3.577  16.849  0.00  0.00    +0.000 C 
ATOM      4  N   UNL     1       4.744   4.528  16.065  0.00  0.00    +0.000 NA
ATOM      5  C   UNL     1       4.661   5.882  16.656  0.00  0.00    +0.000 C 
ATOM      6  C   UNL     1       5.025   5.873  18.155  0.00  0.00    +0.000 C 
ENDROOT
BRANCH   1   7
ATOM      7  C   UNL     1       2.763   5.322  19.139  0.00  0.00    +0.000 C 
BRANCH   7   8
ATOM      8  C   UNL     1       2.636   6.428  20.203  0.00  0.00    +0.000 C 
BRANCH   8   9
ATOM      9  C   UNL     1       2.020   7.719  19.705  0.00  0.00    +0.000 A 
ATOM     10  C   UNL     1       1.249   8.501  20.585  0.00  0.00    +0.000 A 
ATOM     11  C   UNL     1       0.603   9.655  20.135  0.00  0.00    +0.000 A 
ATOM     12  C   UNL     1       0.715  10.043  18.798  0.00  0.00    +0.000 A 
ATOM     13  F   UNL     1       0.061  11.145  18.358  0.00  0.00    +0.000 F 
ATOM     14  C   UNL     1       1.487   9.282  17.915  0.00  0.00    +0.000 A 
ATOM     15  C   UNL     1       2.146   8.128  18.367  0.00  0.00    +0.000 A 
ENDBRANCH   8   9
BRANCH   8  16
ATOM     16  O   UNL     1       1.876   5.944  21.278  0.00  0.00    +0.000 OA
ATOM     17  H   UNL     1       2.313   5.115  21.605  0.00  0.00    +0.000 HD
ENDBRANCH   8  16
ENDBRANCH   7   8
ENDBRANCH   1   7
BRANCH   4  18
ATOM     18  C   UNL     1       6.142   4.075  15.869  0.00  0.00    +0.000 C 
BRANCH  18  19
ATOM     19  C   UNL     1       6.552   4.260  14.432  0.00  0.00    +0.000 A 
ATOM     20  C   UNL     1       6.001   3.447  13.428  0.00  0.00    +0.000 A 
ATOM     21  C   UNL     1       6.426   3.583  12.103  0.00  0.00    +0.000 A 
ATOM     22  C   UNL     1       7.410   4.523  11.776  0.00  0.00    +0.000 A 
ATOM     23  C   UNL     1       7.956   5.335  12.771  0.00  0.00    +0.000 A 
ATOM     24  C   UNL     1       7.529   5.212  14.093  0.00  0.00    +0.000 A 
ENDBRANCH  18  19
ENDBRANCH   4  18
TORSDOF 6
ENDMDL
MODEL 2
REMARK VINA RESULT:      -7.0      0.155      1.019
REMARK  Name = 
REMARK  6 active torsions:
REMARK  status: ('A' for Active; 'I' for Inactive)
REMARK    1  A    between atoms: O_1  and  C_2
REMARK    2  A    between atoms: C_2  and  C_3
REMARK    3  A    between atoms: C_2  and  C_17
REMARK    4  A    between atoms: C_3  and  N_4
REMARK    5  A    between atoms: N_7  and  C_8
REMARK    6  A    between atoms: C_8  and  C_9
REMARK                            x       y       z     vdW  Elec       q    Type
REMARK                         _______ _______ _______ _____ _____    ______ ____
ROOT
ATOM      1  N   UNL     1       4.237   4.988  18.930  0.00  0.00    +0.000 NA
ATOM      2  C   UNL     1       4.412   3.673  18.283  0.00  0.00    +0.000 C 
ATOM      3  C   UNL     1       4.071   3.738  16.779  0.00  0.00    +0.000 C 
ATOM      4  N   UNL     1       4.890   4.752  16.067  0.00  0.00    +0.000 NA
ATOM      5  C   UNL     1       4.748   6.071  16.719  0.00  0.00    +0.000 C 
ATOM      6  C   UNL     1       5.068   6.000  18.227  0.00  0.00    +0.000 C 
ENDROOT
BRANCH   1   7
ATOM      7  C   UNL     1       2.798   5.334  19.115  0.00  0.00    +0.000 C 
BRANCH   7   8
ATOM      8  C   UNL     1       2.609   6.406  20.203  0.00  0.00    +0.000 C 
BRANCH   8   9
ATOM      9  C   UNL     1       2.011   7.708  19.712  0.00  0.00    +0.000 A 
ATOM     10  C   UNL     1       1.257   8.500  20.600  0.00  0.00    +0.000 A 
ATOM     11  C   UNL     1       0.626   9.666  20.158  0.00  0.00    +0.000 A 
ATOM     12  C   UNL     1       0.737  10.056  18.821  0.00  0.00    +0.000 A 
ATOM     13  F   UNL     1       0.097  11.169  18.388  0.00  0.00    +0.000 F 
ATOM     14  C   UNL     1       1.491   9.286  17.931  0.00  0.00    +0.000 A 
ATOM     15  C   UNL     1       2.134   8.120  18.375  0.00  0.00    +0.000 A 
ENDBRANCH   8   9
BRANCH   8  16
ATOM     16  O   UNL     1       1.798   5.887  21.223  0.00  0.00    +0.000 OA
ATOM     17  H   UNL     1       1.996   4.917  21.297  0.00  0.00    +0.000 HD
ENDBRANCH   8  16
ENDBRANCH   7   8
ENDBRANCH   1   7
BRANCH   4  18
ATOM     18  C   UNL     1       6.306   4.351  15.891  0.00  0.00    +0.000 C 
BRANCH  18  19
ATOM     19  C   UNL     1       6.666   4.342  14.429  0.00  0.00    +0.000 A 
ATOM     20  C   UNL     1       7.630   5.236  13.932  0.00  0.00    +0.000 A 
ATOM     21  C   UNL     1       7.921   5.264  12.565  0.00  0.00    +0.000 A 
ATOM     22  C   UNL     1       7.245   4.411  11.687  0.00  0.00    +0.000 A 
ATOM     23  C   UNL     1       6.289   3.520  12.178  0.00  0.00    +0.000 A 
ATOM     24  C   UNL     1       6.002   3.478  13.542  0.00  0.00    +0.000 A 
ENDBRANCH  18  19
ENDBRANCH   4  18
TORSDOF 6
ENDMDL
MODEL 3
REMARK VINA RESULT:      -7.0      0.680      1.590
REMARK  Name = 
REMARK  6 active torsions:
REMARK  status: ('A' for Active; 'I' for Inactive)
REMARK    1  A    between atoms: O_1  and  C_2
REMARK    2  A    between atoms: C_2  and  C_3
REMARK    3  A    between atoms: C_2  and  C_17
REMARK    4  A    between atoms: C_3  and  N_4
REMARK    5  A    between atoms: N_7  and  C_8
REMARK    6  A    between atoms: C_8  and  C_9
REMARK                            x       y       z     vdW  Elec       q    Type
REMARK                         _______ _______ _______ _____ _____    ______ ____
ROOT
ATOM      1  N   UNL     1       4.147   4.003  18.772  0.00  0.00    +0.000 NA
ATOM      2  C   UNL     1       4.148   3.224  17.518  0.00  0.00    +0.000 C 
ATOM      3  C   UNL     1       4.145   4.150  16.283  0.00  0.00    +0.000 C 
ATOM      4  N   UNL     1       5.300   5.083  16.285  0.00  0.00    +0.000 NA
ATOM      5  C   UNL     1       5.331   5.852  17.548  0.00  0.00    +0.000 C 
ATOM      6  C   UNL     1       5.313   4.926  18.782  0.00  0.00    +0.000 C 
ENDROOT
BRANCH   1   7
ATOM      7  C   UNL     1       2.818   4.620  19.047  0.00  0.00    +0.000 C 
BRANCH   7   8
ATOM      8  C   UNL     1       2.928   5.771  20.064  0.00  0.00    +0.000 C 
BRANCH   8   9
ATOM      9  C   UNL     1       2.267   7.063  19.632  0.00  0.00    +0.000 A 
ATOM     10  C   UNL     1       2.386   7.486  18.294  0.00  0.00    +0.000 A 
ATOM     11  C   UNL     1       1.856   8.712  17.883  0.00  0.00    +0.000 A 
ATOM     12  C   UNL     1       1.203   9.535  18.803  0.00  0.00    +0.000 A 
ATOM     13  F   UNL     1       0.719  10.737  18.408  0.00  0.00    +0.000 F 
ATOM     14  C   UNL     1       1.068   9.123  20.132  0.00  0.00    +0.000 A 
ATOM     15  C   UNL     1       1.590   7.888  20.545  0.00  0.00    +0.000 A 
ENDBRANCH   8   9
BRANCH   8  16
ATOM     16  O   UNL     1       2.371   5.359  21.284  0.00  0.00    +0.000 OA
ATOM     17  H   UNL     1       1.614   5.969  21.487  0.00  0.00    +0.000 HD
ENDBRANCH   8  16
ENDBRANCH   7   8
ENDBRANCH   1   7
BRANCH   4  18
ATOM     18  C   UNL     1       6.594   4.424  15.986  0.00  0.00    +0.000 C 
BRANCH  18  19
ATOM     19  C   UNL     1       6.841   4.413  14.501  0.00  0.00    +0.000 A 
ATOM     20  C   UNL     1       7.720   5.343  13.922  0.00  0.00    +0.000 A 
ATOM     21  C   UNL     1       7.903   5.367  12.536  0.00  0.00    +0.000 A 
ATOM     22  C   UNL     1       7.203   4.471  11.721  0.00  0.00    +0.000 A 
ATOM     23  C   UNL     1       6.332   3.543  12.294  0.00  0.00    +0.000 A 
ATOM     24  C   UNL     1       6.152   3.506  13.676  0.00  0.00    +0.000 A 
ENDBRANCH  18  19
ENDBRANCH   4  18
TORSDOF 6
ENDMDL
MODEL 4
REMARK VINA RESULT:      -7.0      0.673      1.228
REMARK  Name = 
REMARK  6 active torsions:
REMARK  status: ('A' for Active; 'I' for Inactive)
REMARK    1  A    between atoms: O_1  and  C_2
REMARK    2  A    between atoms: C_2  and  C_3
REMARK    3  A    between atoms: C_2  and  C_17
REMARK    4  A    between atoms: C_3  and  N_4
REMARK    5  A    between atoms: N_7  and  C_8
REMARK    6  A    between atoms: C_8  and  C_9
REMARK                            x       y       z     vdW  Elec       q    Type
REMARK                         _______ _______ _______ _____ _____    ______ ____
ROOT
ATOM      1  N   UNL     1       3.859   3.829  18.847  0.00  0.00    +0.000 NA
ATOM      2  C   UNL     1       3.721   3.031  17.613  0.00  0.00    +0.000 C 
ATOM      3  C   UNL     1       3.738   3.932  16.359  0.00  0.00    +0.000 C 
ATOM      4  N   UNL     1       4.973   4.752  16.281  0.00  0.00    +0.000 NA
ATOM      5  C   UNL     1       5.142   5.538  17.523  0.00  0.00    +0.000 C 
ATOM      6  C   UNL     1       5.103   4.640  18.777  0.00  0.00    +0.000 C 
ENDROOT
BRANCH   1   7
ATOM      7  C   UNL     1       2.609   4.572  19.176  0.00  0.00    +0.000 C 
BRANCH   7   8
ATOM      8  C   UNL     1       2.885   5.752  20.126  0.00  0.00    +0.000 C 
BRANCH   8   9
ATOM      9  C   UNL     1       2.226   7.056  19.726  0.00  0.00    +0.000 A 
ATOM     10  C   UNL     1       2.375   7.529  18.409  0.00  0.00    +0.000 A 
ATOM     11  C   UNL     1       1.847   8.766  18.030  0.00  0.00    +0.000 A 
ATOM     12  C   UNL     1       1.164   9.550  18.964  0.00  0.00    +0.000 A 
ATOM     13  F   UNL     1       0.682  10.763  18.602  0.00  0.00    +0.000 F 
ATOM     14  C   UNL     1       0.999   9.087  20.272  0.00  0.00    +0.000 A 
ATOM     15  C   UNL     1       1.519   7.841  20.653  0.00  0.00    +0.000 A 
ENDBRANCH   8   9
BRANCH   8  16
ATOM     16  O   UNL     1       2.465   5.407  21.420  0.00  0.00    +0.000 OA
ATOM     17  H   UNL     1       2.166   6.240  21.869  0.00  0.00    +0.000 HD
ENDBRANCH   8  16
ENDBRANCH   7   8
ENDBRANCH   1   7
BRANCH   4  18
ATOM     18  C   UNL     1       6.182   3.970  15.931  0.00  0.00    +0.000 C 
BRANCH  18  19
ATOM     19  C   UNL     1       6.542   4.187  14.485  0.00  0.00    +0.000 A 
ATOM     20  C   UNL     1       5.962   3.391  13.484  0.00  0.00    +0.000 A 
ATOM     21  C   UNL     1       6.341   3.557  12.148  0.00  0.00    +0.000 A 
ATOM     22  C   UNL     1       7.307   4.508  11.807  0.00  0.00    +0.000 A 
ATOM     23  C   UNL     1       7.884   5.304  12.800  0.00  0.00    +0.000 A 
ATOM     24  C   UNL     1       7.502   5.151  14.133  0.00  0.00    +0.000 A 
ENDBRANCH  18  19
ENDBRANCH   4  18
TORSDOF 6
ENDMDL
MODEL 5
REMARK VINA RESULT:      -6.8      2.791      3.695
REMARK  Name = 
REMARK  6 active torsions:
REMARK  status: ('A' for Active; 'I' for Inactive)
REMARK    1  A    between atoms: O_1  and  C_2
REMARK    2  A    between atoms: C_2  and  C_3
REMARK    3  A    between atoms: C_2  and  C_17
REMARK    4  A    between atoms: C_3  and  N_4
REMARK    5  A    between atoms: N_7  and  C_8
REMARK    6  A    between atoms: C_8  and  C_9
REMARK                            x       y       z     vdW  Elec       q    Type
REMARK                         _______ _______ _______ _____ _____    ______ ____
ROOT
ATOM      1  N   UNL     1       4.540   5.601  18.265  0.00  0.00    +0.000 NA
ATOM      2  C   UNL     1       4.345   5.272  16.839  0.00  0.00    +0.000 C 
ATOM      3  C   UNL     1       5.193   6.188  15.932  0.00  0.00    +0.000 C 
ATOM      4  N   UNL     1       6.639   6.113  16.261  0.00  0.00    +0.000 NA
ATOM      5  C   UNL     1       6.850   6.412  17.695  0.00  0.00    +0.000 C 
ATOM      6  C   UNL     1       5.986   5.510  18.600  0.00  0.00    +0.000 C 
ENDROOT
BRANCH   1   7
ATOM      7  C   UNL     1       3.856   6.869  18.646  0.00  0.00    +0.000 C 
BRANCH   7   8
ATOM      8  C   UNL     1       2.356   6.645  18.913  0.00  0.00    +0.000 C 
BRANCH   8   9
ATOM      9  C   UNL     1       2.030   5.368  19.661  0.00  0.00    +0.000 A 
ATOM     10  C   UNL     1       2.446   5.225  20.998  0.00  0.00    +0.000 A 
ATOM     11  C   UNL     1       2.230   4.030  21.689  0.00  0.00    +0.000 A 
ATOM     12  C   UNL     1       1.599   2.959  21.053  0.00  0.00    +0.000 A 
ATOM     13  F   UNL     1       1.421   1.791  21.716  0.00  0.00    +0.000 F 
ATOM     14  C   UNL     1       1.171   3.090  19.729  0.00  0.00    +0.000 A 
ATOM     15  C   UNL     1       1.377   4.293  19.035  0.00  0.00    +0.000 A 
ENDBRANCH   8   9
BRANCH   8  16
ATOM     16  O   UNL     1       1.849   7.737  19.633  0.00  0.00    +0.000 OA
ATOM     17  H   UNL     1       1.118   7.399  20.213  0.00  0.00    +0.000 HD
ENDBRANCH   8  16
ENDBRANCH   7   8
ENDBRANCH   1   7
BRANCH   4  18
ATOM     18  C   UNL     1       7.276   4.842  15.843  0.00  0.00    +0.000 C 
BRANCH  18  19
ATOM     19  C   UNL     1       7.070   4.617  14.369  0.00  0.00    +0.000 A 
ATOM     20  C   UNL     1       6.156   3.649  13.921  0.00  0.00    +0.000 A 
ATOM     21  C   UNL     1       6.009   3.403  12.553  0.00  0.00    +0.000 A 
ATOM     22  C   UNL     1       6.780   4.112  11.627  0.00  0.00    +0.000 A 
ATOM     23  C   UNL     1       7.688   5.077  12.068  0.00  0.00    +0.000 A 
ATOM     24  C   UNL     1       7.831   5.335  13.431  0.00  0.00    +0.000 A 
ENDBRANCH  18  19
ENDBRANCH   4  18
TORSDOF 6
ENDMDL
MODEL 6
REMARK VINA RESULT:      -6.7      2.892      3.868
REMARK  Name = 
REMARK  6 active torsions:
REMARK  status: ('A' for Active; 'I' for Inactive)
REMARK    1  A    between atoms: O_1  and  C_2
REMARK    2  A    between atoms: C_2  and  C_3
REMARK    3  A    between atoms: C_2  and  C_17
REMARK    4  A    between atoms: C_3  and  N_4
REMARK    5  A    between atoms: N_7  and  C_8
REMARK    6  A    between atoms: C_8  and  C_9
REMARK                            x       y       z     vdW  Elec       q    Type
REMARK                         _______ _______ _______ _____ _____    ______ ____
ROOT
ATOM      1  N   UNL     1       4.769   5.399  18.234  0.00  0.00    +0.000 NA
ATOM      2  C   UNL     1       4.509   4.990  16.840  0.00  0.00    +0.000 C 
ATOM      3  C   UNL     1       5.193   5.946  15.839  0.00  0.00    +0.000 C 
ATOM      4  N   UNL     1       6.658   6.031  16.064  0.00  0.00    +0.000 NA
ATOM      5  C   UNL     1       6.936   6.413  17.466  0.00  0.00    +0.000 C 
ATOM      6  C   UNL     1       6.235   5.469  18.465  0.00  0.00    +0.000 C 
ENDROOT
BRANCH   1   7
ATOM      7  C   UNL     1       3.984   6.607  18.618  0.00  0.00    +0.000 C 
BRANCH   7   8
ATOM      8  C   UNL     1       2.474   6.311  18.663  0.00  0.00    +0.000 C 
BRANCH   8   9
ATOM      9  C   UNL     1       2.085   5.135  19.535  0.00  0.00    +0.000 A 
ATOM     10  C   UNL     1       2.502   5.104  20.879  0.00  0.00    +0.000 A 
ATOM     11  C   UNL     1       2.227   3.997  21.687  0.00  0.00    +0.000 A 
ATOM     12  C   UNL     1       1.533   2.904  21.162  0.00  0.00    +0.000 A 
ATOM     13  F   UNL     1       1.297   1.819  21.938  0.00  0.00    +0.000 F 
ATOM     14  C   UNL     1       1.103   2.926  19.832  0.00  0.00    +0.000 A 
ATOM     15  C   UNL     1       1.369   4.040  19.022  0.00  0.00    +0.000 A 
ENDBRANCH   8   9
BRANCH   8  16
ATOM     16  O   UNL     1       1.795   7.455  19.109  0.00  0.00    +0.000 OA
ATOM     17  H   UNL     1       0.928   7.494  18.627  0.00  0.00    +0.000 HD
ENDBRANCH   8  16
ENDBRANCH   7   8
ENDBRANCH   1   7
BRANCH   4  18
ATOM     18  C   UNL     1       7.393   4.813  15.647  0.00  0.00    +0.000 C 
BRANCH  18  19
ATOM     19  C   UNL     1       7.158   4.539  14.185  0.00  0.00    +0.000 A 
ATOM     20  C   UNL     1       7.850   5.274  13.207  0.00  0.00    +0.000 A 
ATOM     21  C   UNL     1       7.588   5.056  11.851  0.00  0.00    +0.000 A 
ATOM     22  C   UNL     1       6.628   4.115  11.465  0.00  0.00    +0.000 A 
ATOM     23  C   UNL     1       5.942   3.381  12.435  0.00  0.00    +0.000 A 
ATOM     24  C   UNL     1       6.206   3.585  13.789  0.00  0.00    +0.000 A 
ENDBRANCH  18  19
ENDBRANCH   4  18
TORSDOF 6
ENDMDL
MODEL 7
REMARK VINA RESULT:      -6.7      2.772      3.880
REMARK  Name = 
REMARK  6 active torsions:
REMARK  status: ('A' for Active; 'I' for Inactive)
REMARK    1  A    between atoms: O_1  and  C_2
REMARK    2  A    between atoms: C_2  and  C_3
REMARK    3  A    between atoms: C_2  and  C_17
REMARK    4  A    between atoms: C_3  and  N_4
REMARK    5  A    between atoms: N_7  and  C_8
REMARK    6  A    between atoms: C_8  and  C_9
REMARK                            x       y       z     vdW  Elec       q    Type
REMARK                         _______ _______ _______ _____ _____    ______ ____
ROOT
ATOM      1  N   UNL     1       4.576   5.687  18.143  0.00  0.00    +0.000 NA
ATOM      2  C   UNL     1       4.392   5.267  16.740  0.00  0.00    +0.000 C 
ATOM      3  C   UNL     1       5.198   6.164  15.777  0.00  0.00    +0.000 C 
ATOM      4  N   UNL     1       6.647   6.170  16.104  0.00  0.00    +0.000 NA
ATOM      5  C   UNL     1       6.848   6.562  17.516  0.00  0.00    +0.000 C 
ATOM      6  C   UNL     1       6.025   5.678  18.477  0.00  0.00    +0.000 C 
ENDROOT
BRANCH   1   7
ATOM      7  C   UNL     1       3.838   6.945  18.453  0.00  0.00    +0.000 C 
BRANCH   7   8
ATOM      8  C   UNL     1       2.369   6.664  18.818  0.00  0.00    +0.000 C 
BRANCH   8   9
ATOM      9  C   UNL     1       2.142   5.378  19.586  0.00  0.00    +0.000 A 
ATOM     10  C   UNL     1       1.454   4.316  18.968  0.00  0.00    +0.000 A 
ATOM     11  C   UNL     1       1.159   3.148  19.675  0.00  0.00    +0.000 A 
ATOM     12  C   UNL     1       1.545   3.024  21.012  0.00  0.00    +0.000 A 
ATOM     13  F   UNL     1       1.229   1.903  21.704  0.00  0.00    +0.000 F 
ATOM     14  C   UNL     1       2.239   4.065  21.635  0.00  0.00    +0.000 A 
ATOM     15  C   UNL     1       2.546   5.236  20.924  0.00  0.00    +0.000 A 
ENDBRANCH   8   9
BRANCH   8  16
ATOM     16  O   UNL     1       1.870   7.738  19.570  0.00  0.00    +0.000 OA
ATOM     17  H   UNL     1       2.561   7.981  20.240  0.00  0.00    +0.000 HD
ENDBRANCH   8  16
ENDBRANCH   7   8
ENDBRANCH   1   7
BRANCH   4  18
ATOM     18  C   UNL     1       7.337   4.905  15.758  0.00  0.00    +0.000 C 
BRANCH  18  19
ATOM     19  C   UNL     1       7.150   4.593  14.297  0.00  0.00    +0.000 A 
ATOM     20  C   UNL     1       7.873   5.302  13.323  0.00  0.00    +0.000 A 
ATOM     21  C   UNL     1       7.656   5.049  11.966  0.00  0.00    +0.000 A 
ATOM     22  C   UNL     1       6.709   4.098  11.573  0.00  0.00    +0.000 A 
ATOM     23  C   UNL     1       5.991   3.389  12.539  0.00  0.00    +0.000 A 
ATOM     24  C   UNL     1       6.211   3.628  13.895  0.00  0.00    +0.000 A 
ENDBRANCH  18  19
ENDBRANCH   4  18
TORSDOF 6
ENDMDL
MODEL 8
REMARK VINA RESULT:      -6.6      4.238      8.120
REMARK  Name = 
REMARK  6 active torsions:
REMARK  status: ('A' for Active; 'I' for Inactive)
REMARK    1  A    between atoms: O_1  and  C_2
REMARK    2  A    between atoms: C_2  and  C_3
REMARK    3  A    between atoms: C_2  and  C_17
REMARK    4  A    between atoms: C_3  and  N_4
REMARK    5  A    between atoms: N_7  and  C_8
REMARK    6  A    between atoms: C_8  and  C_9
REMARK                            x       y       z     vdW  Elec       q    Type
REMARK                         _______ _______ _______ _____ _____    ______ ____
ROOT
ATOM      1  N   UNL     1       6.729   4.279  16.290  0.00  0.00    +0.000 NA
ATOM      2  C   UNL     1       7.291   4.734  17.577  0.00  0.00    +0.000 C 
ATOM      3  C   UNL     1       6.388   5.797  18.238  0.00  0.00    +0.000 C 
ATOM      4  N   UNL     1       5.006   5.299  18.451  0.00  0.00    +0.000 NA
ATOM      5  C   UNL     1       4.438   4.813  17.174  0.00  0.00    +0.000 C 
ATOM      6  C   UNL     1       5.351   3.766  16.505  0.00  0.00    +0.000 C 
ENDROOT
BRANCH   1   7
ATOM      7  C   UNL     1       6.890   5.303  15.217  0.00  0.00    +0.000 C 
BRANCH   7   8
ATOM      8  C   UNL     1       7.574   4.713  13.971  0.00  0.00    +0.000 C 
BRANCH   8   9
ATOM      9  C   UNL     1       6.636   4.028  12.998  0.00  0.00    +0.000 A 
ATOM     10  C   UNL     1       5.254   4.284  13.073  0.00  0.00    +0.000 A 
ATOM     11  C   UNL     1       4.356   3.608  12.243  0.00  0.00    +0.000 A 
ATOM     12  C   UNL     1       4.825   2.664  11.328  0.00  0.00    +0.000 A 
ATOM     13  F   UNL     1       3.949   1.987  10.548  0.00  0.00    +0.000 F 
ATOM     14  C   UNL     1       6.196   2.407  11.235  0.00  0.00    +0.000 A 
ATOM     15  C   UNL     1       7.102   3.091  12.059  0.00  0.00    +0.000 A 
ENDBRANCH   8   9
BRANCH   8  16
ATOM     16  O   UNL     1       8.262   5.734  13.298  0.00  0.00    +0.000 OA
ATOM     17  H   UNL     1       9.147   5.836  13.736  0.00  0.00    +0.000 HD
ENDBRANCH   8  16
ENDBRANCH   7   8
ENDBRANCH   1   7
BRANCH   4  18
ATOM     18  C   UNL     1       4.898   4.301  19.541  0.00  0.00    +0.000 C 
BRANCH  18  19
ATOM     19  C   UNL     1       3.456   3.935  19.771  0.00  0.00    +0.000 A 
ATOM     20  C   UNL     1       2.562   4.880  20.301  0.00  0.00    +0.000 A 
ATOM     21  C   UNL     1       1.237   4.521  20.566  0.00  0.00    +0.000 A 
ATOM     22  C   UNL     1       0.802   3.215  20.316  0.00  0.00    +0.000 A 
ATOM     23  C   UNL     1       1.687   2.275  19.786  0.00  0.00    +0.000 A 
ATOM     24  C   UNL     1       3.007   2.629  19.508  0.00  0.00    +0.000 A 
ENDBRANCH  18  19
ENDBRANCH   4  18
TORSDOF 6
ENDMDL
MODEL 9
REMARK VINA RESULT:      -6.6      5.004     10.573
REMARK  Name = 
REMARK  6 active torsions:
REMARK  status: ('A' for Active; 'I' for Inactive)
REMARK    1  A    between atoms: O_1  and  C_2
REMARK    2  A    between atoms: C_2  and  C_3
REMARK    3  A    between atoms: C_2  and  C_17
REMARK    4  A    between atoms: C_3  and  N_4
REMARK    5  A    between atoms: N_7  and  C_8
REMARK    6  A    between atoms: C_8  and  C_9
REMARK                            x       y       z     vdW  Elec       q    Type
REMARK                         _______ _______ _______ _____ _____    ______ ____
ROOT
ATOM      1  N   UNL     1       1.487   9.008  21.027  0.00  0.00    +0.000 NA
ATOM      2  C   UNL     1       0.805  10.011  20.186  0.00  0.00    +0.000 C 
ATOM      3  C   UNL     1      -0.674  10.175  20.596  0.00  0.00    +0.000 C 
ATOM      4  N   UNL     1      -0.815  10.551  22.026  0.00  0.00    +0.000 NA
ATOM      5  C   UNL     1      -0.113   9.571  22.882  0.00  0.00    +0.000 C 
ATOM      6  C   UNL     1       1.359   9.392  22.457  0.00  0.00    +0.000 C 
ENDROOT
BRANCH   1   7
ATOM      7  C   UNL     1       1.078   7.616  20.682  0.00  0.00    +0.000 C 
BRANCH   7   8
ATOM      8  C   UNL     1       2.238   6.826  20.050  0.00  0.00    +0.000 C 
BRANCH   8   9
ATOM      9  C   UNL     1       1.905   5.394  19.686  0.00  0.00    +0.000 A 
ATOM     10  C   UNL     1       2.063   4.965  18.354  0.00  0.00    +0.000 A 
ATOM     11  C   UNL     1       1.689   3.675  17.970  0.00  0.00    +0.000 A 
ATOM     12  C   UNL     1       1.150   2.794  18.911  0.00  0.00    +0.000 A 
ATOM     13  F   UNL     1       0.759   1.555  18.528  0.00  0.00    +0.000 F 
ATOM     14  C   UNL     1       0.998   3.202  20.239  0.00  0.00    +0.000 A 
ATOM     15  C   UNL     1       1.382   4.494  20.630  0.00  0.00    +0.000 A 
ENDBRANCH   8   9
BRANCH   8  16
ATOM     16  O   UNL     1       2.680   7.498  18.901  0.00  0.00    +0.000 OA
ATOM     17  H   UNL     1       1.941   8.088  18.598  0.00  0.00    +0.000 HD
ENDBRANCH   8  16
ENDBRANCH   7   8
ENDBRANCH   1   7
BRANCH   4  18
ATOM     18  C   UNL     1      -0.416  11.949  22.312  0.00  0.00    +0.000 C 
BRANCH  18  19
ATOM     19  C   UNL     1      -1.518  12.666  23.045  0.00  0.00    +0.000 A 
ATOM     20  C   UNL     1      -1.308  13.959  23.551  0.00  0.00    +0.000 A 
ATOM     21  C   UNL     1      -2.315  14.599  24.280  0.00  0.00    +0.000 A 
ATOM     22  C   UNL     1      -3.530  13.948  24.519  0.00  0.00    +0.000 A 
ATOM     23  C   UNL     1      -3.743  12.664  24.014  0.00  0.00    +0.000 A 
ATOM     24  C   UNL     1      -2.747  12.024  23.276  0.00  0.00    +0.000 A 
ENDBRANCH  18  19
ENDBRANCH   4  18
TORSDOF 6
ENDMDL
