MODEL 1
REMARK VINA RESULT:      -8.5      0.000      0.000
REMARK  Name = 
REMARK  6 active torsions:
REMARK  status: ('A' for Active; 'I' for Inactive)
REMARK    1  A    between atoms: C_1  and  C_2
REMARK    2  A    between atoms: C_7  and  C_8
REMARK    3  A    between atoms: N_10  and  C_11
REMARK    4  A    between atoms: C_14  and  C_15
REMARK    5  A    between atoms: C_21  and  O_22
REMARK    6  A    between atoms: C_24  and  C_25
REMARK                            x       y       z     vdW  Elec       q    Type
REMARK                         _______ _______ _______ _____ _____    ______ ____
ROOT
ATOM      1  C   UNL     1       1.318   9.701  18.002  0.00  0.00    +0.000 A 
ATOM      2  C   UNL     1      -0.012   9.881  18.178  0.00  0.00    +0.000 A 
ATOM      3  C   UNL     1      -0.614  11.163  18.535  0.00  0.00    +0.000 A 
ATOM      4  C   UNL     1       0.110  12.395  18.710  0.00  0.00    +0.000 A 
ATOM      5  C   UNL     1       1.477  12.232  18.532  0.00  0.00    +0.000 A 
ATOM      6  C   UNL     1       2.072  10.951  18.189  0.00  0.00    +0.000 A 
ENDROOT
BRANCH   4   7
ATOM      7  C   UNL     1      -0.671  13.670  19.178  0.00  0.00    +0.000 C 
ATOM      8  O   UNL     1      -0.289  14.672  18.539  0.00  0.00    +0.000 OA
ATOM      9  N   UNL     1      -1.458  13.888  20.404  0.00  0.00    +0.000 N 
ATOM     10  C   UNL     1      -1.282  15.265  20.917  0.00  0.00    +0.000 C 
ATOM     11  C   UNL     1      -0.274  15.199  22.009  0.00  0.00    +0.000 C 
ATOM     12  C   UNL     1      -0.700  14.263  23.113  0.00  0.00    +0.000 C 
ATOM     13  C   UNL     1      -1.793  13.252  23.384  0.00  0.00    +0.000 C 
ATOM     14  C   UNL     1      -2.900  13.125  22.398  0.00  0.00    +0.000 A 
ATOM     15  C   UNL     1      -4.171  12.767  22.992  0.00  0.00    +0.000 A 
ATOM     16  C   UNL     1      -4.411  12.427  24.465  0.00  0.00    +0.000 C 
ATOM     17  C   UNL     1      -5.301  12.762  22.208  0.00  0.00    +0.000 A 
ATOM     18  C   UNL     1      -5.168  13.084  20.841  0.00  0.00    +0.000 A 
ATOM     19  C   UNL     1      -3.901  13.336  20.234  0.00  0.00    +0.000 A 
ATOM     20  C   UNL     1      -2.706  13.317  20.968  0.00  0.00    +0.000 A 
BRANCH  13  21
ATOM     21  O   UNL     1      -1.244  11.954  23.663  0.00  0.00    +0.000 OA
ATOM     22  H   UNL     1      -1.961  11.311  23.535  0.00  0.00    +0.000 HD
ENDBRANCH  13  21
ENDBRANCH   4   7
BRANCH   1  25
ATOM     23  C   UNL     1       2.486   7.427  18.393  0.00  0.00    +0.000 C 
ATOM     24  O   UNL     1       2.270   7.441  19.600  0.00  0.00    +0.000 OA
ATOM     25  N   UNL     1       2.062   8.504  17.588  0.00  0.00    +0.000 N 
ATOM     26  H   UNL     1       2.293   8.430  16.598  0.00  0.00    +0.000 HD
BRANCH  23  33
ATOM     27  C   UNL     1       1.552   4.242  18.280  0.00  0.00    +0.000 C 
ATOM     28  C   UNL     1       2.878   4.766  17.779  0.00  0.00    +0.000 A 
ATOM     29  C   UNL     1       3.747   3.760  17.240  0.00  0.00    +0.000 A 
ATOM     30  C   UNL     1       5.018   4.063  16.763  0.00  0.00    +0.000 A 
ATOM     31  C   UNL     1       5.430   5.377  16.811  0.00  0.00    +0.000 A 
ATOM     32  C   UNL     1       4.547   6.373  17.327  0.00  0.00    +0.000 A 
ATOM     33  C   UNL     1       3.253   6.125  17.843  0.00  0.00    +0.000 A 
ENDBRANCH  23  33
ENDBRANCH   1  25
TORSDOF 4
ENDMDL
MODEL 2
REMARK VINA RESULT:      -8.5      2.160      2.550
REMARK  Name = 
REMARK  6 active torsions:
REMARK  status: ('A' for Active; 'I' for Inactive)
REMARK    1  A    between atoms: C_1  and  C_2
REMARK    2  A    between atoms: C_7  and  C_8
REMARK    3  A    between atoms: N_10  and  C_11
REMARK    4  A    between atoms: C_14  and  C_15
REMARK    5  A    between atoms: C_21  and  O_22
REMARK    6  A    between atoms: C_24  and  C_25
REMARK                            x       y       z     vdW  Elec       q    Type
REMARK                         _______ _______ _______ _____ _____    ______ ____
ROOT
ATOM      1  C   UNL     1       0.955   8.924  20.794  0.00  0.00    +0.000 A 
ATOM      2  C   UNL     1       1.036   9.963  19.931  0.00  0.00    +0.000 A 
ATOM      3  C   UNL     1       0.389  11.253  20.154  0.00  0.00    +0.000 A 
ATOM      4  C   UNL     1      -0.382  11.599  21.320  0.00  0.00    +0.000 A 
ATOM      5  C   UNL     1      -0.477  10.546  22.220  0.00  0.00    +0.000 A 
ATOM      6  C   UNL     1       0.160   9.260  21.986  0.00  0.00    +0.000 A 
ENDROOT
BRANCH   4   7
ATOM      7  C   UNL     1      -1.086  12.997  21.373  0.00  0.00    +0.000 C 
ATOM      8  O   UNL     1      -0.267  13.906  21.124  0.00  0.00    +0.000 OA
ATOM      9  N   UNL     1      -2.377  13.373  21.975  0.00  0.00    +0.000 N 
ATOM     10  C   UNL     1      -2.309  14.713  22.599  0.00  0.00    +0.000 C 
ATOM     11  C   UNL     1      -2.101  14.506  24.057  0.00  0.00    +0.000 C 
ATOM     12  C   UNL     1      -3.204  13.680  24.672  0.00  0.00    +0.000 C 
ATOM     13  C   UNL     1      -4.401  12.873  24.221  0.00  0.00    +0.000 C 
ATOM     14  C   UNL     1      -4.779  12.909  22.783  0.00  0.00    +0.000 A 
ATOM     15  C   UNL     1      -6.203  12.783  22.551  0.00  0.00    +0.000 A 
ATOM     16  C   UNL     1      -7.268  12.523  23.619  0.00  0.00    +0.000 C 
ATOM     17  C   UNL     1      -6.692  12.948  21.276  0.00  0.00    +0.000 A 
ATOM     18  C   UNL     1      -5.776  13.210  20.236  0.00  0.00    +0.000 A 
ATOM     19  C   UNL     1      -4.365  13.233  20.448  0.00  0.00    +0.000 A 
ATOM     20  C   UNL     1      -3.798  13.032  21.715  0.00  0.00    +0.000 A 
BRANCH  13  21
ATOM     21  O   UNL     1      -4.304  11.508  24.661  0.00  0.00    +0.000 OA
ATOM     22  H   UNL     1      -4.207  10.962  23.863  0.00  0.00    +0.000 HD
ENDBRANCH  13  21
ENDBRANCH   4   7
BRANCH   1  25
ATOM     23  C   UNL     1       2.175   6.965  19.627  0.00  0.00    +0.000 C 
ATOM     24  O   UNL     1       2.156   7.511  18.530  0.00  0.00    +0.000 OA
ATOM     25  N   UNL     1       1.591   7.601  20.742  0.00  0.00    +0.000 N 
ATOM     26  H   UNL     1       1.629   7.078  21.616  0.00  0.00    +0.000 HD
BRANCH  23  33
ATOM     27  C   UNL     1       1.055   3.995  20.604  0.00  0.00    +0.000 C 
ATOM     28  C   UNL     1       2.448   4.257  20.078  0.00  0.00    +0.000 A 
ATOM     29  C   UNL     1       3.292   3.098  20.034  0.00  0.00    +0.000 A 
ATOM     30  C   UNL     1       4.613   3.166  19.606  0.00  0.00    +0.000 A 
ATOM     31  C   UNL     1       5.102   4.391  19.206  0.00  0.00    +0.000 A 
ATOM     32  C   UNL     1       4.245   5.532  19.231  0.00  0.00    +0.000 A 
ATOM     33  C   UNL     1       2.900   5.531  19.673  0.00  0.00    +0.000 A 
ENDBRANCH  23  33
ENDBRANCH   1  25
TORSDOF 4
ENDMDL
MODEL 3
REMARK VINA RESULT:      -8.5      2.311      2.999
REMARK  Name = 
REMARK  6 active torsions:
REMARK  status: ('A' for Active; 'I' for Inactive)
REMARK    1  A    between atoms: C_1  and  C_2
REMARK    2  A    between atoms: C_7  and  C_8
REMARK    3  A    between atoms: N_10  and  C_11
REMARK    4  A    between atoms: C_14  and  C_15
REMARK    5  A    between atoms: C_21  and  O_22
REMARK    6  A    between atoms: C_24  and  C_25
REMARK                            x       y       z     vdW  Elec       q    Type
REMARK                         _______ _______ _______ _____ _____    ______ ____
ROOT
ATOM      1  C   UNL     1       0.821   8.828  21.066  0.00  0.00    +0.000 A 
ATOM      2  C   UNL     1       0.904   9.835  20.165  0.00  0.00    +0.000 A 
ATOM      3  C   UNL     1       0.294  11.147  20.358  0.00  0.00    +0.000 A 
ATOM      4  C   UNL     1      -0.437  11.553  21.530  0.00  0.00    +0.000 A 
ATOM      5  C   UNL     1      -0.534  10.535  22.469  0.00  0.00    +0.000 A 
ATOM      6  C   UNL     1       0.066   9.226  22.265  0.00  0.00    +0.000 A 
ENDROOT
BRANCH   4   7
ATOM      7  C   UNL     1      -1.106  12.970  21.551  0.00  0.00    +0.000 C 
ATOM      8  O   UNL     1      -0.254  13.855  21.330  0.00  0.00    +0.000 OA
ATOM      9  N   UNL     1      -2.409  13.381  22.102  0.00  0.00    +0.000 N 
ATOM     10  C   UNL     1      -2.328  14.723  22.723  0.00  0.00    +0.000 C 
ATOM     11  C   UNL     1      -2.181  14.517  24.189  0.00  0.00    +0.000 C 
ATOM     12  C   UNL     1      -3.328  13.723  24.764  0.00  0.00    +0.000 C 
ATOM     13  C   UNL     1      -4.529  12.946  24.272  0.00  0.00    +0.000 C 
ATOM     14  C   UNL     1      -4.850  12.985  22.820  0.00  0.00    +0.000 A 
ATOM     15  C   UNL     1      -6.267  12.895  22.534  0.00  0.00    +0.000 A 
ATOM     16  C   UNL     1      -7.379  12.668  23.562  0.00  0.00    +0.000 C 
ATOM     17  C   UNL     1      -6.704  13.066  21.241  0.00  0.00    +0.000 A 
ATOM     18  C   UNL     1      -5.742  13.299  20.236  0.00  0.00    +0.000 A 
ATOM     19  C   UNL     1      -4.340  13.286  20.501  0.00  0.00    +0.000 A 
ATOM     20  C   UNL     1      -3.827  13.076  21.789  0.00  0.00    +0.000 A 
BRANCH  13  21
ATOM     21  O   UNL     1      -4.484  11.581  24.720  0.00  0.00    +0.000 OA
ATOM     22  H   UNL     1      -5.403  11.308  24.884  0.00  0.00    +0.000 HD
ENDBRANCH  13  21
ENDBRANCH   4   7
BRANCH   1  25
ATOM     23  C   UNL     1       2.062   6.844  19.966  0.00  0.00    +0.000 C 
ATOM     24  O   UNL     1       2.129   7.398  18.874  0.00  0.00    +0.000 OA
ATOM     25  N   UNL     1       1.423   7.489  21.045  0.00  0.00    +0.000 N 
ATOM     26  H   UNL     1       1.390   6.960  21.916  0.00  0.00    +0.000 HD
BRANCH  23  33
ATOM     27  C   UNL     1       4.824   5.658  18.556  0.00  0.00    +0.000 C 
ATOM     28  C   UNL     1       3.915   4.864  19.464  0.00  0.00    +0.000 A 
ATOM     29  C   UNL     1       4.331   3.508  19.680  0.00  0.00    +0.000 A 
ATOM     30  C   UNL     1       3.594   2.627  20.464  0.00  0.00    +0.000 A 
ATOM     31  C   UNL     1       2.438   3.095  21.050  0.00  0.00    +0.000 A 
ATOM     32  C   UNL     1       2.047   4.453  20.848  0.00  0.00    +0.000 A 
ATOM     33  C   UNL     1       2.743   5.390  20.048  0.00  0.00    +0.000 A 
ENDBRANCH  23  33
ENDBRANCH   1  25
TORSDOF 4
ENDMDL
MODEL 4
REMARK VINA RESULT:      -8.5      0.340      1.259
REMARK  Name = 
REMARK  6 active torsions:
REMARK  status: ('A' for Active; 'I' for Inactive)
REMARK    1  A    between atoms: C_1  and  C_2
REMARK    2  A    between atoms: C_7  and  C_8
REMARK    3  A    between atoms: N_10  and  C_11
REMARK    4  A    between atoms: C_14  and  C_15
REMARK    5  A    between atoms: C_21  and  O_22
REMARK    6  A    between atoms: C_24  and  C_25
REMARK                            x       y       z     vdW  Elec       q    Type
REMARK                         _______ _______ _______ _____ _____    ______ ____
ROOT
ATOM      1  C   UNL     1       1.206   9.635  18.027  0.00  0.00    +0.000 A 
ATOM      2  C   UNL     1      -0.125   9.860  18.135  0.00  0.00    +0.000 A 
ATOM      3  C   UNL     1      -0.700  11.155  18.488  0.00  0.00    +0.000 A 
ATOM      4  C   UNL     1       0.055  12.357  18.729  0.00  0.00    +0.000 A 
ATOM      5  C   UNL     1       1.423  12.148  18.622  0.00  0.00    +0.000 A 
ATOM      6  C   UNL     1       1.991  10.853  18.283  0.00  0.00    +0.000 A 
ENDROOT
BRANCH   4   7
ATOM      7  C   UNL     1      -0.705  13.649  19.183  0.00  0.00    +0.000 C 
ATOM      8  O   UNL     1      -0.308  14.637  18.532  0.00  0.00    +0.000 OA
ATOM      9  N   UNL     1      -1.488  13.893  20.407  0.00  0.00    +0.000 N 
ATOM     10  C   UNL     1      -1.289  15.273  20.904  0.00  0.00    +0.000 C 
ATOM     11  C   UNL     1      -0.282  15.204  21.996  0.00  0.00    +0.000 C 
ATOM     12  C   UNL     1      -0.722  14.287  23.111  0.00  0.00    +0.000 C 
ATOM     13  C   UNL     1      -1.831  13.297  23.394  0.00  0.00    +0.000 C 
ATOM     14  C   UNL     1      -2.940  13.176  22.410  0.00  0.00    +0.000 A 
ATOM     15  C   UNL     1      -4.216  12.845  23.009  0.00  0.00    +0.000 A 
ATOM     16  C   UNL     1      -4.461  12.526  24.486  0.00  0.00    +0.000 C 
ATOM     17  C   UNL     1      -5.346  12.849  22.226  0.00  0.00    +0.000 A 
ATOM     18  C   UNL     1      -5.209  13.153  20.855  0.00  0.00    +0.000 A 
ATOM     19  C   UNL     1      -3.939  13.378  20.245  0.00  0.00    +0.000 A 
ATOM     20  C   UNL     1      -2.744  13.348  20.978  0.00  0.00    +0.000 A 
BRANCH  13  21
ATOM     21  O   UNL     1      -1.302  11.994  23.688  0.00  0.00    +0.000 OA
ATOM     22  H   UNL     1      -1.319  11.893  24.654  0.00  0.00    +0.000 HD
ENDBRANCH  13  21
ENDBRANCH   4   7
BRANCH   1  25
ATOM     23  C   UNL     1       2.408   7.386  18.456  0.00  0.00    +0.000 C 
ATOM     24  O   UNL     1       2.268   7.460  19.672  0.00  0.00    +0.000 OA
ATOM     25  N   UNL     1       1.929   8.421  17.627  0.00  0.00    +0.000 N 
ATOM     26  H   UNL     1       2.098   8.299  16.629  0.00  0.00    +0.000 HD
BRANCH  23  33
ATOM     27  C   UNL     1       5.451   6.950  17.199  0.00  0.00    +0.000 C 
ATOM     28  C   UNL     1       4.435   5.848  17.391  0.00  0.00    +0.000 A 
ATOM     29  C   UNL     1       4.882   4.551  16.972  0.00  0.00    +0.000 A 
ATOM     30  C   UNL     1       4.063   3.429  17.049  0.00  0.00    +0.000 A 
ATOM     31  C   UNL     1       2.792   3.590  17.558  0.00  0.00    +0.000 A 
ATOM     32  C   UNL     1       2.368   4.880  17.995  0.00  0.00    +0.000 A 
ATOM     33  C   UNL     1       3.146   6.061  17.925  0.00  0.00    +0.000 A 
ENDBRANCH  23  33
ENDBRANCH   1  25
TORSDOF 4
ENDMDL
MODEL 5
REMARK VINA RESULT:      -8.2      1.722      2.187
REMARK  Name = 
REMARK  6 active torsions:
REMARK  status: ('A' for Active; 'I' for Inactive)
REMARK    1  A    between atoms: C_1  and  C_2
REMARK    2  A    between atoms: C_7  and  C_8
REMARK    3  A    between atoms: N_10  and  C_11
REMARK    4  A    between atoms: C_14  and  C_15
REMARK    5  A    between atoms: C_21  and  O_22
REMARK    6  A    between atoms: C_24  and  C_25
REMARK                            x       y       z     vdW  Elec       q    Type
REMARK                         _______ _______ _______ _____ _____    ______ ____
ROOT
ATOM      1  C   UNL     1       0.749   9.971  19.816  0.00  0.00    +0.000 A 
ATOM      2  C   UNL     1       1.047  11.028  20.607  0.00  0.00    +0.000 A 
ATOM      3  C   UNL     1       0.164  12.176  20.791  0.00  0.00    +0.000 A 
ATOM      4  C   UNL     1      -1.138  12.321  20.193  0.00  0.00    +0.000 A 
ATOM      5  C   UNL     1      -1.464  11.246  19.378  0.00  0.00    +0.000 A 
ATOM      6  C   UNL     1      -0.575  10.111  19.188  0.00  0.00    +0.000 A 
ENDROOT
BRANCH   4   7
ATOM      7  C   UNL     1      -1.929  13.653  20.419  0.00  0.00    +0.000 C 
ATOM      8  O   UNL     1      -1.257  14.629  20.028  0.00  0.00    +0.000 OA
ATOM      9  N   UNL     1      -3.095  13.915  21.281  0.00  0.00    +0.000 N 
ATOM     10  C   UNL     1      -3.010  15.253  21.907  0.00  0.00    +0.000 C 
ATOM     11  C   UNL     1      -2.490  15.059  23.287  0.00  0.00    +0.000 C 
ATOM     12  C   UNL     1      -3.370  14.139  24.097  0.00  0.00    +0.000 C 
ATOM     13  C   UNL     1      -4.564  13.235  23.884  0.00  0.00    +0.000 C 
ATOM     14  C   UNL     1      -5.232  13.244  22.555  0.00  0.00    +0.000 A 
ATOM     15  C   UNL     1      -6.658  12.998  22.617  0.00  0.00    +0.000 A 
ATOM     16  C   UNL     1      -7.455  12.643  23.875  0.00  0.00    +0.000 C 
ATOM     17  C   UNL     1      -7.411  13.126  21.474  0.00  0.00    +0.000 A 
ATOM     18  C   UNL     1      -6.754  13.469  20.274  0.00  0.00    +0.000 A 
ATOM     19  C   UNL     1      -5.337  13.611  20.192  0.00  0.00    +0.000 A 
ATOM     20  C   UNL     1      -4.506  13.455  21.311  0.00  0.00    +0.000 A 
BRANCH  13  21
ATOM     21  O   UNL     1      -4.266  11.881  24.265  0.00  0.00    +0.000 OA
ATOM     22  H   UNL     1      -3.886  11.446  23.483  0.00  0.00    +0.000 HD
ENDBRANCH  13  21
ENDBRANCH   4   7
BRANCH   1  25
ATOM     23  C   UNL     1       2.177   8.339  18.407  0.00  0.00    +0.000 C 
ATOM     24  O   UNL     1       2.158   9.063  17.417  0.00  0.00    +0.000 OA
ATOM     25  N   UNL     1       1.495   8.729  19.578  0.00  0.00    +0.000 N 
ATOM     26  H   UNL     1       1.540   8.068  20.353  0.00  0.00    +0.000 HD
BRANCH  23  33
ATOM     27  C   UNL     1       1.952   5.451  20.030  0.00  0.00    +0.000 C 
ATOM     28  C   UNL     1       2.940   5.739  18.923  0.00  0.00    +0.000 A 
ATOM     29  C   UNL     1       3.815   4.647  18.611  0.00  0.00    +0.000 A 
ATOM     30  C   UNL     1       4.805   4.750  17.640  0.00  0.00    +0.000 A 
ATOM     31  C   UNL     1       4.923   5.944  16.962  0.00  0.00    +0.000 A 
ATOM     32  C   UNL     1       4.030   7.015  17.264  0.00  0.00    +0.000 A 
ATOM     33  C   UNL     1       3.017   6.978  18.252  0.00  0.00    +0.000 A 
ENDBRANCH  23  33
ENDBRANCH   1  25
TORSDOF 4
ENDMDL
MODEL 6
REMARK VINA RESULT:      -8.2      0.907      1.814
REMARK  Name = 
REMARK  6 active torsions:
REMARK  status: ('A' for Active; 'I' for Inactive)
REMARK    1  A    between atoms: C_1  and  C_2
REMARK    2  A    between atoms: C_7  and  C_8
REMARK    3  A    between atoms: N_10  and  C_11
REMARK    4  A    between atoms: C_14  and  C_15
REMARK    5  A    between atoms: C_21  and  O_22
REMARK    6  A    between atoms: C_24  and  C_25
REMARK                            x       y       z     vdW  Elec       q    Type
REMARK                         _______ _______ _______ _____ _____    ______ ____
ROOT
ATOM      1  C   UNL     1       1.025   9.801  18.267  0.00  0.00    +0.000 A 
ATOM      2  C   UNL     1       1.577  10.981  18.634  0.00  0.00    +0.000 A 
ATOM      3  C   UNL     1       0.803  12.124  19.109  0.00  0.00    +0.000 A 
ATOM      4  C   UNL     1      -0.626  12.139  19.282  0.00  0.00    +0.000 A 
ATOM      5  C   UNL     1      -1.214  10.937  18.912  0.00  0.00    +0.000 A 
ATOM      6  C   UNL     1      -0.438   9.806  18.427  0.00  0.00    +0.000 A 
ENDROOT
BRANCH   4   7
ATOM      7  C   UNL     1      -1.321  13.473  19.720  0.00  0.00    +0.000 C 
ATOM      8  O   UNL     1      -0.690  14.455  19.280  0.00  0.00    +0.000 OA
ATOM      9  N   UNL     1      -2.315  13.705  20.782  0.00  0.00    +0.000 N 
ATOM     10  C   UNL     1      -2.078  14.997  21.465  0.00  0.00    +0.000 C 
ATOM     11  C   UNL     1      -1.340  14.699  22.721  0.00  0.00    +0.000 C 
ATOM     12  C   UNL     1      -2.103  13.751  23.612  0.00  0.00    +0.000 C 
ATOM     13  C   UNL     1      -3.348  12.892  23.551  0.00  0.00    +0.000 C 
ATOM     14  C   UNL     1      -4.229  13.006  22.358  0.00  0.00    +0.000 A 
ATOM     15  C   UNL     1      -5.632  12.791  22.647  0.00  0.00    +0.000 A 
ATOM     16  C   UNL     1      -6.218  12.374  23.999  0.00  0.00    +0.000 C 
ATOM     17  C   UNL     1      -6.562  13.012  21.659  0.00  0.00    +0.000 A 
ATOM     18  C   UNL     1      -6.104  13.418  20.388  0.00  0.00    +0.000 A 
ATOM     19  C   UNL     1      -4.717  13.530  20.074  0.00  0.00    +0.000 A 
ATOM     20  C   UNL     1      -3.715  13.279  21.024  0.00  0.00    +0.000 A 
BRANCH  13  21
ATOM     21  O   UNL     1      -3.038  11.510  23.793  0.00  0.00    +0.000 OA
ATOM     22  H   UNL     1      -3.636  11.205  24.495  0.00  0.00    +0.000 HD
ENDBRANCH  13  21
ENDBRANCH   4   7
BRANCH   1  25
ATOM     23  C   UNL     1       2.209   7.532  18.637  0.00  0.00    +0.000 C 
ATOM     24  O   UNL     1       2.210   7.649  19.858  0.00  0.00    +0.000 OA
ATOM     25  N   UNL     1       1.665   8.553  17.831  0.00  0.00    +0.000 N 
ATOM     26  H   UNL     1       1.716   8.393  16.825  0.00  0.00    +0.000 HD
BRANCH  23  33
ATOM     27  C   UNL     1       5.128   6.943  17.167  0.00  0.00    +0.000 C 
ATOM     28  C   UNL     1       4.081   5.890  17.450  0.00  0.00    +0.000 A 
ATOM     29  C   UNL     1       4.437   4.569  17.019  0.00  0.00    +0.000 A 
ATOM     30  C   UNL     1       3.578   3.487  17.172  0.00  0.00    +0.000 A 
ATOM     31  C   UNL     1       2.356   3.711  17.770  0.00  0.00    +0.000 A 
ATOM     32  C   UNL     1       2.023   5.025  18.217  0.00  0.00    +0.000 A 
ATOM     33  C   UNL     1       2.846   6.168  18.073  0.00  0.00    +0.000 A 
ENDBRANCH  23  33
ENDBRANCH   1  25
TORSDOF 4
ENDMDL
MODEL 7
REMARK VINA RESULT:      -8.0      0.875      1.314
REMARK  Name = 
REMARK  6 active torsions:
REMARK  status: ('A' for Active; 'I' for Inactive)
REMARK    1  A    between atoms: C_1  and  C_2
REMARK    2  A    between atoms: C_7  and  C_8
REMARK    3  A    between atoms: N_10  and  C_11
REMARK    4  A    between atoms: C_14  and  C_15
REMARK    5  A    between atoms: C_21  and  O_22
REMARK    6  A    between atoms: C_24  and  C_25
REMARK                            x       y       z     vdW  Elec       q    Type
REMARK                         _______ _______ _______ _____ _____    ______ ____
ROOT
ATOM      1  C   UNL     1       1.137   9.971  18.291  0.00  0.00    +0.000 A 
ATOM      2  C   UNL     1       1.660  11.184  18.585  0.00  0.00    +0.000 A 
ATOM      3  C   UNL     1       0.867  12.313  19.064  0.00  0.00    +0.000 A 
ATOM      4  C   UNL     1      -0.550  12.279  19.317  0.00  0.00    +0.000 A 
ATOM      5  C   UNL     1      -1.107  11.042  19.023  0.00  0.00    +0.000 A 
ATOM      6  C   UNL     1      -0.314   9.925  18.534  0.00  0.00    +0.000 A 
ENDROOT
BRANCH   4   7
ATOM      7  C   UNL     1      -1.273  13.600  19.748  0.00  0.00    +0.000 C 
ATOM      8  O   UNL     1      -0.652  14.594  19.319  0.00  0.00    +0.000 OA
ATOM      9  N   UNL     1      -2.287  13.813  20.795  0.00  0.00    +0.000 N 
ATOM     10  C   UNL     1      -2.082  15.107  21.484  0.00  0.00    +0.000 C 
ATOM     11  C   UNL     1      -1.358  14.818  22.751  0.00  0.00    +0.000 C 
ATOM     12  C   UNL     1      -2.119  13.855  23.628  0.00  0.00    +0.000 C 
ATOM     13  C   UNL     1      -3.348  12.976  23.546  0.00  0.00    +0.000 C 
ATOM     14  C   UNL     1      -4.213  13.078  22.340  0.00  0.00    +0.000 A 
ATOM     15  C   UNL     1      -5.616  12.839  22.607  0.00  0.00    +0.000 A 
ATOM     16  C   UNL     1      -6.216  12.409  23.948  0.00  0.00    +0.000 C 
ATOM     17  C   UNL     1      -6.535  13.048  21.605  0.00  0.00    +0.000 A 
ATOM     18  C   UNL     1      -6.064  13.464  20.342  0.00  0.00    +0.000 A 
ATOM     19  C   UNL     1      -4.675  13.600  20.050  0.00  0.00    +0.000 A 
ATOM     20  C   UNL     1      -3.683  13.364  21.014  0.00  0.00    +0.000 A 
BRANCH  13  21
ATOM     21  O   UNL     1      -3.019  11.598  23.789  0.00  0.00    +0.000 OA
ATOM     22  H   UNL     1      -3.276  11.404  24.706  0.00  0.00    +0.000 HD
ENDBRANCH  13  21
ENDBRANCH   4   7
BRANCH   1  25
ATOM     23  C   UNL     1       2.265   7.675  18.672  0.00  0.00    +0.000 C 
ATOM     24  O   UNL     1       2.160   7.745  19.892  0.00  0.00    +0.000 OA
ATOM     25  N   UNL     1       1.802   8.734  17.863  0.00  0.00    +0.000 N 
ATOM     26  H   UNL     1       1.940   8.613  16.860  0.00  0.00    +0.000 HD
BRANCH  23  33
ATOM     27  C   UNL     1       1.431   4.490  19.103  0.00  0.00    +0.000 C 
ATOM     28  C   UNL     1       2.602   4.967  18.275  0.00  0.00    +0.000 A 
ATOM     29  C   UNL     1       3.367   3.914  17.670  0.00  0.00    +0.000 A 
ATOM     30  C   UNL     1       4.497   4.173  16.901  0.00  0.00    +0.000 A 
ATOM     31  C   UNL     1       4.867   5.488  16.718  0.00  0.00    +0.000 A 
ATOM     32  C   UNL     1       4.084   6.527  17.305  0.00  0.00    +0.000 A 
ATOM     33  C   UNL     1       2.938   6.327  18.111  0.00  0.00    +0.000 A 
ENDBRANCH  23  33
ENDBRANCH   1  25
TORSDOF 4
ENDMDL
MODEL 8
REMARK VINA RESULT:      -7.9      1.700      2.354
REMARK  Name = 
REMARK  6 active torsions:
REMARK  status: ('A' for Active; 'I' for Inactive)
REMARK    1  A    between atoms: C_1  and  C_2
REMARK    2  A    between atoms: C_7  and  C_8
REMARK    3  A    between atoms: N_10  and  C_11
REMARK    4  A    between atoms: C_14  and  C_15
REMARK    5  A    between atoms: C_21  and  O_22
REMARK    6  A    between atoms: C_24  and  C_25
REMARK                            x       y       z     vdW  Elec       q    Type
REMARK                         _______ _______ _______ _____ _____    ______ ____
ROOT
ATOM      1  C   UNL     1       0.974   9.514  19.764  0.00  0.00    +0.000 A 
ATOM      2  C   UNL     1       1.030  10.595  18.951  0.00  0.00    +0.000 A 
ATOM      3  C   UNL     1       0.198  11.782  19.125  0.00  0.00    +0.000 A 
ATOM      4  C   UNL     1      -0.754  11.976  20.188  0.00  0.00    +0.000 A 
ATOM      5  C   UNL     1      -0.827  10.878  21.035  0.00  0.00    +0.000 A 
ATOM      6  C   UNL     1      -0.005   9.693  20.849  0.00  0.00    +0.000 A 
ENDROOT
BRANCH   4   7
ATOM      7  C   UNL     1      -1.633  13.272  20.189  0.00  0.00    +0.000 C 
ATOM      8  O   UNL     1      -1.007  14.221  19.675  0.00  0.00    +0.000 OA
ATOM      9  N   UNL     1      -2.845  13.580  20.967  0.00  0.00    +0.000 N 
ATOM     10  C   UNL     1      -2.867  14.999  21.388  0.00  0.00    +0.000 C 
ATOM     11  C   UNL     1      -2.389  15.045  22.796  0.00  0.00    +0.000 C 
ATOM     12  C   UNL     1      -3.242  14.199  23.708  0.00  0.00    +0.000 C 
ATOM     13  C   UNL     1      -4.370  13.196  23.599  0.00  0.00    +0.000 C 
ATOM     14  C   UNL     1      -4.985  12.965  22.264  0.00  0.00    +0.000 A 
ATOM     15  C   UNL     1      -6.394  12.637  22.321  0.00  0.00    +0.000 A 
ATOM     16  C   UNL     1      -7.216  12.420  23.594  0.00  0.00    +0.000 C 
ATOM     17  C   UNL     1      -7.109  12.544  21.150  0.00  0.00    +0.000 A 
ATOM     18  C   UNL     1      -6.428  12.750  19.932  0.00  0.00    +0.000 A 
ATOM     19  C   UNL     1      -5.020  12.972  19.871  0.00  0.00    +0.000 A 
ATOM     20  C   UNL     1      -4.225  13.037  21.025  0.00  0.00    +0.000 A 
BRANCH  13  21
ATOM     21  O   UNL     1      -4.004  11.936  24.186  0.00  0.00    +0.000 OA
ATOM     22  H   UNL     1      -3.695  12.125  25.088  0.00  0.00    +0.000 HD
ENDBRANCH  13  21
ENDBRANCH   4   7
BRANCH   1  25
ATOM     23  C   UNL     1       2.323   7.614  18.643  0.00  0.00    +0.000 C 
ATOM     24  O   UNL     1       2.116   8.036  17.511  0.00  0.00    +0.000 OA
ATOM     25  N   UNL     1       1.776   8.284  19.756  0.00  0.00    +0.000 N 
ATOM     26  H   UNL     1       1.976   7.864  20.664  0.00  0.00    +0.000 HD
BRANCH  23  33
ATOM     27  C   UNL     1       5.166   6.836  17.112  0.00  0.00    +0.000 C 
ATOM     28  C   UNL     1       4.449   5.943  18.098  0.00  0.00    +0.000 A 
ATOM     29  C   UNL     1       5.094   4.683  18.334  0.00  0.00    +0.000 A 
ATOM     30  C   UNL     1       4.555   3.728  19.189  0.00  0.00    +0.000 A 
ATOM     31  C   UNL     1       3.370   4.026  19.826  0.00  0.00    +0.000 A 
ATOM     32  C   UNL     1       2.750   5.292  19.602  0.00  0.00    +0.000 A 
ATOM     33  C   UNL     1       3.239   6.296  18.732  0.00  0.00    +0.000 A 
ENDBRANCH  23  33
ENDBRANCH   1  25
TORSDOF 4
ENDMDL
MODEL 9
REMARK VINA RESULT:      -7.8      1.653      2.359
REMARK  Name = 
REMARK  6 active torsions:
REMARK  status: ('A' for Active; 'I' for Inactive)
REMARK    1  A    between atoms: C_1  and  C_2
REMARK    2  A    between atoms: C_7  and  C_8
REMARK    3  A    between atoms: N_10  and  C_11
REMARK    4  A    between atoms: C_14  and  C_15
REMARK    5  A    between atoms: C_21  and  O_22
REMARK    6  A    between atoms: C_24  and  C_25
REMARK                            x       y       z     vdW  Elec       q    Type
REMARK                         _______ _______ _______ _____ _____    ______ ____
ROOT
ATOM      1  C   UNL     1       0.812   9.936  19.463  0.00  0.00    +0.000 A 
ATOM      2  C   UNL     1       1.038  10.860  20.426  0.00  0.00    +0.000 A 
ATOM      3  C   UNL     1       0.176  12.016  20.655  0.00  0.00    +0.000 A 
ATOM      4  C   UNL     1      -1.029  12.307  19.923  0.00  0.00    +0.000 A 
ATOM      5  C   UNL     1      -1.280  11.369  18.930  0.00  0.00    +0.000 A 
ATOM      6  C   UNL     1      -0.411  10.227  18.698  0.00  0.00    +0.000 A 
ENDROOT
BRANCH   4   7
ATOM      7  C   UNL     1      -1.800  13.635  20.232  0.00  0.00    +0.000 C 
ATOM      8  O   UNL     1      -1.144  14.619  19.833  0.00  0.00    +0.000 OA
ATOM      9  N   UNL     1      -2.915  13.875  21.164  0.00  0.00    +0.000 N 
ATOM     10  C   UNL     1      -2.788  15.194  21.823  0.00  0.00    +0.000 C 
ATOM     11  C   UNL     1      -2.194  14.956  23.166  0.00  0.00    +0.000 C 
ATOM     12  C   UNL     1      -3.034  14.017  23.995  0.00  0.00    +0.000 C 
ATOM     13  C   UNL     1      -4.243  13.124  23.822  0.00  0.00    +0.000 C 
ATOM     14  C   UNL     1      -4.983  13.176  22.532  0.00  0.00    +0.000 A 
ATOM     15  C   UNL     1      -6.404  12.934  22.665  0.00  0.00    +0.000 A 
ATOM     16  C   UNL     1      -7.133  12.546  23.954  0.00  0.00    +0.000 C 
ATOM     17  C   UNL     1      -7.219  13.099  21.570  0.00  0.00    +0.000 A 
ATOM     18  C   UNL     1      -6.626  13.476  20.346  0.00  0.00    +0.000 A 
ATOM     19  C   UNL     1      -5.214  13.614  20.191  0.00  0.00    +0.000 A 
ATOM     20  C   UNL     1      -4.324  13.421  21.257  0.00  0.00    +0.000 A 
BRANCH  13  21
ATOM     21  O   UNL     1      -3.933  11.759  24.145  0.00  0.00    +0.000 OA
ATOM     22  H   UNL     1      -4.746  11.361  24.498  0.00  0.00    +0.000 HD
ENDBRANCH  13  21
ENDBRANCH   4   7
BRANCH   1  25
ATOM     23  C   UNL     1       1.814   7.615  20.007  0.00  0.00    +0.000 C 
ATOM     24  O   UNL     1       1.454   7.654  21.178  0.00  0.00    +0.000 OA
ATOM     25  N   UNL     1       1.542   8.701  19.150  0.00  0.00    +0.000 N 
ATOM     26  H   UNL     1       1.888   8.604  18.195  0.00  0.00    +0.000 HD
BRANCH  23  33
ATOM     27  C   UNL     1       3.953   7.051  17.530  0.00  0.00    +0.000 C 
ATOM     28  C   UNL     1       3.492   6.007  18.520  0.00  0.00    +0.000 A 
ATOM     29  C   UNL     1       4.051   4.703  18.310  0.00  0.00    +0.000 A 
ATOM     30  C   UNL     1       3.711   3.618  19.110  0.00  0.00    +0.000 A 
ATOM     31  C   UNL     1       2.816   3.827  20.137  0.00  0.00    +0.000 A 
ATOM     32  C   UNL     1       2.286   5.134  20.352  0.00  0.00    +0.000 A 
ATOM     33  C   UNL     1       2.578   6.272  19.562  0.00  0.00    +0.000 A 
ENDBRANCH  23  33
ENDBRANCH   1  25
TORSDOF 4
ENDMDL
