MODEL 1
REMARK VINA RESULT:      -7.8      0.000      0.000
REMARK  Name = 
REMARK  7 active torsions:
REMARK  status: ('A' for Active; 'I' for Inactive)
REMARK    1  A    between atoms: C_1  and  C_2
REMARK    2  A    between atoms: C_7  and  C_8
REMARK    3  A    between atoms: C_8  and  N_9
REMARK    4  A    between atoms: C_10  and  C_11
REMARK    5  A    between atoms: C_13  and  C_14
REMARK    6  A    between atoms: C_15  and  O_16
REMARK    7  A    between atoms: C_17  and  C_18
REMARK                            x       y       z     vdW  Elec       q    Type
REMARK                         _______ _______ _______ _____ _____    ______ ____
ROOT
ATOM      1  N   UNL     1       2.951   4.838  18.879  0.00  0.00    +0.000 N 
ATOM      2  C   UNL     1       4.204   4.298  18.596  0.00  0.00    +0.000 A 
ATOM      3  N   UNL     1       4.432   3.275  19.411  0.00  0.00    +0.000 NA
ATOM      4  C   UNL     1       3.307   3.114  20.177  0.00  0.00    +0.000 A 
ATOM      5  C   UNL     1       3.045   2.185  21.199  0.00  0.00    +0.000 A 
ATOM      6  C   UNL     1       1.787   2.203  21.827  0.00  0.00    +0.000 A 
ATOM      7  C   UNL     1       0.802   3.091  21.411  0.00  0.00    +0.000 A 
ATOM      8  C   UNL     1       1.045   3.999  20.376  0.00  0.00    +0.000 A 
ATOM      9  C   UNL     1       2.326   4.024  19.809  0.00  0.00    +0.000 A 
ENDROOT
BRANCH   2  10
ATOM     10  C   UNL     1       5.149   4.713  17.541  0.00  0.00    +0.000 A 
ATOM     11  C   UNL     1       5.217   4.095  16.291  0.00  0.00    +0.000 A 
ATOM     12  C   UNL     1       6.145   4.449  15.303  0.00  0.00    +0.000 A 
ATOM     13  C   UNL     1       6.154   3.660  14.025  0.00  0.00    +0.000 C 
ATOM     14  C   UNL     1       7.010   5.512  15.564  0.00  0.00    +0.000 A 
ATOM     15  C   UNL     1       6.948   6.200  16.782  0.00  0.00    +0.000 A 
ATOM     16  C   UNL     1       7.839   7.375  17.078  0.00  0.00    +0.000 C 
ATOM     17  C   UNL     1       6.018   5.790  17.761  0.00  0.00    +0.000 A 
BRANCH  14  18
ATOM     18  O   UNL     1       7.932   5.913  14.640  0.00  0.00    +0.000 OA
ATOM     19  H   UNL     1       7.523   5.949  13.763  0.00  0.00    +0.000 HD
ENDBRANCH  14  18
ENDBRANCH   2  10
BRANCH   1  20
ATOM     20  C   UNL     1       2.327   6.015  18.289  0.00  0.00    +0.000 C 
BRANCH  20  27
ATOM     21  C   UNL     1      -0.534  11.291  18.579  0.00  0.00    +0.000 C 
ATOM     22  C   UNL     1      -0.143  10.274  19.614  0.00  0.00    +0.000 C 
ATOM     23  O   UNL     1      -0.558  10.389  20.768  0.00  0.00    +0.000 OA
ATOM     24  N   UNL     1       0.671   9.226  19.212  0.00  0.00    +0.000 N 
ATOM     25  C   UNL     1       0.918   8.164  20.177  0.00  0.00    +0.000 C 
ATOM     26  C   UNL     1       2.385   7.782  20.193  0.00  0.00    +0.000 C 
ATOM     27  C   UNL     1       2.878   7.374  18.803  0.00  0.00    +0.000 C 
ATOM     28  C   UNL     1       2.572   8.510  17.803  0.00  0.00    +0.000 C 
ATOM     29  C   UNL     1       1.106   8.954  17.840  0.00  0.00    +0.000 C 
ENDBRANCH  20  27
ENDBRANCH   1  20
TORSDOF 4
ENDMDL
MODEL 2
REMARK VINA RESULT:      -7.8      0.080      1.639
REMARK  Name = 
REMARK  7 active torsions:
REMARK  status: ('A' for Active; 'I' for Inactive)
REMARK    1  A    between atoms: C_1  and  C_2
REMARK    2  A    between atoms: C_7  and  C_8
REMARK    3  A    between atoms: C_8  and  N_9
REMARK    4  A    between atoms: C_10  and  C_11
REMARK    5  A    between atoms: C_13  and  C_14
REMARK    6  A    between atoms: C_15  and  O_16
REMARK    7  A    between atoms: C_17  and  C_18
REMARK                            x       y       z     vdW  Elec       q    Type
REMARK                         _______ _______ _______ _____ _____    ______ ____
ROOT
ATOM      1  N   UNL     1       2.962   4.877  18.879  0.00  0.00    +0.000 N 
ATOM      2  C   UNL     1       4.230   4.347  18.649  0.00  0.00    +0.000 A 
ATOM      3  N   UNL     1       4.435   3.332  19.481  0.00  0.00    +0.000 NA
ATOM      4  C   UNL     1       3.282   3.166  20.203  0.00  0.00    +0.000 A 
ATOM      5  C   UNL     1       2.988   2.242  21.221  0.00  0.00    +0.000 A 
ATOM      6  C   UNL     1       1.707   2.252  21.799  0.00  0.00    +0.000 A 
ATOM      7  C   UNL     1       0.730   3.128  21.338  0.00  0.00    +0.000 A 
ATOM      8  C   UNL     1       1.006   4.031  20.306  0.00  0.00    +0.000 A 
ATOM      9  C   UNL     1       2.308   4.064  19.790  0.00  0.00    +0.000 A 
ENDROOT
BRANCH   2  10
ATOM     10  C   UNL     1       5.212   4.764  17.629  0.00  0.00    +0.000 A 
ATOM     11  C   UNL     1       6.119   5.808  17.826  0.00  0.00    +0.000 A 
ATOM     12  C   UNL     1       7.019   6.244  16.845  0.00  0.00    +0.000 A 
ATOM     13  C   UNL     1       7.896   7.421  17.163  0.00  0.00    +0.000 C 
ATOM     14  C   UNL     1       7.048   5.562  15.629  0.00  0.00    +0.000 A 
ATOM     15  C   UNL     1       6.195   4.473  15.400  0.00  0.00    +0.000 A 
ATOM     16  C   UNL     1       6.229   3.693  14.115  0.00  0.00    +0.000 C 
ATOM     17  C   UNL     1       5.283   4.088  16.404  0.00  0.00    +0.000 A 
BRANCH  14  18
ATOM     18  O   UNL     1       7.907   5.930  14.634  0.00  0.00    +0.000 OA
ATOM     19  H   UNL     1       8.044   5.185  14.029  0.00  0.00    +0.000 HD
ENDBRANCH  14  18
ENDBRANCH   2  10
BRANCH   1  20
ATOM     20  C   UNL     1       2.350   6.044  18.256  0.00  0.00    +0.000 C 
BRANCH  20  27
ATOM     21  C   UNL     1      -0.582  11.279  18.580  0.00  0.00    +0.000 C 
ATOM     22  C   UNL     1      -0.161  10.270  19.611  0.00  0.00    +0.000 C 
ATOM     23  O   UNL     1      -0.561  10.379  20.770  0.00  0.00    +0.000 OA
ATOM     24  N   UNL     1       0.662   9.232  19.199  0.00  0.00    +0.000 N 
ATOM     25  C   UNL     1       0.938   8.175  20.162  0.00  0.00    +0.000 C 
ATOM     26  C   UNL     1       2.410   7.815  20.157  0.00  0.00    +0.000 C 
ATOM     27  C   UNL     1       2.890   7.411  18.761  0.00  0.00    +0.000 C 
ATOM     28  C   UNL     1       2.553   8.542  17.764  0.00  0.00    +0.000 C 
ATOM     29  C   UNL     1       1.082   8.965  17.821  0.00  0.00    +0.000 C 
ENDBRANCH  20  27
ENDBRANCH   1  20
TORSDOF 4
ENDMDL
MODEL 3
REMARK VINA RESULT:      -6.9      4.161     10.815
REMARK  Name = 
REMARK  7 active torsions:
REMARK  status: ('A' for Active; 'I' for Inactive)
REMARK    1  A    between atoms: C_1  and  C_2
REMARK    2  A    between atoms: C_7  and  C_8
REMARK    3  A    between atoms: C_8  and  N_9
REMARK    4  A    between atoms: C_10  and  C_11
REMARK    5  A    between atoms: C_13  and  C_14
REMARK    6  A    between atoms: C_15  and  O_16
REMARK    7  A    between atoms: C_17  and  C_18
REMARK                            x       y       z     vdW  Elec       q    Type
REMARK                         _______ _______ _______ _____ _____    ______ ____
ROOT
ATOM      1  N   UNL     1      -0.024  12.872  20.684  0.00  0.00    +0.000 N 
ATOM      2  C   UNL     1      -1.204  13.609  20.623  0.00  0.00    +0.000 A 
ATOM      3  N   UNL     1      -0.976  14.745  19.974  0.00  0.00    +0.000 NA
ATOM      4  C   UNL     1       0.331  14.717  19.563  0.00  0.00    +0.000 A 
ATOM      5  C   UNL     1       1.068  15.681  18.854  0.00  0.00    +0.000 A 
ATOM      6  C   UNL     1       2.406  15.404  18.520  0.00  0.00    +0.000 A 
ATOM      7  C   UNL     1       2.975  14.178  18.842  0.00  0.00    +0.000 A 
ATOM      8  C   UNL     1       2.240  13.202  19.523  0.00  0.00    +0.000 A 
ATOM      9  C   UNL     1       0.933  13.518  19.916  0.00  0.00    +0.000 A 
ENDROOT
BRANCH   2  10
ATOM     10  C   UNL     1      -2.536  13.224  21.130  0.00  0.00    +0.000 A 
ATOM     11  C   UNL     1      -3.615  12.931  20.293  0.00  0.00    +0.000 A 
ATOM     12  C   UNL     1      -4.895  12.615  20.765  0.00  0.00    +0.000 A 
ATOM     13  C   UNL     1      -5.984  12.383  19.757  0.00  0.00    +0.000 C 
ATOM     14  C   UNL     1      -5.087  12.536  22.144  0.00  0.00    +0.000 A 
ATOM     15  C   UNL     1      -4.024  12.770  23.028  0.00  0.00    +0.000 A 
ATOM     16  C   UNL     1      -4.188  12.655  24.518  0.00  0.00    +0.000 C 
ATOM     17  C   UNL     1      -2.758  13.116  22.509  0.00  0.00    +0.000 A 
BRANCH  14  18
ATOM     18  O   UNL     1      -6.308  12.224  22.671  0.00  0.00    +0.000 OA
ATOM     19  H   UNL     1      -6.727  11.535  22.136  0.00  0.00    +0.000 HD
ENDBRANCH  14  18
ENDBRANCH   2  10
BRANCH   1  20
ATOM     20  C   UNL     1       0.211  11.606  21.366  0.00  0.00    +0.000 C 
BRANCH  20  27
ATOM     21  C   UNL     1       2.681   7.332  17.939  0.00  0.00    +0.000 C 
ATOM     22  C   UNL     1       2.211   7.363  19.366  0.00  0.00    +0.000 C 
ATOM     23  O   UNL     1       2.455   6.411  20.108  0.00  0.00    +0.000 OA
ATOM     24  N   UNL     1       1.526   8.490  19.795  0.00  0.00    +0.000 N 
ATOM     25  C   UNL     1       1.212   8.582  21.214  0.00  0.00    +0.000 C 
ATOM     26  C   UNL     1      -0.218   9.043  21.419  0.00  0.00    +0.000 C 
ATOM     27  C   UNL     1      -0.488  10.377  20.719  0.00  0.00    +0.000 C 
ATOM     28  C   UNL     1      -0.115  10.250  19.227  0.00  0.00    +0.000 C 
ATOM     29  C   UNL     1       1.302   9.708  19.012  0.00  0.00    +0.000 C 
ENDBRANCH  20  27
ENDBRANCH   1  20
TORSDOF 4
ENDMDL
MODEL 4
REMARK VINA RESULT:      -6.9      4.170     10.889
REMARK  Name = 
REMARK  7 active torsions:
REMARK  status: ('A' for Active; 'I' for Inactive)
REMARK    1  A    between atoms: C_1  and  C_2
REMARK    2  A    between atoms: C_7  and  C_8
REMARK    3  A    between atoms: C_8  and  N_9
REMARK    4  A    between atoms: C_10  and  C_11
REMARK    5  A    between atoms: C_13  and  C_14
REMARK    6  A    between atoms: C_15  and  O_16
REMARK    7  A    between atoms: C_17  and  C_18
REMARK                            x       y       z     vdW  Elec       q    Type
REMARK                         _______ _______ _______ _____ _____    ______ ____
ROOT
ATOM      1  N   UNL     1       0.000  12.876  20.672  0.00  0.00    +0.000 N 
ATOM      2  C   UNL     1      -1.169  13.632  20.614  0.00  0.00    +0.000 A 
ATOM      3  N   UNL     1      -0.929  14.755  19.949  0.00  0.00    +0.000 NA
ATOM      4  C   UNL     1       0.372  14.701  19.524  0.00  0.00    +0.000 A 
ATOM      5  C   UNL     1       1.117  15.645  18.795  0.00  0.00    +0.000 A 
ATOM      6  C   UNL     1       2.447  15.342  18.452  0.00  0.00    +0.000 A 
ATOM      7  C   UNL     1       3.000  14.111  18.784  0.00  0.00    +0.000 A 
ATOM      8  C   UNL     1       2.256  13.155  19.484  0.00  0.00    +0.000 A 
ATOM      9  C   UNL     1       0.959  13.497  19.887  0.00  0.00    +0.000 A 
ENDROOT
BRANCH   2  10
ATOM     10  C   UNL     1      -2.502  13.275  21.139  0.00  0.00    +0.000 A 
ATOM     11  C   UNL     1      -2.783  13.180  22.504  0.00  0.00    +0.000 A 
ATOM     12  C   UNL     1      -4.030  12.792  23.010  0.00  0.00    +0.000 A 
ATOM     13  C   UNL     1      -4.181  12.667  24.499  0.00  0.00    +0.000 C 
ATOM     14  C   UNL     1      -5.059  12.541  22.103  0.00  0.00    +0.000 A 
ATOM     15  C   UNL     1      -4.844  12.673  20.724  0.00  0.00    +0.000 A 
ATOM     16  C   UNL     1      -5.943  12.448  19.723  0.00  0.00    +0.000 C 
ATOM     17  C   UNL     1      -3.563  13.036  20.257  0.00  0.00    +0.000 A 
BRANCH  14  18
ATOM     18  O   UNL     1      -6.301  12.168  22.530  0.00  0.00    +0.000 OA
ATOM     19  H   UNL     1      -6.855  11.941  21.767  0.00  0.00    +0.000 HD
ENDBRANCH  14  18
ENDBRANCH   2  10
BRANCH   1  20
ATOM     20  C   UNL     1       0.221  11.615  21.367  0.00  0.00    +0.000 C 
BRANCH  20  27
ATOM     21  C   UNL     1       2.657   7.348  17.909  0.00  0.00    +0.000 C 
ATOM     22  C   UNL     1       2.206   7.378  19.341  0.00  0.00    +0.000 C 
ATOM     23  O   UNL     1       2.460   6.426  20.080  0.00  0.00    +0.000 OA
ATOM     24  N   UNL     1       1.523   8.503  19.779  0.00  0.00    +0.000 N 
ATOM     25  C   UNL     1       1.226   8.593  21.201  0.00  0.00    +0.000 C 
ATOM     26  C   UNL     1      -0.201   9.051  21.425  0.00  0.00    +0.000 C 
ATOM     27  C   UNL     1      -0.483  10.385  20.729  0.00  0.00    +0.000 C 
ATOM     28  C   UNL     1      -0.128  10.260  19.232  0.00  0.00    +0.000 C 
ATOM     29  C   UNL     1       1.287   9.721  19.000  0.00  0.00    +0.000 C 
ENDBRANCH  20  27
ENDBRANCH   1  20
TORSDOF 4
ENDMDL
MODEL 5
REMARK VINA RESULT:      -6.8      2.483      5.539
REMARK  Name = 
REMARK  7 active torsions:
REMARK  status: ('A' for Active; 'I' for Inactive)
REMARK    1  A    between atoms: C_1  and  C_2
REMARK    2  A    between atoms: C_7  and  C_8
REMARK    3  A    between atoms: C_8  and  N_9
REMARK    4  A    between atoms: C_10  and  C_11
REMARK    5  A    between atoms: C_13  and  C_14
REMARK    6  A    between atoms: C_15  and  O_16
REMARK    7  A    between atoms: C_17  and  C_18
REMARK                            x       y       z     vdW  Elec       q    Type
REMARK                         _______ _______ _______ _____ _____    ______ ____
ROOT
ATOM      1  N   UNL     1       2.568   7.351  19.258  0.00  0.00    +0.000 N 
ATOM      2  C   UNL     1       3.275   7.506  18.068  0.00  0.00    +0.000 A 
ATOM      3  N   UNL     1       2.741   8.501  17.370  0.00  0.00    +0.000 NA
ATOM      4  C   UNL     1       1.732   9.029  18.131  0.00  0.00    +0.000 A 
ATOM      5  C   UNL     1       0.850  10.085  17.841  0.00  0.00    +0.000 A 
ATOM      6  C   UNL     1      -0.097  10.464  18.809  0.00  0.00    +0.000 A 
ATOM      7  C   UNL     1      -0.128   9.839  20.051  0.00  0.00    +0.000 A 
ATOM      8  C   UNL     1       0.764   8.807  20.357  0.00  0.00    +0.000 A 
ATOM      9  C   UNL     1       1.652   8.387  19.358  0.00  0.00    +0.000 A 
ENDROOT
BRANCH   2  10
ATOM     10  C   UNL     1       4.465   6.755  17.620  0.00  0.00    +0.000 A 
ATOM     11  C   UNL     1       4.584   6.206  16.342  0.00  0.00    +0.000 A 
ATOM     12  C   UNL     1       5.686   5.449  15.926  0.00  0.00    +0.000 A 
ATOM     13  C   UNL     1       5.660   4.861  14.544  0.00  0.00    +0.000 C 
ATOM     14  C   UNL     1       6.745   5.282  16.819  0.00  0.00    +0.000 A 
ATOM     15  C   UNL     1       6.699   5.857  18.096  0.00  0.00    +0.000 A 
ATOM     16  C   UNL     1       7.839   5.730  19.068  0.00  0.00    +0.000 C 
ATOM     17  C   UNL     1       5.555   6.586  18.484  0.00  0.00    +0.000 A 
BRANCH  14  18
ATOM     18  O   UNL     1       7.853   4.563  16.474  0.00  0.00    +0.000 OA
ATOM     19  H   UNL     1       7.879   3.739  16.982  0.00  0.00    +0.000 HD
ENDBRANCH  14  18
ENDBRANCH   2  10
BRANCH   1  20
ATOM     20  C   UNL     1       2.752   6.336  20.287  0.00  0.00    +0.000 C 
BRANCH  20  27
ATOM     21  C   UNL     1       3.853   1.200  17.370  0.00  0.00    +0.000 C 
ATOM     22  C   UNL     1       3.829   1.571  18.825  0.00  0.00    +0.000 C 
ATOM     23  O   UNL     1       4.227   0.765  19.667  0.00  0.00    +0.000 OA
ATOM     24  N   UNL     1       3.366   2.834  19.161  0.00  0.00    +0.000 N 
ATOM     25  C   UNL     1       3.491   3.245  20.552  0.00  0.00    +0.000 C 
ATOM     26  C   UNL     1       2.215   3.906  21.035  0.00  0.00    +0.000 C 
ATOM     27  C   UNL     1       1.826   5.096  20.154  0.00  0.00    +0.000 C 
ATOM     28  C   UNL     1       1.733   4.629  18.685  0.00  0.00    +0.000 C 
ATOM     29  C   UNL     1       2.990   3.890  18.216  0.00  0.00    +0.000 C 
ENDBRANCH  20  27
ENDBRANCH   1  20
TORSDOF 4
ENDMDL
MODEL 6
REMARK VINA RESULT:      -6.8      2.480      5.717
REMARK  Name = 
REMARK  7 active torsions:
REMARK  status: ('A' for Active; 'I' for Inactive)
REMARK    1  A    between atoms: C_1  and  C_2
REMARK    2  A    between atoms: C_7  and  C_8
REMARK    3  A    between atoms: C_8  and  N_9
REMARK    4  A    between atoms: C_10  and  C_11
REMARK    5  A    between atoms: C_13  and  C_14
REMARK    6  A    between atoms: C_15  and  O_16
REMARK    7  A    between atoms: C_17  and  C_18
REMARK                            x       y       z     vdW  Elec       q    Type
REMARK                         _______ _______ _______ _____ _____    ______ ____
ROOT
ATOM      1  N   UNL     1       2.559   7.321  19.307  0.00  0.00    +0.000 N 
ATOM      2  C   UNL     1       3.278   7.477  18.124  0.00  0.00    +0.000 A 
ATOM      3  N   UNL     1       2.750   8.472  17.421  0.00  0.00    +0.000 NA
ATOM      4  C   UNL     1       1.733   8.999  18.172  0.00  0.00    +0.000 A 
ATOM      5  C   UNL     1       0.853  10.055  17.875  0.00  0.00    +0.000 A 
ATOM      6  C   UNL     1      -0.103  10.433  18.834  0.00  0.00    +0.000 A 
ATOM      7  C   UNL     1      -0.146   9.808  20.074  0.00  0.00    +0.000 A 
ATOM      8  C   UNL     1       0.744   8.775  20.389  0.00  0.00    +0.000 A 
ATOM      9  C   UNL     1       1.642   8.356  19.399  0.00  0.00    +0.000 A 
ENDROOT
BRANCH   2  10
ATOM     10  C   UNL     1       4.473   6.727  17.688  0.00  0.00    +0.000 A 
ATOM     11  C   UNL     1       5.571   6.492  18.518  0.00  0.00    +0.000 A 
ATOM     12  C   UNL     1       6.729   5.827  18.096  0.00  0.00    +0.000 A 
ATOM     13  C   UNL     1       7.864   5.697  19.071  0.00  0.00    +0.000 C 
ATOM     14  C   UNL     1       6.763   5.325  16.796  0.00  0.00    +0.000 A 
ATOM     15  C   UNL     1       5.666   5.487  15.938  0.00  0.00    +0.000 A 
ATOM     16  C   UNL     1       5.656   4.923  14.545  0.00  0.00    +0.000 C 
ATOM     17  C   UNL     1       4.532   6.191  16.395  0.00  0.00    +0.000 A 
BRANCH  14  18
ATOM     18  O   UNL     1       7.858   4.658  16.325  0.00  0.00    +0.000 OA
ATOM     19  H   UNL     1       8.326   5.212  15.682  0.00  0.00    +0.000 HD
ENDBRANCH  14  18
ENDBRANCH   2  10
BRANCH   1  20
ATOM     20  C   UNL     1       2.734   6.306  20.337  0.00  0.00    +0.000 C 
BRANCH  20  27
ATOM     21  C   UNL     1       3.834   1.205  17.357  0.00  0.00    +0.000 C 
ATOM     22  C   UNL     1       3.815   1.560  18.817  0.00  0.00    +0.000 C 
ATOM     23  O   UNL     1       4.218   0.745  19.648  0.00  0.00    +0.000 OA
ATOM     24  N   UNL     1       3.350   2.818  19.168  0.00  0.00    +0.000 N 
ATOM     25  C   UNL     1       3.481   3.214  20.564  0.00  0.00    +0.000 C 
ATOM     26  C   UNL     1       2.206   3.866  21.060  0.00  0.00    +0.000 C 
ATOM     27  C   UNL     1       1.810   5.064  20.194  0.00  0.00    +0.000 C 
ATOM     28  C   UNL     1       1.712   4.614  18.721  0.00  0.00    +0.000 C 
ATOM     29  C   UNL     1       2.968   3.883  18.238  0.00  0.00    +0.000 C 
ENDBRANCH  20  27
ENDBRANCH   1  20
TORSDOF 4
ENDMDL
MODEL 7
REMARK VINA RESULT:      -6.5      8.058     11.536
REMARK  Name = 
REMARK  7 active torsions:
REMARK  status: ('A' for Active; 'I' for Inactive)
REMARK    1  A    between atoms: C_1  and  C_2
REMARK    2  A    between atoms: C_7  and  C_8
REMARK    3  A    between atoms: C_8  and  N_9
REMARK    4  A    between atoms: C_10  and  C_11
REMARK    5  A    between atoms: C_13  and  C_14
REMARK    6  A    between atoms: C_15  and  O_16
REMARK    7  A    between atoms: C_17  and  C_18
REMARK                            x       y       z     vdW  Elec       q    Type
REMARK                         _______ _______ _______ _____ _____    ______ ____
ROOT
ATOM      1  N   UNL     1      -2.392  12.059  19.627  0.00  0.00    +0.000 N 
ATOM      2  C   UNL     1      -3.657  12.535  19.966  0.00  0.00    +0.000 A 
ATOM      3  N   UNL     1      -4.516  12.209  19.008  0.00  0.00    +0.000 NA
ATOM      4  C   UNL     1      -3.825  11.473  18.082  0.00  0.00    +0.000 A 
ATOM      5  C   UNL     1      -4.270  10.906  16.875  0.00  0.00    +0.000 A 
ATOM      6  C   UNL     1      -3.364  10.160  16.100  0.00  0.00    +0.000 A 
ATOM      7  C   UNL     1      -2.064   9.946  16.543  0.00  0.00    +0.000 A 
ATOM      8  C   UNL     1      -1.622  10.483  17.756  0.00  0.00    +0.000 A 
ATOM      9  C   UNL     1      -2.509  11.287  18.482  0.00  0.00    +0.000 A 
ENDROOT
BRANCH   2  10
ATOM     10  C   UNL     1      -4.054  13.245  21.198  0.00  0.00    +0.000 A 
ATOM     11  C   UNL     1      -4.070  12.639  22.456  0.00  0.00    +0.000 A 
ATOM     12  C   UNL     1      -4.495  13.289  23.621  0.00  0.00    +0.000 A 
ATOM     13  C   UNL     1      -4.524  12.502  24.900  0.00  0.00    +0.000 C 
ATOM     14  C   UNL     1      -4.868  14.630  23.528  0.00  0.00    +0.000 A 
ATOM     15  C   UNL     1      -4.820  15.301  22.298  0.00  0.00    +0.000 A 
ATOM     16  C   UNL     1      -5.177  16.755  22.171  0.00  0.00    +0.000 C 
ATOM     17  C   UNL     1      -4.415  14.597  21.144  0.00  0.00    +0.000 A 
BRANCH  14  18
ATOM     18  O   UNL     1      -5.283  15.326  24.627  0.00  0.00    +0.000 OA
ATOM     19  H   UNL     1      -6.099  14.935  24.972  0.00  0.00    +0.000 HD
ENDBRANCH  14  18
ENDBRANCH   2  10
BRANCH   1  20
ATOM     20  C   UNL     1      -1.137  12.254  20.343  0.00  0.00    +0.000 C 
BRANCH  20  27
ATOM     21  C   UNL     1       4.324  14.734  19.984  0.00  0.00    +0.000 C 
ATOM     22  C   UNL     1       3.118  14.769  19.090  0.00  0.00    +0.000 C 
ATOM     23  O   UNL     1       3.203  15.276  17.970  0.00  0.00    +0.000 OA
ATOM     24  N   UNL     1       1.944  14.207  19.568  0.00  0.00    +0.000 N 
ATOM     25  C   UNL     1       0.825  14.104  18.642  0.00  0.00    +0.000 C 
ATOM     26  C   UNL     1      -0.465  14.541  19.306  0.00  0.00    +0.000 C 
ATOM     27  C   UNL     1      -0.745  13.739  20.580  0.00  0.00    +0.000 C 
ATOM     28  C   UNL     1       0.473  13.846  21.522  0.00  0.00    +0.000 C 
ATOM     29  C   UNL     1       1.792  13.483  20.833  0.00  0.00    +0.000 C 
ENDBRANCH  20  27
ENDBRANCH   1  20
TORSDOF 4
ENDMDL
MODEL 8
REMARK VINA RESULT:      -6.4      8.070     11.199
REMARK  Name = 
REMARK  7 active torsions:
REMARK  status: ('A' for Active; 'I' for Inactive)
REMARK    1  A    between atoms: C_1  and  C_2
REMARK    2  A    between atoms: C_7  and  C_8
REMARK    3  A    between atoms: C_8  and  N_9
REMARK    4  A    between atoms: C_10  and  C_11
REMARK    5  A    between atoms: C_13  and  C_14
REMARK    6  A    between atoms: C_15  and  O_16
REMARK    7  A    between atoms: C_17  and  C_18
REMARK                            x       y       z     vdW  Elec       q    Type
REMARK                         _______ _______ _______ _____ _____    ______ ____
ROOT
ATOM      1  N   UNL     1      -2.021  11.952  19.551  0.00  0.00    +0.000 N 
ATOM      2  C   UNL     1      -3.162  12.517  20.117  0.00  0.00    +0.000 A 
ATOM      3  N   UNL     1      -4.194  12.322  19.305  0.00  0.00    +0.000 NA
ATOM      4  C   UNL     1      -3.739  11.579  18.248  0.00  0.00    +0.000 A 
ATOM      5  C   UNL     1      -4.428  11.121  17.112  0.00  0.00    +0.000 A 
ATOM      6  C   UNL     1      -3.738  10.342  16.166  0.00  0.00    +0.000 A 
ATOM      7  C   UNL     1      -2.409   9.991  16.374  0.00  0.00    +0.000 A 
ATOM      8  C   UNL     1      -1.724  10.420  17.515  0.00  0.00    +0.000 A 
ATOM      9  C   UNL     1      -2.399  11.257  18.413  0.00  0.00    +0.000 A 
ENDROOT
BRANCH   2  10
ATOM     10  C   UNL     1      -3.282  13.191  21.425  0.00  0.00    +0.000 A 
ATOM     11  C   UNL     1      -2.862  14.504  21.648  0.00  0.00    +0.000 A 
ATOM     12  C   UNL     1      -2.924  15.133  22.898  0.00  0.00    +0.000 A 
ATOM     13  C   UNL     1      -2.380  16.528  23.016  0.00  0.00    +0.000 C 
ATOM     14  C   UNL     1      -3.487  14.428  23.962  0.00  0.00    +0.000 A 
ATOM     15  C   UNL     1      -3.971  13.126  23.779  0.00  0.00    +0.000 A 
ATOM     16  C   UNL     1      -4.618  12.354  24.896  0.00  0.00    +0.000 C 
ATOM     17  C   UNL     1      -3.860  12.520  22.510  0.00  0.00    +0.000 A 
BRANCH  14  18
ATOM     18  O   UNL     1      -3.586  14.986  25.204  0.00  0.00    +0.000 OA
ATOM     19  H   UNL     1      -3.422  14.311  25.879  0.00  0.00    +0.000 HD
ENDBRANCH  14  18
ENDBRANCH   2  10
BRANCH   1  20
ATOM     20  C   UNL     1      -0.654  11.996  20.051  0.00  0.00    +0.000 C 
BRANCH  20  27
ATOM     21  C   UNL     1       1.781  17.485  20.278  0.00  0.00    +0.000 C 
ATOM     22  C   UNL     1       2.305  16.113  20.597  0.00  0.00    +0.000 C 
ATOM     23  O   UNL     1       3.401  15.992  21.145  0.00  0.00    +0.000 OA
ATOM     24  N   UNL     1       1.509  15.027  20.267  0.00  0.00    +0.000 N 
ATOM     25  C   UNL     1       1.949  13.714  20.719  0.00  0.00    +0.000 C 
ATOM     26  C   UNL     1       1.812  12.690  19.609  0.00  0.00    +0.000 C 
ATOM     27  C   UNL     1       0.379  12.624  19.074  0.00  0.00    +0.000 C 
ATOM     28  C   UNL     1      -0.062  14.037  18.635  0.00  0.00    +0.000 C 
ATOM     29  C   UNL     1       0.149  15.092  19.726  0.00  0.00    +0.000 C 
ENDBRANCH  20  27
ENDBRANCH   1  20
TORSDOF 4
ENDMDL
MODEL 9
REMARK VINA RESULT:      -6.4      1.809      6.600
REMARK  Name = 
REMARK  7 active torsions:
REMARK  status: ('A' for Active; 'I' for Inactive)
REMARK    1  A    between atoms: C_1  and  C_2
REMARK    2  A    between atoms: C_7  and  C_8
REMARK    3  A    between atoms: C_8  and  N_9
REMARK    4  A    between atoms: C_10  and  C_11
REMARK    5  A    between atoms: C_13  and  C_14
REMARK    6  A    between atoms: C_15  and  O_16
REMARK    7  A    between atoms: C_17  and  C_18
REMARK                            x       y       z     vdW  Elec       q    Type
REMARK                         _______ _______ _______ _____ _____    ______ ____
ROOT
ATOM      1  N   UNL     1       3.564   5.360  19.349  0.00  0.00    +0.000 N 
ATOM      2  C   UNL     1       2.289   5.840  19.643  0.00  0.00    +0.000 A 
ATOM      3  N   UNL     1       1.441   4.820  19.694  0.00  0.00    +0.000 NA
ATOM      4  C   UNL     1       2.172   3.678  19.494  0.00  0.00    +0.000 A 
ATOM      5  C   UNL     1       1.746   2.340  19.439  0.00  0.00    +0.000 A 
ATOM      6  C   UNL     1       2.705   1.329  19.248  0.00  0.00    +0.000 A 
ATOM      7  C   UNL     1       4.056   1.644  19.164  0.00  0.00    +0.000 A 
ATOM      8  C   UNL     1       4.491   2.971  19.246  0.00  0.00    +0.000 A 
ATOM      9  C   UNL     1       3.521   3.975  19.361  0.00  0.00    +0.000 A 
ENDROOT
BRANCH   2  10
ATOM     10  C   UNL     1       1.890   7.234  19.918  0.00  0.00    +0.000 A 
ATOM     11  C   UNL     1       1.443   7.668  21.167  0.00  0.00    +0.000 A 
ATOM     12  C   UNL     1       1.014   8.976  21.423  0.00  0.00    +0.000 A 
ATOM     13  C   UNL     1       0.496   9.295  22.796  0.00  0.00    +0.000 C 
ATOM     14  C   UNL     1       1.091   9.908  20.388  0.00  0.00    +0.000 A 
ATOM     15  C   UNL     1       1.582   9.537  19.129  0.00  0.00    +0.000 A 
ATOM     16  C   UNL     1       1.714  10.527  18.004  0.00  0.00    +0.000 C 
ATOM     17  C   UNL     1       1.974   8.200  18.907  0.00  0.00    +0.000 A 
BRANCH  14  18
ATOM     18  O   UNL     1       0.697  11.202  20.573  0.00  0.00    +0.000 OA
ATOM     19  H   UNL     1       1.429  11.715  20.947  0.00  0.00    +0.000 HD
ENDBRANCH  14  18
ENDBRANCH   2  10
BRANCH   1  20
ATOM     20  C   UNL     1       4.781   6.127  19.120  0.00  0.00    +0.000 C 
BRANCH  20  27
ATOM     21  C   UNL     1       7.808   4.791  14.104  0.00  0.00    +0.000 C 
ATOM     22  C   UNL     1       6.358   4.695  14.487  0.00  0.00    +0.000 C 
ATOM     23  O   UNL     1       5.567   4.120  13.739  0.00  0.00    +0.000 OA
ATOM     24  N   UNL     1       5.972   5.256  15.695  0.00  0.00    +0.000 N 
ATOM     25  C   UNL     1       4.603   5.024  16.133  0.00  0.00    +0.000 C 
ATOM     26  C   UNL     1       3.981   6.305  16.653  0.00  0.00    +0.000 C 
ATOM     27  C   UNL     1       4.812   6.919  17.783  0.00  0.00    +0.000 C 
ATOM     28  C   UNL     1       6.262   7.121  17.292  0.00  0.00    +0.000 C 
ATOM     29  C   UNL     1       6.868   5.849  16.691  0.00  0.00    +0.000 C 
ENDBRANCH  20  27
ENDBRANCH   1  20
TORSDOF 4
ENDMDL
