MODEL 1
REMARK VINA RESULT:      -7.1      0.000      0.000
REMARK  Name = 
REMARK  5 active torsions:
REMARK  status: ('A' for Active; 'I' for Inactive)
REMARK    1  A    between atoms: C_1  and  C_2
REMARK    2  A    between atoms: C_6  and  C_7
REMARK    3  A    between atoms: N_9  and  C_10
REMARK    4  A    between atoms: C_16  and  C_17
REMARK    5  A    between atoms: C_18  and  C_19
REMARK                            x       y       z     vdW  Elec       q    Type
REMARK                         _______ _______ _______ _____ _____    ______ ____
ROOT
ATOM      1  C   UNL     1       2.403  10.149  17.535  0.00  0.00    +0.000 C 
ATOM      2  C   UNL     1       2.277   8.932  18.414  0.00  0.00    +0.000 A 
ATOM      3  N   UNL     1       3.082   7.935  17.983  0.00  0.00    +0.000 NA
ATOM      4  C   UNL     1       3.064   6.805  18.708  0.00  0.00    +0.000 A 
ATOM      5  C   UNL     1       2.277   6.562  19.828  0.00  0.00    +0.000 A 
ATOM      6  C   UNL     1       2.651   5.243  20.221  0.00  0.00    +0.000 A 
ATOM      7  C   UNL     1       2.238   4.394  21.372  0.00  0.00    +0.000 C 
ATOM      8  N   UNL     1       3.557   4.703  19.403  0.00  0.00    +0.000 NA
ATOM      9  N   UNL     1       3.818   5.655  18.464  0.00  0.00    +0.000 N 
ATOM     10  C   UNL     1       1.385   7.598  20.247  0.00  0.00    +0.000 A 
ATOM     11  C   UNL     1       0.449   7.384  21.411  0.00  0.00    +0.000 C 
ATOM     12  C   UNL     1       1.403   8.851  19.529  0.00  0.00    +0.000 A 
ENDROOT
BRANCH  12  13
ATOM     13  C   UNL     1       0.539  10.017  19.939  0.00  0.00    +0.000 A 
ATOM     14  C   UNL     1       0.938  10.947  20.915  0.00  0.00    +0.000 A 
ATOM     15  C   UNL     1       0.083  11.976  21.300  0.00  0.00    +0.000 A 
ATOM     16  N   UNL     1      -1.109  12.211  20.729  0.00  0.00    +0.000 NA
ATOM     17  C   UNL     1      -1.475  11.352  19.764  0.00  0.00    +0.000 A 
ATOM     18  F   UNL     1      -2.627  11.595  19.125  0.00  0.00    +0.000 F 
ATOM     19  C   UNL     1      -0.727  10.246  19.379  0.00  0.00    +0.000 A 
ENDBRANCH  12  13
BRANCH   9  20
ATOM     20  C   UNL     1       4.758   5.369  17.423  0.00  0.00    +0.000 A 
ATOM     21  C   UNL     1       5.988   6.052  17.406  0.00  0.00    +0.000 A 
ATOM     22  C   UNL     1       6.933   5.790  16.410  0.00  0.00    +0.000 A 
ATOM     23  C   UNL     1       6.664   4.851  15.418  0.00  0.00    +0.000 A 
ATOM     24  C   UNL     1       5.451   4.168  15.425  0.00  0.00    +0.000 A 
ATOM     25  C   UNL     1       4.501   4.420  16.423  0.00  0.00    +0.000 A 
ENDBRANCH   9  20
TORSDOF 2
ENDMDL
MODEL 2
REMARK VINA RESULT:      -7.1      1.801      2.275
REMARK  Name = 
REMARK  5 active torsions:
REMARK  status: ('A' for Active; 'I' for Inactive)
REMARK    1  A    between atoms: C_1  and  C_2
REMARK    2  A    between atoms: C_6  and  C_7
REMARK    3  A    between atoms: N_9  and  C_10
REMARK    4  A    between atoms: C_16  and  C_17
REMARK    5  A    between atoms: C_18  and  C_19
REMARK                            x       y       z     vdW  Elec       q    Type
REMARK                         _______ _______ _______ _____ _____    ______ ____
ROOT
ATOM      1  C   UNL     1       2.851   9.143  17.703  0.00  0.00    +0.000 C 
ATOM      2  C   UNL     1       2.881   7.760  18.298  0.00  0.00    +0.000 A 
ATOM      3  N   UNL     1       3.666   6.934  17.571  0.00  0.00    +0.000 NA
ATOM      4  C   UNL     1       3.780   5.675  18.025  0.00  0.00    +0.000 A 
ATOM      5  C   UNL     1       3.145   5.147  19.142  0.00  0.00    +0.000 A 
ATOM      6  C   UNL     1       3.616   3.800  19.190  0.00  0.00    +0.000 A 
ATOM      7  C   UNL     1       3.379   2.698  20.162  0.00  0.00    +0.000 C 
ATOM      8  N   UNL     1       4.437   3.510  18.178  0.00  0.00    +0.000 NA
ATOM      9  N   UNL     1       4.544   4.656  17.451  0.00  0.00    +0.000 N 
ATOM     10  C   UNL     1       2.270   6.008  19.875  0.00  0.00    +0.000 A 
ATOM     11  C   UNL     1       1.492   5.487  21.059  0.00  0.00    +0.000 C 
ATOM     12  C   UNL     1       2.152   7.384  19.456  0.00  0.00    +0.000 A 
ENDROOT
BRANCH  12  13
ATOM     13  C   UNL     1       1.298   8.376  20.207  0.00  0.00    +0.000 A 
ATOM     14  C   UNL     1       0.363   9.205  19.565  0.00  0.00    +0.000 A 
ATOM     15  C   UNL     1      -0.364  10.144  20.292  0.00  0.00    +0.000 A 
ATOM     16  N   UNL     1      -0.301  10.267  21.628  0.00  0.00    +0.000 NA
ATOM     17  C   UNL     1       0.560   9.444  22.251  0.00  0.00    +0.000 A 
ATOM     18  F   UNL     1       0.599   9.491  23.589  0.00  0.00    +0.000 F 
ATOM     19  C   UNL     1       1.389   8.542  21.597  0.00  0.00    +0.000 A 
ENDBRANCH  12  13
BRANCH   9  20
ATOM     20  C   UNL     1       5.361   4.664  16.275  0.00  0.00    +0.000 A 
ATOM     21  C   UNL     1       6.652   5.221  16.344  0.00  0.00    +0.000 A 
ATOM     22  C   UNL     1       7.480   5.236  15.218  0.00  0.00    +0.000 A 
ATOM     23  C   UNL     1       7.034   4.701  14.012  0.00  0.00    +0.000 A 
ATOM     24  C   UNL     1       5.760   4.145  13.933  0.00  0.00    +0.000 A 
ATOM     25  C   UNL     1       4.926   4.121  15.058  0.00  0.00    +0.000 A 
ENDBRANCH   9  20
TORSDOF 2
ENDMDL
MODEL 3
REMARK VINA RESULT:      -6.9      1.413      2.047
REMARK  Name = 
REMARK  5 active torsions:
REMARK  status: ('A' for Active; 'I' for Inactive)
REMARK    1  A    between atoms: C_1  and  C_2
REMARK    2  A    between atoms: C_6  and  C_7
REMARK    3  A    between atoms: N_9  and  C_10
REMARK    4  A    between atoms: C_16  and  C_17
REMARK    5  A    between atoms: C_18  and  C_19
REMARK                            x       y       z     vdW  Elec       q    Type
REMARK                         _______ _______ _______ _____ _____    ______ ____
ROOT
ATOM      1  C   UNL     1       2.892   9.132  17.713  0.00  0.00    +0.000 C 
ATOM      2  C   UNL     1       2.919   7.747  18.306  0.00  0.00    +0.000 A 
ATOM      3  N   UNL     1       3.708   6.923  17.583  0.00  0.00    +0.000 NA
ATOM      4  C   UNL     1       3.820   5.663  18.035  0.00  0.00    +0.000 A 
ATOM      5  C   UNL     1       3.178   5.132  19.148  0.00  0.00    +0.000 A 
ATOM      6  C   UNL     1       3.649   3.786  19.196  0.00  0.00    +0.000 A 
ATOM      7  C   UNL     1       3.406   2.682  20.165  0.00  0.00    +0.000 C 
ATOM      8  N   UNL     1       4.476   3.498  18.189  0.00  0.00    +0.000 NA
ATOM      9  N   UNL     1       4.588   4.645  17.464  0.00  0.00    +0.000 N 
ATOM     10  C   UNL     1       2.299   5.992  19.877  0.00  0.00    +0.000 A 
ATOM     11  C   UNL     1       1.513   5.469  21.054  0.00  0.00    +0.000 C 
ATOM     12  C   UNL     1       2.183   7.369  19.459  0.00  0.00    +0.000 A 
ENDROOT
BRANCH  12  13
ATOM     13  C   UNL     1       1.324   8.359  20.206  0.00  0.00    +0.000 A 
ATOM     14  C   UNL     1       1.454   8.579  21.588  0.00  0.00    +0.000 A 
ATOM     15  C   UNL     1       0.602   9.463  22.245  0.00  0.00    +0.000 A 
ATOM     16  N   UNL     1      -0.317  10.218  21.621  0.00  0.00    +0.000 NA
ATOM     17  C   UNL     1      -0.413  10.044  20.293  0.00  0.00    +0.000 A 
ATOM     18  F   UNL     1      -1.271  10.830  19.628  0.00  0.00    +0.000 F 
ATOM     19  C   UNL     1       0.332   9.121  19.571  0.00  0.00    +0.000 A 
ENDBRANCH  12  13
BRANCH   9  20
ATOM     20  C   UNL     1       5.413   4.655  16.294  0.00  0.00    +0.000 A 
ATOM     21  C   UNL     1       4.907   4.113  15.097  0.00  0.00    +0.000 A 
ATOM     22  C   UNL     1       5.680   4.115  13.934  0.00  0.00    +0.000 A 
ATOM     23  C   UNL     1       6.966   4.651  13.947  0.00  0.00    +0.000 A 
ATOM     24  C   UNL     1       7.476   5.191  15.124  0.00  0.00    +0.000 A 
ATOM     25  C   UNL     1       6.705   5.198  16.293  0.00  0.00    +0.000 A 
ENDBRANCH   9  20
TORSDOF 2
ENDMDL
MODEL 4
REMARK VINA RESULT:      -6.9      0.889      1.286
REMARK  Name = 
REMARK  5 active torsions:
REMARK  status: ('A' for Active; 'I' for Inactive)
REMARK    1  A    between atoms: C_1  and  C_2
REMARK    2  A    between atoms: C_6  and  C_7
REMARK    3  A    between atoms: N_9  and  C_10
REMARK    4  A    between atoms: C_16  and  C_17
REMARK    5  A    between atoms: C_18  and  C_19
REMARK                            x       y       z     vdW  Elec       q    Type
REMARK                         _______ _______ _______ _____ _____    ______ ____
ROOT
ATOM      1  C   UNL     1       2.325  10.219  17.513  0.00  0.00    +0.000 C 
ATOM      2  C   UNL     1       2.206   9.004  18.397  0.00  0.00    +0.000 A 
ATOM      3  N   UNL     1       3.042   8.024  17.992  0.00  0.00    +0.000 NA
ATOM      4  C   UNL     1       3.032   6.897  18.724  0.00  0.00    +0.000 A 
ATOM      5  C   UNL     1       2.224   6.644  19.826  0.00  0.00    +0.000 A 
ATOM      6  C   UNL     1       2.619   5.336  20.237  0.00  0.00    +0.000 A 
ATOM      7  C   UNL     1       2.197   4.485  21.384  0.00  0.00    +0.000 C 
ATOM      8  N   UNL     1       3.556   4.812  19.445  0.00  0.00    +0.000 NA
ATOM      9  N   UNL     1       3.818   5.763  18.506  0.00  0.00    +0.000 N 
ATOM     10  C   UNL     1       1.300   7.662  20.217  0.00  0.00    +0.000 A 
ATOM     11  C   UNL     1       0.342   7.435  21.360  0.00  0.00    +0.000 C 
ATOM     12  C   UNL     1       1.307   8.911  19.491  0.00  0.00    +0.000 A 
ENDROOT
BRANCH  12  13
ATOM     13  C   UNL     1       0.407  10.060  19.873  0.00  0.00    +0.000 A 
ATOM     14  C   UNL     1      -0.837  10.282  19.257  0.00  0.00    +0.000 A 
ATOM     15  C   UNL     1      -1.608  11.387  19.605  0.00  0.00    +0.000 A 
ATOM     16  N   UNL     1      -1.284  12.248  20.582  0.00  0.00    +0.000 NA
ATOM     17  C   UNL     1      -0.117  12.013  21.205  0.00  0.00    +0.000 A 
ATOM     18  F   UNL     1       0.206  12.811  22.232  0.00  0.00    +0.000 F 
ATOM     19  C   UNL     1       0.757  10.990  20.864  0.00  0.00    +0.000 A 
ENDBRANCH  12  13
BRANCH   9  20
ATOM     20  C   UNL     1       4.788   5.492  17.489  0.00  0.00    +0.000 A 
ATOM     21  C   UNL     1       6.037   6.138  17.547  0.00  0.00    +0.000 A 
ATOM     22  C   UNL     1       7.012   5.889  16.577  0.00  0.00    +0.000 A 
ATOM     23  C   UNL     1       6.754   5.000  15.536  0.00  0.00    +0.000 A 
ATOM     24  C   UNL     1       5.523   4.354  15.469  0.00  0.00    +0.000 A 
ATOM     25  C   UNL     1       4.544   4.593  16.441  0.00  0.00    +0.000 A 
ENDBRANCH   9  20
TORSDOF 2
ENDMDL
MODEL 5
REMARK VINA RESULT:      -6.7      3.112      7.463
REMARK  Name = 
REMARK  5 active torsions:
REMARK  status: ('A' for Active; 'I' for Inactive)
REMARK    1  A    between atoms: C_1  and  C_2
REMARK    2  A    between atoms: C_6  and  C_7
REMARK    3  A    between atoms: N_9  and  C_10
REMARK    4  A    between atoms: C_16  and  C_17
REMARK    5  A    between atoms: C_18  and  C_19
REMARK                            x       y       z     vdW  Elec       q    Type
REMARK                         _______ _______ _______ _____ _____    ______ ____
ROOT
ATOM      1  C   UNL     1       4.533   7.936  16.702  0.00  0.00    +0.000 C 
ATOM      2  C   UNL     1       3.937   6.882  17.600  0.00  0.00    +0.000 A 
ATOM      3  N   UNL     1       3.121   7.435  18.524  0.00  0.00    +0.000 NA
ATOM      4  C   UNL     1       2.519   6.581  19.368  0.00  0.00    +0.000 A 
ATOM      5  C   UNL     1       2.686   5.202  19.394  0.00  0.00    +0.000 A 
ATOM      6  C   UNL     1       1.820   4.779  20.447  0.00  0.00    +0.000 A 
ATOM      7  C   UNL     1       1.474   3.428  20.968  0.00  0.00    +0.000 C 
ATOM      8  N   UNL     1       1.203   5.802  21.042  0.00  0.00    +0.000 NA
ATOM      9  N   UNL     1       1.627   6.919  20.389  0.00  0.00    +0.000 N 
ATOM     10  C   UNL     1       3.594   4.627  18.452  0.00  0.00    +0.000 A 
ATOM     11  C   UNL     1       3.881   3.145  18.464  0.00  0.00    +0.000 C 
ATOM     12  C   UNL     1       4.229   5.498  17.491  0.00  0.00    +0.000 A 
ENDROOT
BRANCH  12  13
ATOM     13  C   UNL     1       5.155   4.968  16.425  0.00  0.00    +0.000 A 
ATOM     14  C   UNL     1       6.533   4.794  16.640  0.00  0.00    +0.000 A 
ATOM     15  C   UNL     1       7.358   4.354  15.608  0.00  0.00    +0.000 A 
ATOM     16  N   UNL     1       6.909   3.986  14.397  0.00  0.00    +0.000 NA
ATOM     17  C   UNL     1       5.586   4.109  14.202  0.00  0.00    +0.000 A 
ATOM     18  F   UNL     1       5.093   3.687  13.029  0.00  0.00    +0.000 F 
ATOM     19  C   UNL     1       4.702   4.623  15.142  0.00  0.00    +0.000 A 
ENDBRANCH  12  13
BRANCH   9  20
ATOM     20  C   UNL     1       1.143   8.200  20.807  0.00  0.00    +0.000 A 
ATOM     21  C   UNL     1       0.907   9.191  19.837  0.00  0.00    +0.000 A 
ATOM     22  C   UNL     1       0.425  10.449  20.210  0.00  0.00    +0.000 A 
ATOM     23  C   UNL     1       0.177  10.736  21.549  0.00  0.00    +0.000 A 
ATOM     24  C   UNL     1       0.404   9.762  22.517  0.00  0.00    +0.000 A 
ATOM     25  C   UNL     1       0.882   8.498  22.152  0.00  0.00    +0.000 A 
ENDBRANCH   9  20
TORSDOF 2
ENDMDL
MODEL 6
REMARK VINA RESULT:      -6.7      4.978      6.431
REMARK  Name = 
REMARK  5 active torsions:
REMARK  status: ('A' for Active; 'I' for Inactive)
REMARK    1  A    between atoms: C_1  and  C_2
REMARK    2  A    between atoms: C_6  and  C_7
REMARK    3  A    between atoms: N_9  and  C_10
REMARK    4  A    between atoms: C_16  and  C_17
REMARK    5  A    between atoms: C_18  and  C_19
REMARK                            x       y       z     vdW  Elec       q    Type
REMARK                         _______ _______ _______ _____ _____    ______ ____
ROOT
ATOM      1  C   UNL     1       2.752   2.511  16.722  0.00  0.00    +0.000 C 
ATOM      2  C   UNL     1       3.818   3.523  17.050  0.00  0.00    +0.000 A 
ATOM      3  N   UNL     1       4.626   3.741  15.989  0.00  0.00    +0.000 NA
ATOM      4  C   UNL     1       5.604   4.645  16.167  0.00  0.00    +0.000 A 
ATOM      5  C   UNL     1       5.874   5.340  17.339  0.00  0.00    +0.000 A 
ATOM      6  C   UNL     1       6.980   6.171  16.989  0.00  0.00    +0.000 A 
ATOM      7  C   UNL     1       7.729   7.205  17.755  0.00  0.00    +0.000 C 
ATOM      8  N   UNL     1       7.382   5.983  15.730  0.00  0.00    +0.000 NA
ATOM      9  N   UNL     1       6.544   5.043  15.213  0.00  0.00    +0.000 N 
ATOM     10  C   UNL     1       5.053   5.064  18.476  0.00  0.00    +0.000 A 
ATOM     11  C   UNL     1       5.327   5.727  19.803  0.00  0.00    +0.000 C 
ATOM     12  C   UNL     1       3.957   4.137  18.323  0.00  0.00    +0.000 A 
ENDROOT
BRANCH  12  13
ATOM     13  C   UNL     1       3.006   3.832  19.453  0.00  0.00    +0.000 A 
ATOM     14  C   UNL     1       1.790   4.516  19.622  0.00  0.00    +0.000 A 
ATOM     15  C   UNL     1       0.969   4.238  20.712  0.00  0.00    +0.000 A 
ATOM     16  N   UNL     1       1.217   3.268  21.606  0.00  0.00    +0.000 NA
ATOM     17  C   UNL     1       2.357   2.581  21.422  0.00  0.00    +0.000 A 
ATOM     18  F   UNL     1       2.603   1.560  22.255  0.00  0.00    +0.000 F 
ATOM     19  C   UNL     1       3.277   2.849  20.417  0.00  0.00    +0.000 A 
ENDBRANCH  12  13
BRANCH   9  20
ATOM     20  C   UNL     1       6.727   4.612  13.860  0.00  0.00    +0.000 A 
ATOM     21  C   UNL     1       5.939   3.556  13.366  0.00  0.00    +0.000 A 
ATOM     22  C   UNL     1       6.085   3.117  12.047  0.00  0.00    +0.000 A 
ATOM     23  C   UNL     1       7.017   3.719  11.207  0.00  0.00    +0.000 A 
ATOM     24  C   UNL     1       7.802   4.766  11.683  0.00  0.00    +0.000 A 
ATOM     25  C   UNL     1       7.657   5.216  13.002  0.00  0.00    +0.000 A 
ENDBRANCH   9  20
TORSDOF 2
ENDMDL
MODEL 7
REMARK VINA RESULT:      -6.7      3.368      6.450
REMARK  Name = 
REMARK  5 active torsions:
REMARK  status: ('A' for Active; 'I' for Inactive)
REMARK    1  A    between atoms: C_1  and  C_2
REMARK    2  A    between atoms: C_6  and  C_7
REMARK    3  A    between atoms: N_9  and  C_10
REMARK    4  A    between atoms: C_16  and  C_17
REMARK    5  A    between atoms: C_18  and  C_19
REMARK                            x       y       z     vdW  Elec       q    Type
REMARK                         _______ _______ _______ _____ _____    ______ ____
ROOT
ATOM      1  C   UNL     1      -3.819   9.657  17.327  0.00  0.00    +0.000 C 
ATOM      2  C   UNL     1      -3.069  10.529  18.300  0.00  0.00    +0.000 A 
ATOM      3  N   UNL     1      -1.809  10.077  18.485  0.00  0.00    +0.000 NA
ATOM      4  C   UNL     1      -1.041  10.794  19.323  0.00  0.00    +0.000 A 
ATOM      5  C   UNL     1      -1.434  11.925  20.029  0.00  0.00    +0.000 A 
ATOM      6  C   UNL     1      -0.256  12.303  20.740  0.00  0.00    +0.000 A 
ATOM      7  C   UNL     1       0.038  13.454  21.637  0.00  0.00    +0.000 C 
ATOM      8  N   UNL     1       0.761  11.466  20.524  0.00  0.00    +0.000 NA
ATOM      9  N   UNL     1       0.290  10.530  19.654  0.00  0.00    +0.000 N 
ATOM     10  C   UNL     1      -2.785  12.366  19.874  0.00  0.00    +0.000 A 
ATOM     11  C   UNL     1      -3.306  13.543  20.660  0.00  0.00    +0.000 C 
ATOM     12  C   UNL     1      -3.636  11.657  18.947  0.00  0.00    +0.000 A 
ENDROOT
BRANCH  12  13
ATOM     13  C   UNL     1      -5.056  12.090  18.677  0.00  0.00    +0.000 A 
ATOM     14  C   UNL     1      -6.102  11.854  19.585  0.00  0.00    +0.000 A 
ATOM     15  C   UNL     1      -7.407  12.223  19.269  0.00  0.00    +0.000 A 
ATOM     16  N   UNL     1      -7.746  12.891  18.155  0.00  0.00    +0.000 NA
ATOM     17  C   UNL     1      -6.741  13.158  17.305  0.00  0.00    +0.000 A 
ATOM     18  F   UNL     1      -7.030  13.882  16.214  0.00  0.00    +0.000 F 
ATOM     19  C   UNL     1      -5.427  12.749  17.495  0.00  0.00    +0.000 A 
ENDBRANCH  12  13
BRANCH   9  20
ATOM     20  C   UNL     1       1.156   9.471  19.231  0.00  0.00    +0.000 A 
ATOM     21  C   UNL     1       1.421   8.410  20.116  0.00  0.00    +0.000 A 
ATOM     22  C   UNL     1       2.253   7.355  19.731  0.00  0.00    +0.000 A 
ATOM     23  C   UNL     1       2.834   7.345  18.466  0.00  0.00    +0.000 A 
ATOM     24  C   UNL     1       2.577   8.389  17.581  0.00  0.00    +0.000 A 
ATOM     25  C   UNL     1       1.740   9.447  17.957  0.00  0.00    +0.000 A 
ENDBRANCH   9  20
TORSDOF 2
ENDMDL
MODEL 8
REMARK VINA RESULT:      -6.6      4.728      6.225
REMARK  Name = 
REMARK  5 active torsions:
REMARK  status: ('A' for Active; 'I' for Inactive)
REMARK    1  A    between atoms: C_1  and  C_2
REMARK    2  A    between atoms: C_6  and  C_7
REMARK    3  A    between atoms: N_9  and  C_10
REMARK    4  A    between atoms: C_16  and  C_17
REMARK    5  A    between atoms: C_18  and  C_19
REMARK                            x       y       z     vdW  Elec       q    Type
REMARK                         _______ _______ _______ _____ _____    ______ ____
ROOT
ATOM      1  C   UNL     1       2.881   2.492  16.721  0.00  0.00    +0.000 C 
ATOM      2  C   UNL     1       3.950   3.500  17.056  0.00  0.00    +0.000 A 
ATOM      3  N   UNL     1       4.745   3.738  15.990  0.00  0.00    +0.000 NA
ATOM      4  C   UNL     1       5.725   4.639  16.172  0.00  0.00    +0.000 A 
ATOM      5  C   UNL     1       6.008   5.313  17.353  0.00  0.00    +0.000 A 
ATOM      6  C   UNL     1       7.109   6.151  17.005  0.00  0.00    +0.000 A 
ATOM      7  C   UNL     1       7.866   7.171  17.781  0.00  0.00    +0.000 C 
ATOM      8  N   UNL     1       7.497   5.986  15.739  0.00  0.00    +0.000 NA
ATOM      9  N   UNL     1       6.653   5.055  15.214  0.00  0.00    +0.000 N 
ATOM     10  C   UNL     1       5.201   5.016  18.495  0.00  0.00    +0.000 A 
ATOM     11  C   UNL     1       5.490   5.655  19.830  0.00  0.00    +0.000 C 
ATOM     12  C   UNL     1       4.103   4.090  18.337  0.00  0.00    +0.000 A 
ENDROOT
BRANCH  12  13
ATOM     13  C   UNL     1       3.166   3.764  19.473  0.00  0.00    +0.000 A 
ATOM     14  C   UNL     1       3.469   2.800  20.449  0.00  0.00    +0.000 A 
ATOM     15  C   UNL     1       2.548   2.494  21.448  0.00  0.00    +0.000 A 
ATOM     16  N   UNL     1       1.379   3.135  21.609  0.00  0.00    +0.000 NA
ATOM     17  C   UNL     1       1.106   4.089  20.705  0.00  0.00    +0.000 A 
ATOM     18  F   UNL     1      -0.020   4.796  20.874  0.00  0.00    +0.000 F 
ATOM     19  C   UNL     1       1.923   4.398  19.625  0.00  0.00    +0.000 A 
ENDBRANCH  12  13
BRANCH   9  20
ATOM     20  C   UNL     1       6.821   4.649  13.851  0.00  0.00    +0.000 A 
ATOM     21  C   UNL     1       6.066   3.565  13.363  0.00  0.00    +0.000 A 
ATOM     22  C   UNL     1       6.198   3.149  12.036  0.00  0.00    +0.000 A 
ATOM     23  C   UNL     1       7.082   3.801  11.181  0.00  0.00    +0.000 A 
ATOM     24  C   UNL     1       7.832   4.875  11.652  0.00  0.00    +0.000 A 
ATOM     25  C   UNL     1       7.702   5.302  12.979  0.00  0.00    +0.000 A 
ENDBRANCH   9  20
TORSDOF 2
ENDMDL
MODEL 9
REMARK VINA RESULT:      -6.5      3.216      6.164
REMARK  Name = 
REMARK  5 active torsions:
REMARK  status: ('A' for Active; 'I' for Inactive)
REMARK    1  A    between atoms: C_1  and  C_2
REMARK    2  A    between atoms: C_6  and  C_7
REMARK    3  A    between atoms: N_9  and  C_10
REMARK    4  A    between atoms: C_16  and  C_17
REMARK    5  A    between atoms: C_18  and  C_19
REMARK                            x       y       z     vdW  Elec       q    Type
REMARK                         _______ _______ _______ _____ _____    ______ ____
ROOT
ATOM      1  C   UNL     1      -3.607   9.325  17.363  0.00  0.00    +0.000 C 
ATOM      2  C   UNL     1      -2.802  10.257  18.231  0.00  0.00    +0.000 A 
ATOM      3  N   UNL     1      -1.546   9.792  18.410  0.00  0.00    +0.000 NA
ATOM      4  C   UNL     1      -0.732  10.558  19.155  0.00  0.00    +0.000 A 
ATOM      5  C   UNL     1      -1.074  11.753  19.777  0.00  0.00    +0.000 A 
ATOM      6  C   UNL     1       0.137  12.160  20.410  0.00  0.00    +0.000 A 
ATOM      7  C   UNL     1       0.489  13.375  21.196  0.00  0.00    +0.000 C 
ATOM      8  N   UNL     1       1.128  11.284  20.230  0.00  0.00    +0.000 NA
ATOM      9  N   UNL     1       0.604  10.290  19.460  0.00  0.00    +0.000 N 
ATOM     10  C   UNL     1      -2.421  12.212  19.633  0.00  0.00    +0.000 A 
ATOM     11  C   UNL     1      -2.886  13.463  20.335  0.00  0.00    +0.000 C 
ATOM     12  C   UNL     1      -3.321  11.449  18.801  0.00  0.00    +0.000 A 
ENDROOT
BRANCH  12  13
ATOM     13  C   UNL     1      -4.740  11.892  18.547  0.00  0.00    +0.000 A 
ATOM     14  C   UNL     1      -5.194  12.280  17.274  0.00  0.00    +0.000 A 
ATOM     15  C   UNL     1      -6.498  12.734  17.099  0.00  0.00    +0.000 A 
ATOM     16  N   UNL     1      -7.422  12.750  18.073  0.00  0.00    +0.000 NA
ATOM     17  C   UNL     1      -7.005  12.336  19.281  0.00  0.00    +0.000 A 
ATOM     18  F   UNL     1      -7.917  12.275  20.261  0.00  0.00    +0.000 F 
ATOM     19  C   UNL     1      -5.701  11.954  19.568  0.00  0.00    +0.000 A 
ENDBRANCH  12  13
BRANCH   9  20
ATOM     20  C   UNL     1       1.431   9.178  19.097  0.00  0.00    +0.000 A 
ATOM     21  C   UNL     1       1.612   8.132  20.020  0.00  0.00    +0.000 A 
ATOM     22  C   UNL     1       2.404   7.027  19.694  0.00  0.00    +0.000 A 
ATOM     23  C   UNL     1       3.027   6.953  18.452  0.00  0.00    +0.000 A 
ATOM     24  C   UNL     1       2.853   7.981  17.530  0.00  0.00    +0.000 A 
ATOM     25  C   UNL     1       2.057   9.089  17.846  0.00  0.00    +0.000 A 
ENDBRANCH   9  20
TORSDOF 2
ENDMDL
