MODEL 1
REMARK VINA RESULT:      -8.9      0.000      0.000
REMARK  Name = 
REMARK  2 active torsions:
REMARK  status: ('A' for Active; 'I' for Inactive)
REMARK    1  A    between atoms: C_4  and  C_5
REMARK    2  A    between atoms: C_14  and  C_15
REMARK                            x       y       z     vdW  Elec       q    Type
REMARK                         _______ _______ _______ _____ _____    ______ ____
ROOT
ATOM      1  O   UNL     1       7.896   5.511  19.260  0.00  0.00    +0.000 OA
ATOM      2  C   UNL     1       6.972   5.159  18.526  0.00  0.00    +0.000 C 
ATOM      3  C   UNL     1       5.704   4.702  19.129  0.00  0.00    +0.000 C 
ATOM      4  C   UNL     1       4.699   4.269  18.352  0.00  0.00    +0.000 C 
ATOM      5  C   UNL     1       4.767   4.157  16.847  0.00  0.00    +0.000 C 
ATOM      6  C   UNL     1       6.220   4.193  16.327  0.00  0.00    +0.000 C 
ATOM      7  C   UNL     1       7.052   5.280  17.034  0.00  0.00    +0.000 C 
ENDROOT
BRANCH   4   8
ATOM      8  C   UNL     1       3.439   3.893  19.007  0.00  0.00    +0.000 A 
ATOM      9  C   UNL     1       2.664   4.861  19.656  0.00  0.00    +0.000 A 
ATOM     10  C   UNL     1       1.448   4.498  20.232  0.00  0.00    +0.000 A 
ATOM     11  F   UNL     1       0.713   5.428  20.853  0.00  0.00    +0.000 F 
ATOM     12  C   UNL     1       0.979   3.189  20.167  0.00  0.00    +0.000 A 
ATOM     13  C   UNL     1       1.741   2.220  19.515  0.00  0.00    +0.000 A 
ATOM     14  C   UNL     1       2.959   2.576  18.942  0.00  0.00    +0.000 A 
ATOM     15  F   UNL     1       3.672   1.632  18.310  0.00  0.00    +0.000 F 
ENDBRANCH   4   8
BRANCH   6  16
ATOM     16  C   UNL     1       6.387   4.418  14.833  0.00  0.00    +0.000 A 
ATOM     17  C   UNL     1       7.417   5.239  14.336  0.00  0.00    +0.000 A 
ATOM     18  C   UNL     1       7.785   5.176  12.992  0.00  0.00    +0.000 A 
ATOM     19  C   UNL     1       7.108   4.319  12.135  0.00  0.00    +0.000 A 
ATOM     20  F   UNL     1       7.515   4.200  10.865  0.00  0.00    +0.000 F 
ATOM     21  C   UNL     1       6.037   3.559  12.585  0.00  0.00    +0.000 A 
ATOM     22  C   UNL     1       5.671   3.612  13.932  0.00  0.00    +0.000 A 
ENDBRANCH   6  16
TORSDOF 2
ENDMDL
MODEL 2
REMARK VINA RESULT:      -8.7      1.545      7.146
REMARK  Name = 
REMARK  2 active torsions:
REMARK  status: ('A' for Active; 'I' for Inactive)
REMARK    1  A    between atoms: C_4  and  C_5
REMARK    2  A    between atoms: C_14  and  C_15
REMARK                            x       y       z     vdW  Elec       q    Type
REMARK                         _______ _______ _______ _____ _____    ______ ____
ROOT
ATOM      1  O   UNL     1       8.173   4.898  18.667  0.00  0.00    +0.000 OA
ATOM      2  C   UNL     1       7.170   4.750  17.968  0.00  0.00    +0.000 C 
ATOM      3  C   UNL     1       7.322   4.603  16.507  0.00  0.00    +0.000 C 
ATOM      4  C   UNL     1       6.240   4.488  15.720  0.00  0.00    +0.000 C 
ATOM      5  C   UNL     1       4.812   4.544  16.210  0.00  0.00    +0.000 C 
ATOM      6  C   UNL     1       4.709   5.154  17.625  0.00  0.00    +0.000 C 
ATOM      7  C   UNL     1       5.801   4.607  18.563  0.00  0.00    +0.000 C 
ENDROOT
BRANCH   4   8
ATOM      8  C   UNL     1       6.459   4.275  14.282  0.00  0.00    +0.000 A 
ATOM      9  C   UNL     1       5.638   3.395  13.566  0.00  0.00    +0.000 A 
ATOM     10  C   UNL     1       5.827   3.239  12.194  0.00  0.00    +0.000 A 
ATOM     11  F   UNL     1       5.041   2.395  11.516  0.00  0.00    +0.000 F 
ATOM     12  C   UNL     1       6.812   3.950  11.515  0.00  0.00    +0.000 A 
ATOM     13  C   UNL     1       7.628   4.834  12.219  0.00  0.00    +0.000 A 
ATOM     14  C   UNL     1       7.447   4.990  13.590  0.00  0.00    +0.000 A 
ATOM     15  F   UNL     1       8.235   5.854  14.249  0.00  0.00    +0.000 F 
ENDBRANCH   4   8
BRANCH   6  16
ATOM     16  C   UNL     1       3.381   4.958  18.339  0.00  0.00    +0.000 A 
ATOM     17  C   UNL     1       2.369   4.160  17.775  0.00  0.00    +0.000 A 
ATOM     18  C   UNL     1       1.310   3.702  18.559  0.00  0.00    +0.000 A 
ATOM     19  C   UNL     1       1.242   4.065  19.898  0.00  0.00    +0.000 A 
ATOM     20  F   UNL     1       0.271   3.559  20.669  0.00  0.00    +0.000 F 
ATOM     21  C   UNL     1       2.186   4.916  20.456  0.00  0.00    +0.000 A 
ATOM     22  C   UNL     1       3.252   5.370  19.676  0.00  0.00    +0.000 A 
ENDBRANCH   6  16
TORSDOF 2
ENDMDL
MODEL 3
REMARK VINA RESULT:      -8.6      1.088      1.798
REMARK  Name = 
REMARK  2 active torsions:
REMARK  status: ('A' for Active; 'I' for Inactive)
REMARK    1  A    between atoms: C_4  and  C_5
REMARK    2  A    between atoms: C_14  and  C_15
REMARK                            x       y       z     vdW  Elec       q    Type
REMARK                         _______ _______ _______ _____ _____    ______ ____
ROOT
ATOM      1  O   UNL     1       8.102   5.611  19.332  0.00  0.00    +0.000 OA
ATOM      2  C   UNL     1       7.124   5.341  18.635  0.00  0.00    +0.000 C 
ATOM      3  C   UNL     1       5.828   5.065  19.285  0.00  0.00    +0.000 C 
ATOM      4  C   UNL     1       4.758   4.722  18.549  0.00  0.00    +0.000 C 
ATOM      5  C   UNL     1       4.771   4.539  17.050  0.00  0.00    +0.000 C 
ATOM      6  C   UNL     1       6.204   4.380  16.498  0.00  0.00    +0.000 C 
ATOM      7  C   UNL     1       7.177   5.388  17.137  0.00  0.00    +0.000 C 
ENDROOT
BRANCH   4   8
ATOM      8  C   UNL     1       3.480   4.527  19.248  0.00  0.00    +0.000 A 
ATOM      9  C   UNL     1       3.055   3.239  19.598  0.00  0.00    +0.000 A 
ATOM     10  C   UNL     1       1.864   3.074  20.302  0.00  0.00    +0.000 A 
ATOM     11  F   UNL     1       1.463   1.840  20.630  0.00  0.00    +0.000 F 
ATOM     12  C   UNL     1       1.088   4.167  20.677  0.00  0.00    +0.000 A 
ATOM     13  C   UNL     1       1.508   5.453  20.340  0.00  0.00    +0.000 A 
ATOM     14  C   UNL     1       2.694   5.624  19.632  0.00  0.00    +0.000 A 
ATOM     15  F   UNL     1       3.088   6.870  19.327  0.00  0.00    +0.000 F 
ENDBRANCH   4   8
BRANCH   6  16
ATOM     16  C   UNL     1       6.356   4.520  14.992  0.00  0.00    +0.000 A 
ATOM     17  C   UNL     1       7.433   5.237  14.438  0.00  0.00    +0.000 A 
ATOM     18  C   UNL     1       7.767   5.083  13.092  0.00  0.00    +0.000 A 
ATOM     19  C   UNL     1       7.012   4.239  12.290  0.00  0.00    +0.000 A 
ATOM     20  F   UNL     1       7.384   4.028  11.021  0.00  0.00    +0.000 F 
ATOM     21  C   UNL     1       5.898   3.582  12.796  0.00  0.00    +0.000 A 
ATOM     22  C   UNL     1       5.564   3.727  14.144  0.00  0.00    +0.000 A 
ENDBRANCH   6  16
TORSDOF 2
ENDMDL
MODEL 4
REMARK VINA RESULT:      -8.4      3.438      7.574
REMARK  Name = 
REMARK  2 active torsions:
REMARK  status: ('A' for Active; 'I' for Inactive)
REMARK    1  A    between atoms: C_4  and  C_5
REMARK    2  A    between atoms: C_14  and  C_15
REMARK                            x       y       z     vdW  Elec       q    Type
REMARK                         _______ _______ _______ _____ _____    ______ ____
ROOT
ATOM      1  O   UNL     1       1.855   3.239  20.985  0.00  0.00    +0.000 OA
ATOM      2  C   UNL     1       2.252   4.194  20.317  0.00  0.00    +0.000 C 
ATOM      3  C   UNL     1       3.372   4.001  19.375  0.00  0.00    +0.000 C 
ATOM      4  C   UNL     1       3.854   5.038  18.672  0.00  0.00    +0.000 C 
ATOM      5  C   UNL     1       3.363   6.461  18.796  0.00  0.00    +0.000 C 
ATOM      6  C   UNL     1       2.550   6.683  20.090  0.00  0.00    +0.000 C 
ATOM      7  C   UNL     1       1.566   5.527  20.350  0.00  0.00    +0.000 C 
ENDROOT
BRANCH   4   8
ATOM      8  C   UNL     1       4.924   4.769  17.700  0.00  0.00    +0.000 A 
ATOM      9  C   UNL     1       4.611   4.507  16.360  0.00  0.00    +0.000 A 
ATOM     10  C   UNL     1       5.638   4.301  15.441  0.00  0.00    +0.000 A 
ATOM     11  F   UNL     1       5.331   4.047  14.163  0.00  0.00    +0.000 F 
ATOM     12  C   UNL     1       6.974   4.360  15.825  0.00  0.00    +0.000 A 
ATOM     13  C   UNL     1       7.295   4.629  17.155  0.00  0.00    +0.000 A 
ATOM     14  C   UNL     1       6.273   4.831  18.078  0.00  0.00    +0.000 A 
ATOM     15  F   UNL     1       6.601   5.100  19.351  0.00  0.00    +0.000 F 
ENDBRANCH   4   8
BRANCH   6  16
ATOM     16  C   UNL     1       1.741   7.968  20.155  0.00  0.00    +0.000 A 
ATOM     17  C   UNL     1       1.605   8.795  19.024  0.00  0.00    +0.000 A 
ATOM     18  C   UNL     1       0.608   9.769  18.976  0.00  0.00    +0.000 A 
ATOM     19  C   UNL     1      -0.237   9.940  20.064  0.00  0.00    +0.000 A 
ATOM     20  F   UNL     1      -1.245  10.818  19.985  0.00  0.00    +0.000 F 
ATOM     21  C   UNL     1      -0.071   9.190  21.221  0.00  0.00    +0.000 A 
ATOM     22  C   UNL     1       0.921   8.209  21.271  0.00  0.00    +0.000 A 
ENDBRANCH   6  16
TORSDOF 2
ENDMDL
MODEL 5
REMARK VINA RESULT:      -8.4      2.486      7.155
REMARK  Name = 
REMARK  2 active torsions:
REMARK  status: ('A' for Active; 'I' for Inactive)
REMARK    1  A    between atoms: C_4  and  C_5
REMARK    2  A    between atoms: C_14  and  C_15
REMARK                            x       y       z     vdW  Elec       q    Type
REMARK                         _______ _______ _______ _____ _____    ______ ____
ROOT
ATOM      1  O   UNL     1       8.110   4.485  18.536  0.00  0.00    +0.000 OA
ATOM      2  C   UNL     1       7.165   4.749  17.792  0.00  0.00    +0.000 C 
ATOM      3  C   UNL     1       7.280   4.461  16.348  0.00  0.00    +0.000 C 
ATOM      4  C   UNL     1       6.283   4.784  15.509  0.00  0.00    +0.000 C 
ATOM      5  C   UNL     1       5.013   5.491  15.919  0.00  0.00    +0.000 C 
ATOM      6  C   UNL     1       5.147   6.170  17.300  0.00  0.00    +0.000 C 
ATOM      7  C   UNL     1       5.857   5.258  18.317  0.00  0.00    +0.000 C 
ENDROOT
BRANCH   4   8
ATOM      8  C   UNL     1       6.428   4.409  14.096  0.00  0.00    +0.000 A 
ATOM      9  C   UNL     1       5.496   3.555  13.492  0.00  0.00    +0.000 A 
ATOM     10  C   UNL     1       5.620   3.246  12.139  0.00  0.00    +0.000 A 
ATOM     11  F   UNL     1       4.728   2.428  11.570  0.00  0.00    +0.000 F 
ATOM     12  C   UNL     1       6.649   3.778  11.368  0.00  0.00    +0.000 A 
ATOM     13  C   UNL     1       7.576   4.636  11.958  0.00  0.00    +0.000 A 
ATOM     14  C   UNL     1       7.460   4.944  13.311  0.00  0.00    +0.000 A 
ATOM     15  F   UNL     1       8.355   5.779  13.859  0.00  0.00    +0.000 F 
ENDBRANCH   4   8
BRANCH   6  16
ATOM     16  C   UNL     1       3.848   6.621  17.949  0.00  0.00    +0.000 A 
ATOM     17  C   UNL     1       3.365   5.992  19.111  0.00  0.00    +0.000 A 
ATOM     18  C   UNL     1       2.384   6.605  19.891  0.00  0.00    +0.000 A 
ATOM     19  C   UNL     1       1.863   7.831  19.499  0.00  0.00    +0.000 A 
ATOM     20  F   UNL     1       0.983   8.457  20.291  0.00  0.00    +0.000 F 
ATOM     21  C   UNL     1       2.268   8.432  18.315  0.00  0.00    +0.000 A 
ATOM     22  C   UNL     1       3.254   7.825  17.534  0.00  0.00    +0.000 A 
ENDBRANCH   6  16
TORSDOF 2
ENDMDL
MODEL 6
REMARK VINA RESULT:      -8.3      3.534      7.552
REMARK  Name = 
REMARK  2 active torsions:
REMARK  status: ('A' for Active; 'I' for Inactive)
REMARK    1  A    between atoms: C_4  and  C_5
REMARK    2  A    between atoms: C_14  and  C_15
REMARK                            x       y       z     vdW  Elec       q    Type
REMARK                         _______ _______ _______ _____ _____    ______ ____
ROOT
ATOM      1  O   UNL     1       2.070   3.262  21.294  0.00  0.00    +0.000 OA
ATOM      2  C   UNL     1       2.395   4.188  20.550  0.00  0.00    +0.000 C 
ATOM      3  C   UNL     1       3.527   4.005  19.620  0.00  0.00    +0.000 C 
ATOM      4  C   UNL     1       3.931   5.015  18.834  0.00  0.00    +0.000 C 
ATOM      5  C   UNL     1       3.334   6.403  18.846  0.00  0.00    +0.000 C 
ATOM      6  C   UNL     1       2.506   6.666  20.122  0.00  0.00    +0.000 C 
ATOM      7  C   UNL     1       1.611   5.464  20.479  0.00  0.00    +0.000 C 
ENDROOT
BRANCH   4   8
ATOM      8  C   UNL     1       5.018   4.750  17.881  0.00  0.00    +0.000 A 
ATOM      9  C   UNL     1       4.727   4.418  16.552  0.00  0.00    +0.000 A 
ATOM     10  C   UNL     1       5.769   4.216  15.649  0.00  0.00    +0.000 A 
ATOM     11  F   UNL     1       5.484   3.896  14.381  0.00  0.00    +0.000 F 
ATOM     12  C   UNL     1       7.099   4.346  16.038  0.00  0.00    +0.000 A 
ATOM     13  C   UNL     1       7.397   4.684  17.357  0.00  0.00    +0.000 A 
ATOM     14  C   UNL     1       6.360   4.883  18.265  0.00  0.00    +0.000 A 
ATOM     15  F   UNL     1       6.667   5.219  19.527  0.00  0.00    +0.000 F 
ENDBRANCH   4   8
BRANCH   6  16
ATOM     16  C   UNL     1       1.602   7.888  20.088  0.00  0.00    +0.000 A 
ATOM     17  C   UNL     1       0.956   8.342  21.253  0.00  0.00    +0.000 A 
ATOM     18  C   UNL     1       0.418   9.628  21.308  0.00  0.00    +0.000 A 
ATOM     19  C   UNL     1       0.496  10.452  20.194  0.00  0.00    +0.000 A 
ATOM     20  F   UNL     1       0.054  11.714  20.274  0.00  0.00    +0.000 F 
ATOM     21  C   UNL     1       1.059   9.998  19.008  0.00  0.00    +0.000 A 
ATOM     22  C   UNL     1       1.605   8.714  18.951  0.00  0.00    +0.000 A 
ENDBRANCH   6  16
TORSDOF 2
ENDMDL
MODEL 7
REMARK VINA RESULT:      -8.3      1.934      2.341
REMARK  Name = 
REMARK  2 active torsions:
REMARK  status: ('A' for Active; 'I' for Inactive)
REMARK    1  A    between atoms: C_4  and  C_5
REMARK    2  A    between atoms: C_14  and  C_15
REMARK                            x       y       z     vdW  Elec       q    Type
REMARK                         _______ _______ _______ _____ _____    ______ ____
ROOT
ATOM      1  O   UNL     1       4.444   8.258  17.485  0.00  0.00    +0.000 OA
ATOM      2  C   UNL     1       4.418   7.051  17.244  0.00  0.00    +0.000 C 
ATOM      3  C   UNL     1       3.648   6.154  18.128  0.00  0.00    +0.000 C 
ATOM      4  C   UNL     1       3.644   4.828  17.914  0.00  0.00    +0.000 C 
ATOM      5  C   UNL     1       4.429   4.132  16.828  0.00  0.00    +0.000 C 
ATOM      6  C   UNL     1       5.548   5.030  16.256  0.00  0.00    +0.000 C 
ATOM      7  C   UNL     1       5.057   6.470  16.018  0.00  0.00    +0.000 C 
ENDROOT
BRANCH   4   8
ATOM      8  C   UNL     1       2.803   3.996  18.787  0.00  0.00    +0.000 A 
ATOM      9  C   UNL     1       3.320   3.478  19.981  0.00  0.00    +0.000 A 
ATOM     10  C   UNL     1       2.497   2.731  20.821  0.00  0.00    +0.000 A 
ATOM     11  F   UNL     1       2.998   2.237  21.959  0.00  0.00    +0.000 F 
ATOM     12  C   UNL     1       1.163   2.494  20.502  0.00  0.00    +0.000 A 
ATOM     13  C   UNL     1       0.638   3.012  19.319  0.00  0.00    +0.000 A 
ATOM     14  C   UNL     1       1.457   3.756  18.474  0.00  0.00    +0.000 A 
ATOM     15  F   UNL     1       0.932   4.256  17.345  0.00  0.00    +0.000 F 
ENDBRANCH   4   8
BRANCH   6  16
ATOM     16  C   UNL     1       6.175   4.562  14.952  0.00  0.00    +0.000 A 
ATOM     17  C   UNL     1       5.485   3.688  14.091  0.00  0.00    +0.000 A 
ATOM     18  C   UNL     1       5.895   3.532  12.767  0.00  0.00    +0.000 A 
ATOM     19  C   UNL     1       7.008   4.221  12.307  0.00  0.00    +0.000 A 
ATOM     20  F   UNL     1       7.351   4.135  11.015  0.00  0.00    +0.000 F 
ATOM     21  C   UNL     1       7.751   5.027  13.160  0.00  0.00    +0.000 A 
ATOM     22  C   UNL     1       7.340   5.193  14.484  0.00  0.00    +0.000 A 
ENDBRANCH   6  16
TORSDOF 2
ENDMDL
MODEL 8
REMARK VINA RESULT:      -8.2      2.202      7.332
REMARK  Name = 
REMARK  2 active torsions:
REMARK  status: ('A' for Active; 'I' for Inactive)
REMARK    1  A    between atoms: C_4  and  C_5
REMARK    2  A    between atoms: C_14  and  C_15
REMARK                            x       y       z     vdW  Elec       q    Type
REMARK                         _______ _______ _______ _____ _____    ______ ____
ROOT
ATOM      1  O   UNL     1       4.222   8.117  17.485  0.00  0.00    +0.000 OA
ATOM      2  C   UNL     1       4.252   6.903  17.281  0.00  0.00    +0.000 C 
ATOM      3  C   UNL     1       4.914   6.390  16.065  0.00  0.00    +0.000 C 
ATOM      4  C   UNL     1       4.918   5.074  15.797  0.00  0.00    +0.000 C 
ATOM      5  C   UNL     1       4.234   4.025  16.642  0.00  0.00    +0.000 C 
ATOM      6  C   UNL     1       3.195   4.642  17.602  0.00  0.00    +0.000 C 
ATOM      7  C   UNL     1       3.731   5.915  18.282  0.00  0.00    +0.000 C 
ENDROOT
BRANCH   4   8
ATOM      8  C   UNL     1       5.652   4.620  14.608  0.00  0.00    +0.000 A 
ATOM      9  C   UNL     1       5.003   3.868  13.621  0.00  0.00    +0.000 A 
ATOM     10  C   UNL     1       5.699   3.484  12.477  0.00  0.00    +0.000 A 
ATOM     11  F   UNL     1       5.073   2.763  11.539  0.00  0.00    +0.000 F 
ATOM     12  C   UNL     1       7.031   3.842  12.287  0.00  0.00    +0.000 A 
ATOM     13  C   UNL     1       7.683   4.598  13.261  0.00  0.00    +0.000 A 
ATOM     14  C   UNL     1       6.993   4.980  14.408  0.00  0.00    +0.000 A 
ATOM     15  F   UNL     1       7.634   5.716  15.329  0.00  0.00    +0.000 F 
ENDBRANCH   4   8
BRANCH   6  16
ATOM     16  C   UNL     1       2.694   3.732  18.713  0.00  0.00    +0.000 A 
ATOM     17  C   UNL     1       3.587   3.170  19.644  0.00  0.00    +0.000 A 
ATOM     18  C   UNL     1       3.114   2.631  20.841  0.00  0.00    +0.000 A 
ATOM     19  C   UNL     1       1.750   2.624  21.098  0.00  0.00    +0.000 A 
ATOM     20  F   UNL     1       1.304   2.182  22.281  0.00  0.00    +0.000 F 
ATOM     21  C   UNL     1       0.844   3.101  20.160  0.00  0.00    +0.000 A 
ATOM     22  C   UNL     1       1.314   3.648  18.964  0.00  0.00    +0.000 A 
ENDBRANCH   6  16
TORSDOF 2
ENDMDL
MODEL 9
REMARK VINA RESULT:      -8.2      1.485      7.085
REMARK  Name = 
REMARK  2 active torsions:
REMARK  status: ('A' for Active; 'I' for Inactive)
REMARK    1  A    between atoms: C_4  and  C_5
REMARK    2  A    between atoms: C_14  and  C_15
REMARK                            x       y       z     vdW  Elec       q    Type
REMARK                         _______ _______ _______ _____ _____    ______ ____
ROOT
ATOM      1  O   UNL     1       8.158   5.115  19.061  0.00  0.00    +0.000 OA
ATOM      2  C   UNL     1       7.199   4.988  18.298  0.00  0.00    +0.000 C 
ATOM      3  C   UNL     1       7.434   4.956  16.841  0.00  0.00    +0.000 C 
ATOM      4  C   UNL     1       6.401   4.866  15.988  0.00  0.00    +0.000 C 
ATOM      5  C   UNL     1       4.949   4.840  16.400  0.00  0.00    +0.000 C 
ATOM      6  C   UNL     1       4.748   5.339  17.848  0.00  0.00    +0.000 C 
ATOM      7  C   UNL     1       5.806   4.757  18.803  0.00  0.00    +0.000 C 
ENDROOT
BRANCH   4   8
ATOM      8  C   UNL     1       6.704   4.768  14.553  0.00  0.00    +0.000 A 
ATOM      9  C   UNL     1       7.593   5.670  13.955  0.00  0.00    +0.000 A 
ATOM     10  C   UNL     1       7.908   5.535  12.605  0.00  0.00    +0.000 A 
ATOM     11  F   UNL     1       8.756   6.402  12.040  0.00  0.00    +0.000 F 
ATOM     12  C   UNL     1       7.361   4.513  11.834  0.00  0.00    +0.000 A 
ATOM     13  C   UNL     1       6.481   3.606  12.422  0.00  0.00    +0.000 A 
ATOM     14  C   UNL     1       6.160   3.738  13.771  0.00  0.00    +0.000 A 
ATOM     15  F   UNL     1       5.321   2.849  14.322  0.00  0.00    +0.000 F 
ENDBRANCH   4   8
BRANCH   6  16
ATOM     16  C   UNL     1       3.391   5.048  18.469  0.00  0.00    +0.000 A 
ATOM     17  C   UNL     1       2.414   4.322  17.764  0.00  0.00    +0.000 A 
ATOM     18  C   UNL     1       1.325   3.764  18.435  0.00  0.00    +0.000 A 
ATOM     19  C   UNL     1       1.193   3.954  19.804  0.00  0.00    +0.000 A 
ATOM     20  F   UNL     1       0.194   3.350  20.460  0.00  0.00    +0.000 F 
ATOM     21  C   UNL     1       2.103   4.733  20.507  0.00  0.00    +0.000 A 
ATOM     22  C   UNL     1       3.198   5.287  19.841  0.00  0.00    +0.000 A 
ENDBRANCH   6  16
TORSDOF 2
ENDMDL
