MODEL 1
REMARK VINA RESULT:      -7.6      0.000      0.000
REMARK  Name = 
REMARK  7 active torsions:
REMARK  status: ('A' for Active; 'I' for Inactive)
REMARK    1  A    between atoms: C_1  and  O_2
REMARK    2  A    between atoms: O_2  and  C_3
REMARK    3  A    between atoms: C_7  and  C_8
REMARK    4  A    between atoms: C_13  and  C_14
REMARK    5  A    between atoms: C_19  and  C_20
REMARK    6  A    between atoms: N_22  and  C_23
REMARK    7  A    between atoms: C_29  and  C_30
REMARK                            x       y       z     vdW  Elec       q    Type
REMARK                         _______ _______ _______ _____ _____    ______ ____
ROOT
ATOM      1  C   UNL     1       2.340   7.676  18.809  0.00  0.00    +0.000 A 
ATOM      2  N   UNL     1       1.983   7.291  20.090  0.00  0.00    +0.000 NA
ATOM      3  C   UNL     1       1.287   8.305  20.529  0.00  0.00    +0.000 A 
ATOM      4  N   UNL     1       1.223   9.260  19.566  0.00  0.00    +0.000 N 
ATOM      5  N   UNL     1       1.830   8.860  18.430  0.00  0.00    +0.000 NA
ATOM      6  C   UNL     1       0.473  10.508  19.702  0.00  0.00    +0.000 C 
ATOM      7  C   UNL     1      -0.167  10.670  21.093  0.00  0.00    +0.000 C 
ATOM      8  C   UNL     1      -0.014   9.686  22.026  0.00  0.00    +0.000 C 
ATOM      9  C   UNL     1      -0.517   9.671  23.453  0.00  0.00    +0.000 C 
ATOM     10  N   UNL     1       0.678   8.518  21.701  0.00  0.00    +0.000 N 
ATOM     11  H   UNL     1       0.721   7.788  22.407  0.00  0.00    +0.000 HD
ENDROOT
BRANCH   1  16
ATOM     12  C   UNL     1       3.952   4.666  17.252  0.00  0.00    +0.000 A 
ATOM     13  C   UNL     1       4.947   5.265  16.476  0.00  0.00    +0.000 A 
ATOM     14  C   UNL     1       5.084   6.653  16.444  0.00  0.00    +0.000 A 
ATOM     15  C   UNL     1       4.223   7.453  17.194  0.00  0.00    +0.000 A 
ATOM     16  C   UNL     1       3.221   6.868  17.979  0.00  0.00    +0.000 A 
ATOM     17  C   UNL     1       3.089   5.471  17.995  0.00  0.00    +0.000 A 
BRANCH  12  19
ATOM     18  C   UNL     1       2.780   2.669  17.773  0.00  0.00    +0.000 C 
ATOM     19  O   UNL     1       3.930   3.298  17.216  0.00  0.00    +0.000 OA
ENDBRANCH  12  19
ENDBRANCH   1  16
BRANCH   6  20
ATOM     20  C   UNL     1       1.359  11.663  19.257  0.00  0.00    +0.000 A 
ATOM     21  C   UNL     1       1.794  12.000  17.989  0.00  0.00    +0.000 A 
ATOM     22  C   UNL     1       2.636  13.150  17.994  0.00  0.00    +0.000 A 
ATOM     23  C   UNL     1       2.811  13.660  19.260  0.00  0.00    +0.000 A 
ATOM     24  S   UNL     1       1.989  12.743  20.440  0.00  0.00    +0.000 S 
ENDBRANCH   6  20
BRANCH   7  25
ATOM     25  C   UNL     1      -0.936  11.953  21.336  0.00  0.00    +0.000 C 
ATOM     26  O   UNL     1      -1.694  12.399  20.478  0.00  0.00    +0.000 OA
ATOM     27  N   UNL     1      -0.735  12.536  22.576  0.00  0.00    +0.000 N 
ATOM     28  H   UNL     1      -0.131  12.084  23.245  0.00  0.00    +0.000 HD
BRANCH  27  29
ATOM     29  C   UNL     1      -1.316  13.722  23.089  0.00  0.00    +0.000 A 
ATOM     30  C   UNL     1      -0.733  14.982  23.037  0.00  0.00    +0.000 A 
ATOM     31  C   UNL     1      -1.382  16.069  23.629  0.00  0.00    +0.000 A 
ATOM     32  C   UNL     1      -2.603  15.862  24.249  0.00  0.00    +0.000 A 
ATOM     33  N   UNL     1      -3.216  14.664  24.302  0.00  0.00    +0.000 NA
ATOM     34  C   UNL     1      -2.562  13.630  23.720  0.00  0.00    +0.000 A 
ENDBRANCH  27  29
ENDBRANCH   7  25
TORSDOF 5
ENDMDL
MODEL 2
REMARK VINA RESULT:      -7.5      0.968      1.141
REMARK  Name = 
REMARK  7 active torsions:
REMARK  status: ('A' for Active; 'I' for Inactive)
REMARK    1  A    between atoms: C_1  and  O_2
REMARK    2  A    between atoms: O_2  and  C_3
REMARK    3  A    between atoms: C_7  and  C_8
REMARK    4  A    between atoms: C_13  and  C_14
REMARK    5  A    between atoms: C_19  and  C_20
REMARK    6  A    between atoms: N_22  and  C_23
REMARK    7  A    between atoms: C_29  and  C_30
REMARK                            x       y       z     vdW  Elec       q    Type
REMARK                         _______ _______ _______ _____ _____    ______ ____
ROOT
ATOM      1  C   UNL     1       2.256   7.691  18.831  0.00  0.00    +0.000 A 
ATOM      2  N   UNL     1       2.042   7.371  20.160  0.00  0.00    +0.000 NA
ATOM      3  C   UNL     1       1.309   8.362  20.595  0.00  0.00    +0.000 A 
ATOM      4  N   UNL     1       1.089   9.240  19.584  0.00  0.00    +0.000 N 
ATOM      5  N   UNL     1       1.626   8.805  18.426  0.00  0.00    +0.000 NA
ATOM      6  C   UNL     1       0.259  10.437  19.709  0.00  0.00    +0.000 C 
ATOM      7  C   UNL     1      -0.270  10.649  21.139  0.00  0.00    +0.000 C 
ATOM      8  C   UNL     1       0.039   9.747  22.114  0.00  0.00    +0.000 C 
ATOM      9  C   UNL     1      -0.338   9.796  23.579  0.00  0.00    +0.000 C 
ATOM     10  N   UNL     1       0.788   8.611  21.802  0.00  0.00    +0.000 N 
ATOM     11  H   UNL     1       0.949   7.938  22.547  0.00  0.00    +0.000 HD
ENDROOT
BRANCH   1  16
ATOM     12  C   UNL     1       3.865   4.697  17.238  0.00  0.00    +0.000 A 
ATOM     13  C   UNL     1       4.825   5.307  16.427  0.00  0.00    +0.000 A 
ATOM     14  C   UNL     1       4.938   6.697  16.383  0.00  0.00    +0.000 A 
ATOM     15  C   UNL     1       4.090   7.488  17.157  0.00  0.00    +0.000 A 
ATOM     16  C   UNL     1       3.123   6.891  17.977  0.00  0.00    +0.000 A 
ATOM     17  C   UNL     1       3.014   5.493  18.005  0.00  0.00    +0.000 A 
BRANCH  12  19
ATOM     18  C   UNL     1       2.616   2.692  17.467  0.00  0.00    +0.000 C 
ATOM     19  O   UNL     1       3.864   3.329  17.211  0.00  0.00    +0.000 OA
ENDBRANCH  12  19
ENDBRANCH   1  16
BRANCH   6  20
ATOM     20  C   UNL     1       1.011  11.618  19.113  0.00  0.00    +0.000 A 
ATOM     21  C   UNL     1       2.373  11.854  19.053  0.00  0.00    +0.000 A 
ATOM     22  C   UNL     1       2.678  13.100  18.430  0.00  0.00    +0.000 A 
ATOM     23  C   UNL     1       1.547  13.770  18.026  0.00  0.00    +0.000 A 
ATOM     24  S   UNL     1       0.122  12.920  18.421  0.00  0.00    +0.000 S 
ENDBRANCH   6  20
BRANCH   7  25
ATOM     25  C   UNL     1      -1.112  11.888  21.369  0.00  0.00    +0.000 C 
ATOM     26  O   UNL     1      -2.256  11.956  20.926  0.00  0.00    +0.000 OA
ATOM     27  N   UNL     1      -0.507  12.883  22.119  0.00  0.00    +0.000 N 
ATOM     28  H   UNL     1       0.420  12.733  22.486  0.00  0.00    +0.000 HD
BRANCH  27  29
ATOM     29  C   UNL     1      -1.042  14.137  22.502  0.00  0.00    +0.000 A 
ATOM     30  C   UNL     1      -1.644  14.407  23.725  0.00  0.00    +0.000 A 
ATOM     31  C   UNL     1      -2.183  15.673  23.966  0.00  0.00    +0.000 A 
ATOM     32  C   UNL     1      -2.096  16.637  22.974  0.00  0.00    +0.000 A 
ATOM     33  N   UNL     1      -1.500  16.427  21.785  0.00  0.00    +0.000 NA
ATOM     34  C   UNL     1      -0.987  15.189  21.582  0.00  0.00    +0.000 A 
ENDBRANCH  27  29
ENDBRANCH   7  25
TORSDOF 5
ENDMDL
MODEL 3
REMARK VINA RESULT:      -7.5      1.823      2.217
REMARK  Name = 
REMARK  7 active torsions:
REMARK  status: ('A' for Active; 'I' for Inactive)
REMARK    1  A    between atoms: C_1  and  O_2
REMARK    2  A    between atoms: O_2  and  C_3
REMARK    3  A    between atoms: C_7  and  C_8
REMARK    4  A    between atoms: C_13  and  C_14
REMARK    5  A    between atoms: C_19  and  C_20
REMARK    6  A    between atoms: N_22  and  C_23
REMARK    7  A    between atoms: C_29  and  C_30
REMARK                            x       y       z     vdW  Elec       q    Type
REMARK                         _______ _______ _______ _____ _____    ______ ____
ROOT
ATOM      1  C   UNL     1       1.464   8.705  19.577  0.00  0.00    +0.000 A 
ATOM      2  N   UNL     1       0.822   8.523  20.790  0.00  0.00    +0.000 NA
ATOM      3  C   UNL     1       0.218   9.664  20.986  0.00  0.00    +0.000 A 
ATOM      4  N   UNL     1       0.479  10.499  19.948  0.00  0.00    +0.000 N 
ATOM      5  N   UNL     1       1.219   9.892  18.998  0.00  0.00    +0.000 NA
ATOM      6  C   UNL     1      -0.087  11.841  19.817  0.00  0.00    +0.000 C 
ATOM      7  C   UNL     1      -0.942  12.248  21.031  0.00  0.00    +0.000 C 
ATOM      8  C   UNL     1      -1.115  11.370  22.061  0.00  0.00    +0.000 C 
ATOM      9  C   UNL     1      -1.871  11.589  23.353  0.00  0.00    +0.000 C 
ATOM     10  N   UNL     1      -0.560  10.091  21.988  0.00  0.00    +0.000 N 
ATOM     11  H   UNL     1      -0.759   9.451  22.752  0.00  0.00    +0.000 HD
ENDROOT
BRANCH   1  16
ATOM     12  C   UNL     1       3.418   5.521  19.220  0.00  0.00    +0.000 A 
ATOM     13  C   UNL     1       4.116   5.764  18.034  0.00  0.00    +0.000 A 
ATOM     14  C   UNL     1       3.937   6.960  17.338  0.00  0.00    +0.000 A 
ATOM     15  C   UNL     1       3.057   7.925  17.828  0.00  0.00    +0.000 A 
ATOM     16  C   UNL     1       2.353   7.696  19.017  0.00  0.00    +0.000 A 
ATOM     17  C   UNL     1       2.535   6.485  19.702  0.00  0.00    +0.000 A 
BRANCH  12  19
ATOM     18  C   UNL     1       4.511   3.418  19.086  0.00  0.00    +0.000 C 
ATOM     19  O   UNL     1       3.691   4.322  19.820  0.00  0.00    +0.000 OA
ENDBRANCH  12  19
ENDBRANCH   1  16
BRANCH   6  20
ATOM     20  C   UNL     1       1.030  12.810  19.457  0.00  0.00    +0.000 A 
ATOM     21  C   UNL     1       1.275  13.465  18.264  0.00  0.00    +0.000 A 
ATOM     22  C   UNL     1       2.446  14.276  18.324  0.00  0.00    +0.000 A 
ATOM     23  C   UNL     1       3.052  14.224  19.558  0.00  0.00    +0.000 A 
ATOM     24  S   UNL     1       2.233  13.182  20.631  0.00  0.00    +0.000 S 
ENDBRANCH   6  20
BRANCH   7  25
ATOM     25  C   UNL     1      -1.541  13.640  20.998  0.00  0.00    +0.000 C 
ATOM     26  O   UNL     1      -2.532  13.878  20.312  0.00  0.00    +0.000 OA
ATOM     27  N   UNL     1      -0.910  14.573  21.803  0.00  0.00    +0.000 N 
ATOM     28  H   UNL     1      -0.127  14.289  22.373  0.00  0.00    +0.000 HD
BRANCH  27  29
ATOM     29  C   UNL     1      -1.242  15.939  21.986  0.00  0.00    +0.000 A 
ATOM     30  C   UNL     1      -2.066  16.431  22.990  0.00  0.00    +0.000 A 
ATOM     31  C   UNL     1      -2.363  17.796  23.034  0.00  0.00    +0.000 A 
ATOM     32  C   UNL     1      -1.816  18.630  22.072  0.00  0.00    +0.000 A 
ATOM     33  N   UNL     1      -0.993  18.200  21.096  0.00  0.00    +0.000 NA
ATOM     34  C   UNL     1      -0.725  16.872  21.081  0.00  0.00    +0.000 A 
ENDBRANCH  27  29
ENDBRANCH   7  25
TORSDOF 5
ENDMDL
MODEL 4
REMARK VINA RESULT:      -7.5      1.135      1.909
REMARK  Name = 
REMARK  7 active torsions:
REMARK  status: ('A' for Active; 'I' for Inactive)
REMARK    1  A    between atoms: C_1  and  O_2
REMARK    2  A    between atoms: O_2  and  C_3
REMARK    3  A    between atoms: C_7  and  C_8
REMARK    4  A    between atoms: C_13  and  C_14
REMARK    5  A    between atoms: C_19  and  C_20
REMARK    6  A    between atoms: N_22  and  C_23
REMARK    7  A    between atoms: C_29  and  C_30
REMARK                            x       y       z     vdW  Elec       q    Type
REMARK                         _______ _______ _______ _____ _____    ______ ____
ROOT
ATOM      1  C   UNL     1       2.458   7.517  18.924  0.00  0.00    +0.000 A 
ATOM      2  N   UNL     1       2.078   7.157  20.206  0.00  0.00    +0.000 NA
ATOM      3  C   UNL     1       1.351   8.168  20.601  0.00  0.00    +0.000 A 
ATOM      4  N   UNL     1       1.292   9.096  19.612  0.00  0.00    +0.000 N 
ATOM      5  N   UNL     1       1.935   8.679  18.502  0.00  0.00    +0.000 NA
ATOM      6  C   UNL     1       0.514  10.331  19.697  0.00  0.00    +0.000 C 
ATOM      7  C   UNL     1      -0.163  10.515  21.068  0.00  0.00    +0.000 C 
ATOM      8  C   UNL     1      -0.014   9.559  22.030  0.00  0.00    +0.000 C 
ATOM      9  C   UNL     1      -0.551   9.571  23.444  0.00  0.00    +0.000 C 
ATOM     10  N   UNL     1       0.709   8.398  21.752  0.00  0.00    +0.000 N 
ATOM     11  H   UNL     1       0.750   7.687  22.478  0.00  0.00    +0.000 HD
ENDROOT
BRANCH   1  16
ATOM     12  C   UNL     1       5.474   6.524  16.923  0.00  0.00    +0.000 A 
ATOM     13  C   UNL     1       5.132   5.223  16.549  0.00  0.00    +0.000 A 
ATOM     14  C   UNL     1       3.926   4.658  16.963  0.00  0.00    +0.000 A 
ATOM     15  C   UNL     1       3.048   5.398  17.756  0.00  0.00    +0.000 A 
ATOM     16  C   UNL     1       3.376   6.705  18.137  0.00  0.00    +0.000 A 
ATOM     17  C   UNL     1       4.597   7.257  17.722  0.00  0.00    +0.000 A 
BRANCH  12  19
ATOM     18  C   UNL     1       7.539   7.603  17.380  0.00  0.00    +0.000 C 
ATOM     19  O   UNL     1       6.673   6.973  16.441  0.00  0.00    +0.000 OA
ENDBRANCH  12  19
ENDBRANCH   1  16
BRANCH   6  20
ATOM     20  C   UNL     1       1.387  11.492  19.244  0.00  0.00    +0.000 A 
ATOM     21  C   UNL     1       1.878  11.784  17.985  0.00  0.00    +0.000 A 
ATOM     22  C   UNL     1       2.684  12.960  17.979  0.00  0.00    +0.000 A 
ATOM     23  C   UNL     1       2.777  13.533  19.226  0.00  0.00    +0.000 A 
ATOM     24  S   UNL     1       1.922  12.646  20.405  0.00  0.00    +0.000 S 
ENDBRANCH   6  20
BRANCH   7  25
ATOM     25  C   UNL     1      -0.964  11.788  21.259  0.00  0.00    +0.000 C 
ATOM     26  O   UNL     1      -1.779  12.146  20.412  0.00  0.00    +0.000 OA
ATOM     27  N   UNL     1      -0.722  12.466  22.441  0.00  0.00    +0.000 N 
ATOM     28  H   UNL     1      -0.069  12.083  23.109  0.00  0.00    +0.000 HD
BRANCH  27  29
ATOM     29  C   UNL     1      -1.317  13.668  22.899  0.00  0.00    +0.000 A 
ATOM     30  C   UNL     1      -2.523  13.750  23.583  0.00  0.00    +0.000 A 
ATOM     31  C   UNL     1      -3.035  15.001  23.936  0.00  0.00    +0.000 A 
ATOM     32  C   UNL     1      -2.316  16.137  23.598  0.00  0.00    +0.000 A 
ATOM     33  N   UNL     1      -1.132  16.103  22.958  0.00  0.00    +0.000 NA
ATOM     34  C   UNL     1      -0.663  14.875  22.630  0.00  0.00    +0.000 A 
ENDBRANCH  27  29
ENDBRANCH   7  25
TORSDOF 5
ENDMDL
MODEL 5
REMARK VINA RESULT:      -7.4      1.080      1.724
REMARK  Name = 
REMARK  7 active torsions:
REMARK  status: ('A' for Active; 'I' for Inactive)
REMARK    1  A    between atoms: C_1  and  O_2
REMARK    2  A    between atoms: O_2  and  C_3
REMARK    3  A    between atoms: C_7  and  C_8
REMARK    4  A    between atoms: C_13  and  C_14
REMARK    5  A    between atoms: C_19  and  C_20
REMARK    6  A    between atoms: N_22  and  C_23
REMARK    7  A    between atoms: C_29  and  C_30
REMARK                            x       y       z     vdW  Elec       q    Type
REMARK                         _______ _______ _______ _____ _____    ______ ____
ROOT
ATOM      1  C   UNL     1       2.160   7.836  19.017  0.00  0.00    +0.000 A 
ATOM      2  N   UNL     1       1.688   7.532  20.282  0.00  0.00    +0.000 NA
ATOM      3  C   UNL     1       1.022   8.603  20.623  0.00  0.00    +0.000 A 
ATOM      4  N   UNL     1       1.085   9.513  19.617  0.00  0.00    +0.000 N 
ATOM      5  N   UNL     1       1.749   9.026  18.550  0.00  0.00    +0.000 NA
ATOM      6  C   UNL     1       0.401  10.805  19.642  0.00  0.00    +0.000 C 
ATOM      7  C   UNL     1      -0.328  11.068  20.972  0.00  0.00    +0.000 C 
ATOM      8  C   UNL     1      -0.302  10.123  21.956  0.00  0.00    +0.000 C 
ATOM      9  C   UNL     1      -0.908  10.204  23.340  0.00  0.00    +0.000 C 
ATOM     10  N   UNL     1       0.342   8.905  21.735  0.00  0.00    +0.000 N 
ATOM     11  H   UNL     1       0.291   8.208  22.473  0.00  0.00    +0.000 HD
ENDROOT
BRANCH   1  16
ATOM     12  C   UNL     1       5.109   6.622  17.039  0.00  0.00    +0.000 A 
ATOM     13  C   UNL     1       4.754   5.290  16.816  0.00  0.00    +0.000 A 
ATOM     14  C   UNL     1       3.560   4.778  17.325  0.00  0.00    +0.000 A 
ATOM     15  C   UNL     1       2.710   5.602  18.062  0.00  0.00    +0.000 A 
ATOM     16  C   UNL     1       3.051   6.941  18.292  0.00  0.00    +0.000 A 
ATOM     17  C   UNL     1       4.259   7.440  17.782  0.00  0.00    +0.000 A 
BRANCH  12  19
ATOM     18  C   UNL     1       7.402   7.147  17.356  0.00  0.00    +0.000 C 
ATOM     19  O   UNL     1       6.293   7.012  16.473  0.00  0.00    +0.000 OA
ENDBRANCH  12  19
ENDBRANCH   1  16
BRANCH   6  20
ATOM     20  C   UNL     1       1.383  11.887  19.216  0.00  0.00    +0.000 A 
ATOM     21  C   UNL     1       1.815  12.234  17.949  0.00  0.00    +0.000 A 
ATOM     22  C   UNL     1       2.766  13.296  17.974  0.00  0.00    +0.000 A 
ATOM     23  C   UNL     1       3.023  13.733  19.252  0.00  0.00    +0.000 A 
ATOM     24  S   UNL     1       2.148  12.851  20.420  0.00  0.00    +0.000 S 
ENDBRANCH   6  20
BRANCH   7  25
ATOM     25  C   UNL     1      -1.037  12.402  21.100  0.00  0.00    +0.000 C 
ATOM     26  O   UNL     1      -1.874  12.746  20.269  0.00  0.00    +0.000 OA
ATOM     27  N   UNL     1      -0.688  13.151  22.211  0.00  0.00    +0.000 N 
ATOM     28  H   UNL     1      -0.024  12.779  22.873  0.00  0.00    +0.000 HD
BRANCH  27  29
ATOM     29  C   UNL     1      -1.181  14.421  22.600  0.00  0.00    +0.000 A 
ATOM     30  C   UNL     1      -0.628  15.640  22.227  0.00  0.00    +0.000 A 
ATOM     31  C   UNL     1      -1.174  16.828  22.721  0.00  0.00    +0.000 A 
ATOM     32  C   UNL     1      -2.268  16.759  23.569  0.00  0.00    +0.000 A 
ATOM     33  N   UNL     1      -2.851  15.602  23.936  0.00  0.00    +0.000 NA
ATOM     34  C   UNL     1      -2.298  14.468  23.441  0.00  0.00    +0.000 A 
ENDBRANCH  27  29
ENDBRANCH   7  25
TORSDOF 5
ENDMDL
MODEL 6
REMARK VINA RESULT:      -7.4      1.610      2.163
REMARK  Name = 
REMARK  7 active torsions:
REMARK  status: ('A' for Active; 'I' for Inactive)
REMARK    1  A    between atoms: C_1  and  O_2
REMARK    2  A    between atoms: O_2  and  C_3
REMARK    3  A    between atoms: C_7  and  C_8
REMARK    4  A    between atoms: C_13  and  C_14
REMARK    5  A    between atoms: C_19  and  C_20
REMARK    6  A    between atoms: N_22  and  C_23
REMARK    7  A    between atoms: C_29  and  C_30
REMARK                            x       y       z     vdW  Elec       q    Type
REMARK                         _______ _______ _______ _____ _____    ______ ____
ROOT
ATOM      1  C   UNL     1       1.675   8.479  19.570  0.00  0.00    +0.000 A 
ATOM      2  N   UNL     1       1.036   8.318  20.788  0.00  0.00    +0.000 NA
ATOM      3  C   UNL     1       0.424   9.459  20.961  0.00  0.00    +0.000 A 
ATOM      4  N   UNL     1       0.676  10.273  19.905  0.00  0.00    +0.000 N 
ATOM      5  N   UNL     1       1.419   9.651  18.967  0.00  0.00    +0.000 NA
ATOM      6  C   UNL     1       0.100  11.608  19.747  0.00  0.00    +0.000 C 
ATOM      7  C   UNL     1      -0.756  12.034  20.954  0.00  0.00    +0.000 C 
ATOM      8  C   UNL     1      -0.920  11.177  22.002  0.00  0.00    +0.000 C 
ATOM      9  C   UNL     1      -1.675  11.418  23.292  0.00  0.00    +0.000 C 
ATOM     10  N   UNL     1      -0.355   9.901  21.955  0.00  0.00    +0.000 N 
ATOM     11  H   UNL     1      -0.548   9.275  22.733  0.00  0.00    +0.000 HD
ENDROOT
BRANCH   1  16
ATOM     12  C   UNL     1       4.101   6.763  17.278  0.00  0.00    +0.000 A 
ATOM     13  C   UNL     1       4.229   5.520  17.903  0.00  0.00    +0.000 A 
ATOM     14  C   UNL     1       3.539   5.245  19.084  0.00  0.00    +0.000 A 
ATOM     15  C   UNL     1       2.710   6.215  19.647  0.00  0.00    +0.000 A 
ATOM     16  C   UNL     1       2.569   7.465  19.030  0.00  0.00    +0.000 A 
ATOM     17  C   UNL     1       3.277   7.732  17.848  0.00  0.00    +0.000 A 
BRANCH  12  19
ATOM     18  C   UNL     1       5.459   5.739  15.622  0.00  0.00    +0.000 C 
ATOM     19  O   UNL     1       4.811   6.907  16.117  0.00  0.00    +0.000 OA
ENDBRANCH  12  19
ENDBRANCH   1  16
BRANCH   6  20
ATOM     20  C   UNL     1       1.209  12.577  19.364  0.00  0.00    +0.000 A 
ATOM     21  C   UNL     1       1.534  13.096  18.124  0.00  0.00    +0.000 A 
ATOM     22  C   UNL     1       2.666  13.961  18.180  0.00  0.00    +0.000 A 
ATOM     23  C   UNL     1       3.163  14.085  19.456  0.00  0.00    +0.000 A 
ATOM     24  S   UNL     1       2.290  13.142  20.578  0.00  0.00    +0.000 S 
ENDBRANCH   6  20
BRANCH   7  25
ATOM     25  C   UNL     1      -1.365  13.421  20.892  0.00  0.00    +0.000 C 
ATOM     26  O   UNL     1      -2.286  13.664  20.117  0.00  0.00    +0.000 OA
ATOM     27  N   UNL     1      -0.828  14.341  21.776  0.00  0.00    +0.000 N 
ATOM     28  H   UNL     1      -0.102  14.051  22.415  0.00  0.00    +0.000 HD
BRANCH  27  29
ATOM     29  C   UNL     1      -1.193  15.698  21.955  0.00  0.00    +0.000 A 
ATOM     30  C   UNL     1      -0.586  16.777  21.324  0.00  0.00    +0.000 A 
ATOM     31  C   UNL     1      -1.000  18.077  21.624  0.00  0.00    +0.000 A 
ATOM     32  C   UNL     1      -2.019  18.258  22.545  0.00  0.00    +0.000 A 
ATOM     33  N   UNL     1      -2.652  17.241  23.162  0.00  0.00    +0.000 NA
ATOM     34  C   UNL     1      -2.228  15.993  22.849  0.00  0.00    +0.000 A 
ENDBRANCH  27  29
ENDBRANCH   7  25
TORSDOF 5
ENDMDL
MODEL 7
REMARK VINA RESULT:      -7.4      1.734      1.772
REMARK  Name = 
REMARK  7 active torsions:
REMARK  status: ('A' for Active; 'I' for Inactive)
REMARK    1  A    between atoms: C_1  and  O_2
REMARK    2  A    between atoms: O_2  and  C_3
REMARK    3  A    between atoms: C_7  and  C_8
REMARK    4  A    between atoms: C_13  and  C_14
REMARK    5  A    between atoms: C_19  and  C_20
REMARK    6  A    between atoms: N_22  and  C_23
REMARK    7  A    between atoms: C_29  and  C_30
REMARK                            x       y       z     vdW  Elec       q    Type
REMARK                         _______ _______ _______ _____ _____    ______ ____
ROOT
ATOM      1  C   UNL     1       2.190   7.851  18.926  0.00  0.00    +0.000 A 
ATOM      2  N   UNL     1       1.834   7.488  20.213  0.00  0.00    +0.000 NA
ATOM      3  C   UNL     1       1.144   8.513  20.637  0.00  0.00    +0.000 A 
ATOM      4  N   UNL     1       1.084   9.453  19.659  0.00  0.00    +0.000 N 
ATOM      5  N   UNL     1       1.687   9.031  18.529  0.00  0.00    +0.000 NA
ATOM      6  C   UNL     1       0.341  10.707  19.776  0.00  0.00    +0.000 C 
ATOM      7  C   UNL     1      -0.296  10.894  21.166  0.00  0.00    +0.000 C 
ATOM      8  C   UNL     1      -0.147   9.925  22.114  0.00  0.00    +0.000 C 
ATOM      9  C   UNL     1      -0.648   9.936  23.542  0.00  0.00    +0.000 C 
ATOM     10  N   UNL     1       0.538   8.748  21.806  0.00  0.00    +0.000 N 
ATOM     11  H   UNL     1       0.578   8.029  22.524  0.00  0.00    +0.000 HD
ENDROOT
BRANCH   1  16
ATOM     12  C   UNL     1       3.781   4.808  17.412  0.00  0.00    +0.000 A 
ATOM     13  C   UNL     1       4.780   5.388  16.627  0.00  0.00    +0.000 A 
ATOM     14  C   UNL     1       4.927   6.775  16.575  0.00  0.00    +0.000 A 
ATOM     15  C   UNL     1       4.072   7.592  17.314  0.00  0.00    +0.000 A 
ATOM     16  C   UNL     1       3.066   7.024  18.108  0.00  0.00    +0.000 A 
ATOM     17  C   UNL     1       2.924   5.629  18.143  0.00  0.00    +0.000 A 
BRANCH  12  19
ATOM     18  C   UNL     1       3.914   2.788  18.652  0.00  0.00    +0.000 C 
ATOM     19  O   UNL     1       3.750   3.440  17.396  0.00  0.00    +0.000 OA
ENDBRANCH  12  19
ENDBRANCH   1  16
BRANCH   6  20
ATOM     20  C   UNL     1       1.232  11.850  19.312  0.00  0.00    +0.000 A 
ATOM     21  C   UNL     1       1.389  12.384  18.046  0.00  0.00    +0.000 A 
ATOM     22  C   UNL     1       2.346  13.441  18.021  0.00  0.00    +0.000 A 
ATOM     23  C   UNL     1       2.882  13.687  19.264  0.00  0.00    +0.000 A 
ATOM     24  S   UNL     1       2.258  12.633  20.451  0.00  0.00    +0.000 S 
ENDBRANCH   6  20
BRANCH   7  25
ATOM     25  C   UNL     1      -1.058  12.186  21.389  0.00  0.00    +0.000 C 
ATOM     26  O   UNL     1      -0.619  13.045  22.151  0.00  0.00    +0.000 OA
ATOM     27  N   UNL     1      -2.229  12.314  20.662  0.00  0.00    +0.000 N 
ATOM     28  H   UNL     1      -2.499  11.583  20.022  0.00  0.00    +0.000 HD
BRANCH  27  29
ATOM     29  C   UNL     1      -3.139  13.400  20.655  0.00  0.00    +0.000 A 
ATOM     30  C   UNL     1      -2.795  14.730  20.860  0.00  0.00    +0.000 A 
ATOM     31  C   UNL     1      -3.794  15.707  20.883  0.00  0.00    +0.000 A 
ATOM     32  C   UNL     1      -5.111  15.322  20.690  0.00  0.00    +0.000 A 
ATOM     33  N   UNL     1      -5.487  14.048  20.464  0.00  0.00    +0.000 NA
ATOM     34  C   UNL     1      -4.495  13.125  20.448  0.00  0.00    +0.000 A 
ENDBRANCH  27  29
ENDBRANCH   7  25
TORSDOF 5
ENDMDL
MODEL 8
REMARK VINA RESULT:      -7.3      1.597      1.730
REMARK  Name = 
REMARK  7 active torsions:
REMARK  status: ('A' for Active; 'I' for Inactive)
REMARK    1  A    between atoms: C_1  and  O_2
REMARK    2  A    between atoms: O_2  and  C_3
REMARK    3  A    between atoms: C_7  and  C_8
REMARK    4  A    between atoms: C_13  and  C_14
REMARK    5  A    between atoms: C_19  and  C_20
REMARK    6  A    between atoms: N_22  and  C_23
REMARK    7  A    between atoms: C_29  and  C_30
REMARK                            x       y       z     vdW  Elec       q    Type
REMARK                         _______ _______ _______ _____ _____    ______ ____
ROOT
ATOM      1  C   UNL     1       2.242   7.749  18.936  0.00  0.00    +0.000 A 
ATOM      2  N   UNL     1       2.049   7.395  20.260  0.00  0.00    +0.000 NA
ATOM      3  C   UNL     1       1.329   8.376  20.734  0.00  0.00    +0.000 A 
ATOM      4  N   UNL     1       1.096   9.283  19.750  0.00  0.00    +0.000 N 
ATOM      5  N   UNL     1       1.611   8.877  18.571  0.00  0.00    +0.000 NA
ATOM      6  C   UNL     1       0.274  10.480  19.921  0.00  0.00    +0.000 C 
ATOM      7  C   UNL     1      -0.229  10.656  21.365  0.00  0.00    +0.000 C 
ATOM      8  C   UNL     1       0.091   9.726  22.311  0.00  0.00    +0.000 C 
ATOM      9  C   UNL     1      -0.260   9.738  23.783  0.00  0.00    +0.000 C 
ATOM     10  N   UNL     1       0.830   8.596  21.955  0.00  0.00    +0.000 N 
ATOM     11  H   UNL     1       0.999   7.902  22.678  0.00  0.00    +0.000 HD
ENDROOT
BRANCH   1  16
ATOM     12  C   UNL     1       3.807   4.792  17.234  0.00  0.00    +0.000 A 
ATOM     13  C   UNL     1       4.758   5.419  16.425  0.00  0.00    +0.000 A 
ATOM     14  C   UNL     1       4.879   6.809  16.418  0.00  0.00    +0.000 A 
ATOM     15  C   UNL     1       4.047   7.583  17.227  0.00  0.00    +0.000 A 
ATOM     16  C   UNL     1       3.091   6.969  18.046  0.00  0.00    +0.000 A 
ATOM     17  C   UNL     1       2.973   5.571  18.036  0.00  0.00    +0.000 A 
BRANCH  12  19
ATOM     18  C   UNL     1       2.591   2.781  17.569  0.00  0.00    +0.000 C 
ATOM     19  O   UNL     1       3.797   3.426  17.169  0.00  0.00    +0.000 OA
ENDBRANCH  12  19
ENDBRANCH   1  16
BRANCH   6  20
ATOM     20  C   UNL     1       1.022  11.673  19.345  0.00  0.00    +0.000 A 
ATOM     21  C   UNL     1       2.313  12.104  19.590  0.00  0.00    +0.000 A 
ATOM     22  C   UNL     1       2.635  13.289  18.864  0.00  0.00    +0.000 A 
ATOM     23  C   UNL     1       1.588  13.719  18.083  0.00  0.00    +0.000 A 
ATOM     24  S   UNL     1       0.215  12.721  18.243  0.00  0.00    +0.000 S 
ENDBRANCH   6  20
BRANCH   7  25
ATOM     25  C   UNL     1      -1.061  11.892  21.643  0.00  0.00    +0.000 C 
ATOM     26  O   UNL     1      -0.534  12.916  22.071  0.00  0.00    +0.000 OA
ATOM     27  N   UNL     1      -2.410  11.774  21.353  0.00  0.00    +0.000 N 
ATOM     28  H   UNL     1      -2.759  10.913  20.960  0.00  0.00    +0.000 HD
BRANCH  27  29
ATOM     29  C   UNL     1      -3.425  12.751  21.498  0.00  0.00    +0.000 A 
ATOM     30  C   UNL     1      -3.795  13.668  20.521  0.00  0.00    +0.000 A 
ATOM     31  C   UNL     1      -4.776  14.621  20.803  0.00  0.00    +0.000 A 
ATOM     32  C   UNL     1      -5.367  14.622  22.056  0.00  0.00    +0.000 A 
ATOM     33  N   UNL     1      -5.058  13.737  23.024  0.00  0.00    +0.000 NA
ATOM     34  C   UNL     1      -4.102  12.826  22.720  0.00  0.00    +0.000 A 
ENDBRANCH  27  29
ENDBRANCH   7  25
TORSDOF 5
ENDMDL
MODEL 9
REMARK VINA RESULT:      -7.3      1.711      2.185
REMARK  Name = 
REMARK  7 active torsions:
REMARK  status: ('A' for Active; 'I' for Inactive)
REMARK    1  A    between atoms: C_1  and  O_2
REMARK    2  A    between atoms: O_2  and  C_3
REMARK    3  A    between atoms: C_7  and  C_8
REMARK    4  A    between atoms: C_13  and  C_14
REMARK    5  A    between atoms: C_19  and  C_20
REMARK    6  A    between atoms: N_22  and  C_23
REMARK    7  A    between atoms: C_29  and  C_30
REMARK                            x       y       z     vdW  Elec       q    Type
REMARK                         _______ _______ _______ _____ _____    ______ ____
ROOT
ATOM      1  C   UNL     1       1.469   8.759  19.649  0.00  0.00    +0.000 A 
ATOM      2  N   UNL     1       0.702   8.553  20.782  0.00  0.00    +0.000 NA
ATOM      3  C   UNL     1       0.187   9.730  21.017  0.00  0.00    +0.000 A 
ATOM      4  N   UNL     1       0.618  10.609  20.076  0.00  0.00    +0.000 N 
ATOM      5  N   UNL     1       1.387  10.003  19.149  0.00  0.00    +0.000 NA
ATOM      6  C   UNL     1       0.190  12.005  20.007  0.00  0.00    +0.000 C 
ATOM      7  C   UNL     1      -0.736  12.404  21.170  0.00  0.00    +0.000 C 
ATOM      8  C   UNL     1      -1.083  11.474  22.107  0.00  0.00    +0.000 C 
ATOM      9  C   UNL     1      -1.934  11.672  23.342  0.00  0.00    +0.000 C 
ATOM     10  N   UNL     1      -0.640  10.157  21.979  0.00  0.00    +0.000 N 
ATOM     11  H   UNL     1      -0.967   9.485  22.668  0.00  0.00    +0.000 HD
ENDROOT
BRANCH   1  16
ATOM     12  C   UNL     1       3.283   5.492  19.292  0.00  0.00    +0.000 A 
ATOM     13  C   UNL     1       3.988   5.704  18.105  0.00  0.00    +0.000 A 
ATOM     14  C   UNL     1       3.860   6.906  17.408  0.00  0.00    +0.000 A 
ATOM     15  C   UNL     1       3.024   7.909  17.898  0.00  0.00    +0.000 A 
ATOM     16  C   UNL     1       2.312   7.712  19.089  0.00  0.00    +0.000 A 
ATOM     17  C   UNL     1       2.442   6.495  19.775  0.00  0.00    +0.000 A 
BRANCH  12  19
ATOM     18  C   UNL     1       4.458   3.430  19.267  0.00  0.00    +0.000 C 
ATOM     19  O   UNL     1       3.504   4.284  19.893  0.00  0.00    +0.000 OA
ENDBRANCH  12  19
ENDBRANCH   1  16
BRANCH   6  20
ATOM     20  C   UNL     1       1.419  12.885  19.824  0.00  0.00    +0.000 A 
ATOM     21  C   UNL     1       2.336  13.320  20.763  0.00  0.00    +0.000 A 
ATOM     22  C   UNL     1       3.339  14.156  20.192  0.00  0.00    +0.000 A 
ATOM     23  C   UNL     1       3.164  14.326  18.838  0.00  0.00    +0.000 A 
ATOM     24  S   UNL     1       1.783  13.508  18.262  0.00  0.00    +0.000 S 
ENDBRANCH   6  20
BRANCH   7  25
ATOM     25  C   UNL     1      -1.200  13.846  21.198  0.00  0.00    +0.000 C 
ATOM     26  O   UNL     1      -2.044  14.246  20.398  0.00  0.00    +0.000 OA
ATOM     27  N   UNL     1      -0.632  14.631  22.187  0.00  0.00    +0.000 N 
ATOM     28  H   UNL     1       0.021  14.217  22.835  0.00  0.00    +0.000 HD
BRANCH  27  29
ATOM     29  C   UNL     1      -0.872  15.999  22.464  0.00  0.00    +0.000 A 
ATOM     30  C   UNL     1      -0.188  17.062  21.886  0.00  0.00    +0.000 A 
ATOM     31  C   UNL     1      -0.480  18.370  22.283  0.00  0.00    +0.000 A 
ATOM     32  C   UNL     1      -1.457  18.575  23.243  0.00  0.00    +0.000 A 
ATOM     33  N   UNL     1      -2.162  17.577  23.811  0.00  0.00    +0.000 NA
ATOM     34  C   UNL     1      -1.855  16.321  23.406  0.00  0.00    +0.000 A 
ENDBRANCH  27  29
ENDBRANCH   7  25
TORSDOF 5
ENDMDL
