MODEL 1
REMARK VINA RESULT:      -7.9      0.000      0.000
REMARK  Name = 
REMARK  2 active torsions:
REMARK  status: ('A' for Active; 'I' for Inactive)
REMARK    1  A    between atoms: C_1  and  N_2
REMARK    2  A    between atoms: C_5  and  C_6
REMARK                            x       y       z     vdW  Elec       q    Type
REMARK                         _______ _______ _______ _____ _____    ______ ____
ROOT
ATOM      1  C   UNL     1       3.872   1.307  18.188  0.00  0.00    +0.000 C 
ATOM      2  N   UNL     1       4.190   2.698  18.499  0.00  0.00    +0.000 N 
ATOM      3  C   UNL     1       5.057   3.438  17.605  0.00  0.00    +0.000 C 
ATOM      4  C   UNL     1       4.650   4.803  17.188  0.00  0.00    +0.000 A 
ATOM      5  C   UNL     1       5.091   5.501  16.074  0.00  0.00    +0.000 A 
ATOM      6  N   UNL     1       4.585   6.770  16.150  0.00  0.00    +0.000 N 
ATOM      7  C   UNL     1       3.813   6.897  17.261  0.00  0.00    +0.000 A 
ATOM      8  N   UNL     1       3.227   8.053  17.634  0.00  0.00    +0.000 NA
ATOM      9  C   UNL     1       2.524   7.924  18.779  0.00  0.00    +0.000 A 
ATOM     10  C   UNL     1       2.342   6.740  19.481  0.00  0.00    +0.000 A 
ATOM     11  C   UNL     1       2.929   5.536  19.027  0.00  0.00    +0.000 A 
ATOM     12  C   UNL     1       3.753   5.669  17.901  0.00  0.00    +0.000 A 
ATOM     13  C   UNL     1       2.787   4.256  19.765  0.00  0.00    +0.000 A 
ATOM     14  C   UNL     1       1.655   4.027  20.571  0.00  0.00    +0.000 A 
ATOM     15  C   UNL     1       1.605   2.955  21.458  0.00  0.00    +0.000 A 
ATOM     16  F   UNL     1       0.471   2.687  22.114  0.00  0.00    +0.000 F 
ATOM     17  C   UNL     1       2.718   2.166  21.674  0.00  0.00    +0.000 A 
ATOM     18  C   UNL     1       3.796   2.309  20.816  0.00  0.00    +0.000 A 
ATOM     19  C   UNL     1       3.713   3.188  19.717  0.00  0.00    +0.000 A 
ATOM     20  H   UNL     1       4.774   7.524  15.501  0.00  0.00    +0.000 HD
ENDROOT
BRANCH   5  21
ATOM     21  C   UNL     1       5.904   5.156  14.960  0.00  0.00    +0.000 C 
ATOM     22  C   UNL     1       5.447   4.164  14.170  0.00  0.00    +0.000 C 
ATOM     23  C   UNL     1       6.199   3.722  12.948  0.00  0.00    +0.000 C 
ATOM     24  C   UNL     1       7.248   4.749  12.501  0.00  0.00    +0.000 C 
ATOM     25  N   UNL     1       8.056   5.206  13.633  0.00  0.00    +0.000 NA
ATOM     26  C   UNL     1       7.216   5.866  14.641  0.00  0.00    +0.000 C 
ATOM     27  H   UNL     1       8.755   5.870  13.307  0.00  0.00    +0.000 HD
ENDBRANCH   5  21
TORSDOF 1
ENDMDL
MODEL 2
REMARK VINA RESULT:      -7.5      2.187      4.587
REMARK  Name = 
REMARK  2 active torsions:
REMARK  status: ('A' for Active; 'I' for Inactive)
REMARK    1  A    between atoms: C_1  and  N_2
REMARK    2  A    between atoms: C_5  and  C_6
REMARK                            x       y       z     vdW  Elec       q    Type
REMARK                         _______ _______ _______ _____ _____    ______ ____
ROOT
ATOM      1  C   UNL     1       3.266   9.766  17.784  0.00  0.00    +0.000 C 
ATOM      2  N   UNL     1       2.717   8.427  17.974  0.00  0.00    +0.000 N 
ATOM      3  C   UNL     1       3.274   7.323  17.218  0.00  0.00    +0.000 C 
ATOM      4  C   UNL     1       3.603   6.065  17.934  0.00  0.00    +0.000 A 
ATOM      5  C   UNL     1       4.481   5.075  17.519  0.00  0.00    +0.000 A 
ATOM      6  N   UNL     1       4.371   4.028  18.393  0.00  0.00    +0.000 N 
ATOM      7  C   UNL     1       3.473   4.329  19.368  0.00  0.00    +0.000 A 
ATOM      8  N   UNL     1       3.111   3.467  20.341  0.00  0.00    +0.000 NA
ATOM      9  C   UNL     1       2.195   3.997  21.179  0.00  0.00    +0.000 A 
ATOM     10  C   UNL     1       1.713   5.297  21.123  0.00  0.00    +0.000 A 
ATOM     11  C   UNL     1       2.158   6.189  20.120  0.00  0.00    +0.000 A 
ATOM     12  C   UNL     1       3.025   5.626  19.173  0.00  0.00    +0.000 A 
ATOM     13  C   UNL     1       1.643   7.576  20.003  0.00  0.00    +0.000 A 
ATOM     14  C   UNL     1       1.170   8.252  21.145  0.00  0.00    +0.000 A 
ATOM     15  C   UNL     1       0.462   9.446  21.037  0.00  0.00    +0.000 A 
ATOM     16  F   UNL     1       0.140  10.131  22.140  0.00  0.00    +0.000 F 
ATOM     17  C   UNL     1       0.084   9.931  19.800  0.00  0.00    +0.000 A 
ATOM     18  C   UNL     1       0.631   9.342  18.673  0.00  0.00    +0.000 A 
ATOM     19  C   UNL     1       1.598   8.324  18.804  0.00  0.00    +0.000 A 
ATOM     20  H   UNL     1       4.855   3.142  18.321  0.00  0.00    +0.000 HD
ENDROOT
BRANCH   5  21
ATOM     21  C   UNL     1       5.398   4.969  16.439  0.00  0.00    +0.000 C 
ATOM     22  C   UNL     1       5.120   4.036  15.506  0.00  0.00    +0.000 C 
ATOM     23  C   UNL     1       5.997   3.842  14.304  0.00  0.00    +0.000 C 
ATOM     24  C   UNL     1       6.935   5.032  14.061  0.00  0.00    +0.000 C 
ATOM     25  N   UNL     1       7.607   5.434  15.298  0.00  0.00    +0.000 NA
ATOM     26  C   UNL     1       6.629   5.861  16.308  0.00  0.00    +0.000 C 
ATOM     27  H   UNL     1       8.236   6.212  15.107  0.00  0.00    +0.000 HD
ENDBRANCH   5  21
TORSDOF 1
ENDMDL
MODEL 3
REMARK VINA RESULT:      -7.4      9.333     12.886
REMARK  Name = 
REMARK  2 active torsions:
REMARK  status: ('A' for Active; 'I' for Inactive)
REMARK    1  A    between atoms: C_1  and  N_2
REMARK    2  A    between atoms: C_5  and  C_6
REMARK                            x       y       z     vdW  Elec       q    Type
REMARK                         _______ _______ _______ _____ _____    ______ ____
ROOT
ATOM      1  C   UNL     1      -0.846  12.694  18.212  0.00  0.00    +0.000 C 
ATOM      2  N   UNL     1      -1.961  12.047  18.896  0.00  0.00    +0.000 N 
ATOM      3  C   UNL     1      -2.193  12.339  20.297  0.00  0.00    +0.000 C 
ATOM      4  C   UNL     1      -3.575  12.655  20.738  0.00  0.00    +0.000 A 
ATOM      5  C   UNL     1      -3.948  13.333  21.888  0.00  0.00    +0.000 A 
ATOM      6  N   UNL     1      -5.311  13.271  21.985  0.00  0.00    +0.000 N 
ATOM      7  C   UNL     1      -5.822  12.599  20.920  0.00  0.00    +0.000 A 
ATOM      8  N   UNL     1      -7.135  12.327  20.770  0.00  0.00    +0.000 NA
ATOM      9  C   UNL     1      -7.388  11.637  19.637  0.00  0.00    +0.000 A 
ATOM     10  C   UNL     1      -6.445  11.294  18.678  0.00  0.00    +0.000 A 
ATOM     11  C   UNL     1      -5.086  11.646  18.846  0.00  0.00    +0.000 A 
ATOM     12  C   UNL     1      -4.782  12.265  20.066  0.00  0.00    +0.000 A 
ATOM     13  C   UNL     1      -4.040  11.269  17.862  0.00  0.00    +0.000 A 
ATOM     14  C   UNL     1      -4.379  11.083  16.507  0.00  0.00    +0.000 A 
ATOM     15  C   UNL     1      -3.486  10.499  15.613  0.00  0.00    +0.000 A 
ATOM     16  F   UNL     1      -3.784  10.453  14.309  0.00  0.00    +0.000 F 
ATOM     17  C   UNL     1      -2.295   9.959  16.057  0.00  0.00    +0.000 A 
ATOM     18  C   UNL     1      -1.900  10.230  17.357  0.00  0.00    +0.000 A 
ATOM     19  C   UNL     1      -2.670  11.091  18.165  0.00  0.00    +0.000 A 
ATOM     20  H   UNL     1      -5.870  13.636  22.746  0.00  0.00    +0.000 HD
ENDROOT
BRANCH   5  21
ATOM     21  C   UNL     1      -3.224  14.027  22.895  0.00  0.00    +0.000 C 
ATOM     22  C   UNL     1      -3.791  15.152  23.373  0.00  0.00    +0.000 C 
ATOM     23  C   UNL     1      -3.139  15.962  24.456  0.00  0.00    +0.000 C 
ATOM     24  C   UNL     1      -2.048  15.180  25.199  0.00  0.00    +0.000 C 
ATOM     25  N   UNL     1      -1.149  14.507  24.259  0.00  0.00    +0.000 NA
ATOM     26  C   UNL     1      -1.885  13.537  23.438  0.00  0.00    +0.000 C 
ATOM     27  H   UNL     1      -0.424  14.012  24.776  0.00  0.00    +0.000 HD
ENDBRANCH   5  21
TORSDOF 1
ENDMDL
MODEL 4
REMARK VINA RESULT:      -7.4      9.259     13.220
REMARK  Name = 
REMARK  2 active torsions:
REMARK  status: ('A' for Active; 'I' for Inactive)
REMARK    1  A    between atoms: C_1  and  N_2
REMARK    2  A    between atoms: C_5  and  C_6
REMARK                            x       y       z     vdW  Elec       q    Type
REMARK                         _______ _______ _______ _____ _____    ______ ____
ROOT
ATOM      1  C   UNL     1      -0.773  12.509  18.843  0.00  0.00    +0.000 C 
ATOM      2  N   UNL     1      -2.094  12.029  19.239  0.00  0.00    +0.000 N 
ATOM      3  C   UNL     1      -2.633  12.430  20.523  0.00  0.00    +0.000 C 
ATOM      4  C   UNL     1      -4.033  12.919  20.585  0.00  0.00    +0.000 A 
ATOM      5  C   UNL     1      -4.599  13.702  21.579  0.00  0.00    +0.000 A 
ATOM      6  N   UNL     1      -5.941  13.793  21.324  0.00  0.00    +0.000 N 
ATOM      7  C   UNL     1      -6.245  13.116  20.186  0.00  0.00    +0.000 A 
ATOM      8  N   UNL     1      -7.501  12.979  19.713  0.00  0.00    +0.000 NA
ATOM      9  C   UNL     1      -7.542  12.253  18.575  0.00  0.00    +0.000 A 
ATOM     10  C   UNL     1      -6.436  11.752  17.901  0.00  0.00    +0.000 A 
ATOM     11  C   UNL     1      -5.131  11.965  18.401  0.00  0.00    +0.000 A 
ATOM     12  C   UNL     1      -5.072  12.621  19.638  0.00  0.00    +0.000 A 
ATOM     13  C   UNL     1      -3.924  11.418  17.731  0.00  0.00    +0.000 A 
ATOM     14  C   UNL     1      -3.932  11.187  16.341  0.00  0.00    +0.000 A 
ATOM     15  C   UNL     1      -2.920  10.457  15.725  0.00  0.00    +0.000 A 
ATOM     16  F   UNL     1      -2.884  10.364  14.390  0.00  0.00    +0.000 F 
ATOM     17  C   UNL     1      -1.952   9.820  16.476  0.00  0.00    +0.000 A 
ATOM     18  C   UNL     1      -1.867  10.126  17.825  0.00  0.00    +0.000 A 
ATOM     19  C   UNL     1      -2.706  11.113  18.381  0.00  0.00    +0.000 A 
ATOM     20  H   UNL     1      -6.624  14.263  21.905  0.00  0.00    +0.000 HD
ENDROOT
BRANCH   5  21
ATOM     21  C   UNL     1      -4.073  14.374  22.715  0.00  0.00    +0.000 C 
ATOM     22  C   UNL     1      -3.409  15.523  22.478  0.00  0.00    +0.000 C 
ATOM     23  C   UNL     1      -2.827  16.339  23.595  0.00  0.00    +0.000 C 
ATOM     24  C   UNL     1      -3.411  15.963  24.963  0.00  0.00    +0.000 C 
ATOM     25  N   UNL     1      -3.417  14.512  25.154  0.00  0.00    +0.000 NA
ATOM     26  C   UNL     1      -4.252  13.856  24.139  0.00  0.00    +0.000 C 
ATOM     27  H   UNL     1      -3.790  14.290  26.075  0.00  0.00    +0.000 HD
ENDBRANCH   5  21
TORSDOF 1
ENDMDL
MODEL 5
REMARK VINA RESULT:      -7.2      9.260     13.165
REMARK  Name = 
REMARK  2 active torsions:
REMARK  status: ('A' for Active; 'I' for Inactive)
REMARK    1  A    between atoms: C_1  and  N_2
REMARK    2  A    between atoms: C_5  and  C_6
REMARK                            x       y       z     vdW  Elec       q    Type
REMARK                         _______ _______ _______ _____ _____    ______ ____
ROOT
ATOM      1  C   UNL     1      -0.785  12.556  18.583  0.00  0.00    +0.000 C 
ATOM      2  N   UNL     1      -2.087  12.100  19.059  0.00  0.00    +0.000 N 
ATOM      3  C   UNL     1      -2.554  12.537  20.360  0.00  0.00    +0.000 C 
ATOM      4  C   UNL     1      -3.945  13.042  20.483  0.00  0.00    +0.000 A 
ATOM      5  C   UNL     1      -4.450  13.856  21.486  0.00  0.00    +0.000 A 
ATOM      6  N   UNL     1      -5.802  13.955  21.300  0.00  0.00    +0.000 N 
ATOM      7  C   UNL     1      -6.172  13.254  20.197  0.00  0.00    +0.000 A 
ATOM      8  N   UNL     1      -7.452  13.118  19.793  0.00  0.00    +0.000 NA
ATOM      9  C   UNL     1      -7.560  12.366  18.678  0.00  0.00    +0.000 A 
ATOM     10  C   UNL     1      -6.497  11.837  17.959  0.00  0.00    +0.000 A 
ATOM     11  C   UNL     1      -5.165  12.048  18.385  0.00  0.00    +0.000 A 
ATOM     12  C   UNL     1      -5.034  12.732  19.600  0.00  0.00    +0.000 A 
ATOM     13  C   UNL     1      -4.000  11.472  17.665  0.00  0.00    +0.000 A 
ATOM     14  C   UNL     1      -4.084  11.208  16.284  0.00  0.00    +0.000 A 
ATOM     15  C   UNL     1      -3.112  10.452  15.633  0.00  0.00    +0.000 A 
ATOM     16  F   UNL     1      -3.148  10.327  14.302  0.00  0.00    +0.000 F 
ATOM     17  C   UNL     1      -2.112   9.824  16.348  0.00  0.00    +0.000 A 
ATOM     18  C   UNL     1      -1.953  10.161  17.683  0.00  0.00    +0.000 A 
ATOM     19  C   UNL     1      -2.753  11.170  18.258  0.00  0.00    +0.000 A 
ATOM     20  H   UNL     1      -6.450  14.445  21.904  0.00  0.00    +0.000 HD
ENDROOT
BRANCH   5  21
ATOM     21  C   UNL     1      -3.859  14.549  22.576  0.00  0.00    +0.000 C 
ATOM     22  C   UNL     1      -3.746  13.863  23.731  0.00  0.00    +0.000 C 
ATOM     23  C   UNL     1      -3.116  14.473  24.950  0.00  0.00    +0.000 C 
ATOM     24  C   UNL     1      -2.289  15.723  24.620  0.00  0.00    +0.000 C 
ATOM     25  N   UNL     1      -3.033  16.633  23.747  0.00  0.00    +0.000 NA
ATOM     26  C   UNL     1      -3.352  15.984  22.469  0.00  0.00    +0.000 C 
ATOM     27  H   UNL     1      -2.471  17.461  23.560  0.00  0.00    +0.000 HD
ENDBRANCH   5  21
TORSDOF 1
ENDMDL
MODEL 6
REMARK VINA RESULT:      -7.2      9.620     13.288
REMARK  Name = 
REMARK  2 active torsions:
REMARK  status: ('A' for Active; 'I' for Inactive)
REMARK    1  A    between atoms: C_1  and  N_2
REMARK    2  A    between atoms: C_5  and  C_6
REMARK                            x       y       z     vdW  Elec       q    Type
REMARK                         _______ _______ _______ _____ _____    ______ ____
ROOT
ATOM      1  C   UNL     1      -6.391  10.729  18.311  0.00  0.00    +0.000 C 
ATOM      2  N   UNL     1      -5.299  11.643  18.630  0.00  0.00    +0.000 N 
ATOM      3  C   UNL     1      -5.453  12.565  19.737  0.00  0.00    +0.000 C 
ATOM      4  C   UNL     1      -4.344  12.692  20.716  0.00  0.00    +0.000 A 
ATOM      5  C   UNL     1      -4.428  13.177  22.012  0.00  0.00    +0.000 A 
ATOM      6  N   UNL     1      -3.155  13.263  22.508  0.00  0.00    +0.000 N 
ATOM      7  C   UNL     1      -2.265  12.824  21.580  0.00  0.00    +0.000 A 
ATOM      8  N   UNL     1      -0.928  12.845  21.761  0.00  0.00    +0.000 NA
ATOM      9  C   UNL     1      -0.259  12.368  20.690  0.00  0.00    +0.000 A 
ATOM     10  C   UNL     1      -0.845  11.840  19.547  0.00  0.00    +0.000 A 
ATOM     11  C   UNL     1      -2.252  11.785  19.418  0.00  0.00    +0.000 A 
ATOM     12  C   UNL     1      -2.965  12.376  20.471  0.00  0.00    +0.000 A 
ATOM     13  C   UNL     1      -2.919  11.260  18.200  0.00  0.00    +0.000 A 
ATOM     14  C   UNL     1      -2.272  10.298  17.400  0.00  0.00    +0.000 A 
ATOM     15  C   UNL     1      -2.753   9.968  16.136  0.00  0.00    +0.000 A 
ATOM     16  F   UNL     1      -2.196   8.960  15.455  0.00  0.00    +0.000 F 
ATOM     17  C   UNL     1      -3.798  10.673  15.573  0.00  0.00    +0.000 A 
ATOM     18  C   UNL     1      -4.511  11.542  16.384  0.00  0.00    +0.000 A 
ATOM     19  C   UNL     1      -4.208  11.637  17.758  0.00  0.00    +0.000 A 
ATOM     20  H   UNL     1      -2.896  13.629  23.415  0.00  0.00    +0.000 HD
ENDROOT
BRANCH   5  21
ATOM     21  C   UNL     1      -5.512  13.562  22.846  0.00  0.00    +0.000 C 
ATOM     22  C   UNL     1      -5.725  14.886  22.977  0.00  0.00    +0.000 C 
ATOM     23  C   UNL     1      -6.854  15.422  23.810  0.00  0.00    +0.000 C 
ATOM     24  C   UNL     1      -7.915  14.357  24.116  0.00  0.00    +0.000 C 
ATOM     25  N   UNL     1      -7.297  13.114  24.582  0.00  0.00    +0.000 NA
ATOM     26  C   UNL     1      -6.414  12.553  23.550  0.00  0.00    +0.000 C 
ATOM     27  H   UNL     1      -8.021  12.432  24.796  0.00  0.00    +0.000 HD
ENDBRANCH   5  21
TORSDOF 1
ENDMDL
MODEL 7
REMARK VINA RESULT:      -7.0      7.205     11.287
REMARK  Name = 
REMARK  2 active torsions:
REMARK  status: ('A' for Active; 'I' for Inactive)
REMARK    1  A    between atoms: C_1  and  N_2
REMARK    2  A    between atoms: C_5  and  C_6
REMARK                            x       y       z     vdW  Elec       q    Type
REMARK                         _______ _______ _______ _____ _____    ______ ____
ROOT
ATOM      1  C   UNL     1       1.048  11.817  21.126  0.00  0.00    +0.000 C 
ATOM      2  N   UNL     1      -0.171  11.205  20.604  0.00  0.00    +0.000 N 
ATOM      3  C   UNL     1      -1.455  11.755  20.987  0.00  0.00    +0.000 C 
ATOM      4  C   UNL     1      -2.469  11.997  19.930  0.00  0.00    +0.000 A 
ATOM      5  C   UNL     1      -3.557  12.854  19.999  0.00  0.00    +0.000 A 
ATOM      6  N   UNL     1      -4.313  12.659  18.876  0.00  0.00    +0.000 N 
ATOM      7  C   UNL     1      -3.729  11.725  18.079  0.00  0.00    +0.000 A 
ATOM      8  N   UNL     1      -4.274  11.281  16.928  0.00  0.00    +0.000 NA
ATOM      9  C   UNL     1      -3.508  10.346  16.327  0.00  0.00    +0.000 A 
ATOM     10  C   UNL     1      -2.264   9.919  16.772  0.00  0.00    +0.000 A 
ATOM     11  C   UNL     1      -1.702  10.450  17.956  0.00  0.00    +0.000 A 
ATOM     12  C   UNL     1      -2.528  11.340  18.655  0.00  0.00    +0.000 A 
ATOM     13  C   UNL     1      -0.390   9.997  18.485  0.00  0.00    +0.000 A 
ATOM     14  C   UNL     1       0.590   9.495  17.607  0.00  0.00    +0.000 A 
ATOM     15  C   UNL     1       1.722   8.842  18.087  0.00  0.00    +0.000 A 
ATOM     16  F   UNL     1       2.697   8.491  17.240  0.00  0.00    +0.000 F 
ATOM     17  C   UNL     1       1.850   8.546  19.430  0.00  0.00    +0.000 A 
ATOM     18  C   UNL     1       0.954   9.125  20.314  0.00  0.00    +0.000 A 
ATOM     19  C   UNL     1      -0.008  10.043  19.846  0.00  0.00    +0.000 A 
ATOM     20  H   UNL     1      -5.196  13.110  18.668  0.00  0.00    +0.000 HD
ENDROOT
BRANCH   5  21
ATOM     21  C   UNL     1      -3.984  13.820  20.950  0.00  0.00    +0.000 C 
ATOM     22  C   UNL     1      -4.964  13.438  21.793  0.00  0.00    +0.000 C 
ATOM     23  C   UNL     1      -5.486  14.357  22.859  0.00  0.00    +0.000 C 
ATOM     24  C   UNL     1      -4.543  15.537  23.132  0.00  0.00    +0.000 C 
ATOM     25  N   UNL     1      -4.113  16.168  21.883  0.00  0.00    +0.000 NA
ATOM     26  C   UNL     1      -3.373  15.214  21.045  0.00  0.00    +0.000 C 
ATOM     27  H   UNL     1      -3.505  16.958  22.091  0.00  0.00    +0.000 HD
ENDBRANCH   5  21
TORSDOF 1
ENDMDL
MODEL 8
REMARK VINA RESULT:      -7.0      5.353      8.663
REMARK  Name = 
REMARK  2 active torsions:
REMARK  status: ('A' for Active; 'I' for Inactive)
REMARK    1  A    between atoms: C_1  and  N_2
REMARK    2  A    between atoms: C_5  and  C_6
REMARK                            x       y       z     vdW  Elec       q    Type
REMARK                         _______ _______ _______ _____ _____    ______ ____
ROOT
ATOM      1  C   UNL     1       2.544  12.685  17.976  0.00  0.00    +0.000 C 
ATOM      2  N   UNL     1       1.447  11.962  18.612  0.00  0.00    +0.000 N 
ATOM      3  C   UNL     1       1.435  10.513  18.560  0.00  0.00    +0.000 C 
ATOM      4  C   UNL     1       1.162   9.759  19.809  0.00  0.00    +0.000 A 
ATOM      5  C   UNL     1       1.489   8.438  20.074  0.00  0.00    +0.000 A 
ATOM      6  N   UNL     1       0.923   8.101  21.273  0.00  0.00    +0.000 N 
ATOM      7  C   UNL     1       0.268   9.171  21.795  0.00  0.00    +0.000 A 
ATOM      8  N   UNL     1      -0.437   9.126  22.944  0.00  0.00    +0.000 NA
ATOM      9  C   UNL     1      -1.004  10.315  23.243  0.00  0.00    +0.000 A 
ATOM     10  C   UNL     1      -0.843  11.487  22.517  0.00  0.00    +0.000 A 
ATOM     11  C   UNL     1      -0.049  11.506  21.347  0.00  0.00    +0.000 A 
ATOM     12  C   UNL     1       0.458  10.259  20.957  0.00  0.00    +0.000 A 
ATOM     13  C   UNL     1       0.122  12.729  20.523  0.00  0.00    +0.000 A 
ATOM     14  C   UNL     1       0.019  14.002  21.118  0.00  0.00    +0.000 A 
ATOM     15  C   UNL     1      -0.069  15.156  20.344  0.00  0.00    +0.000 A 
ATOM     16  F   UNL     1      -0.035  16.356  20.934  0.00  0.00    +0.000 F 
ATOM     17  C   UNL     1      -0.196  15.077  18.971  0.00  0.00    +0.000 A 
ATOM     18  C   UNL     1       0.013  13.848  18.367  0.00  0.00    +0.000 A 
ATOM     19  C   UNL     1       0.413  12.738  19.139  0.00  0.00    +0.000 A 
ATOM     20  H   UNL     1       0.949   7.186  21.705  0.00  0.00    +0.000 HD
ENDROOT
BRANCH   5  21
ATOM     21  C   UNL     1       2.248   7.459  19.378  0.00  0.00    +0.000 C 
ATOM     22  C   UNL     1       2.368   6.257  19.977  0.00  0.00    +0.000 C 
ATOM     23  C   UNL     1       3.123   5.130  19.335  0.00  0.00    +0.000 C 
ATOM     24  C   UNL     1       3.355   5.358  17.835  0.00  0.00    +0.000 C 
ATOM     25  N   UNL     1       3.859   6.708  17.578  0.00  0.00    +0.000 NA
ATOM     26  C   UNL     1       2.888   7.719  18.018  0.00  0.00    +0.000 C 
ATOM     27  H   UNL     1       4.022   6.827  16.580  0.00  0.00    +0.000 HD
ENDBRANCH   5  21
TORSDOF 1
ENDMDL
MODEL 9
REMARK VINA RESULT:      -6.9      7.252     11.350
REMARK  Name = 
REMARK  2 active torsions:
REMARK  status: ('A' for Active; 'I' for Inactive)
REMARK    1  A    between atoms: C_1  and  N_2
REMARK    2  A    between atoms: C_5  and  C_6
REMARK                            x       y       z     vdW  Elec       q    Type
REMARK                         _______ _______ _______ _____ _____    ______ ____
ROOT
ATOM      1  C   UNL     1       1.001  11.786  21.192  0.00  0.00    +0.000 C 
ATOM      2  N   UNL     1      -0.210  11.175  20.654  0.00  0.00    +0.000 N 
ATOM      3  C   UNL     1      -1.501  11.707  21.044  0.00  0.00    +0.000 C 
ATOM      4  C   UNL     1      -2.514  11.961  19.989  0.00  0.00    +0.000 A 
ATOM      5  C   UNL     1      -3.609  12.807  20.072  0.00  0.00    +0.000 A 
ATOM      6  N   UNL     1      -4.360  12.628  18.943  0.00  0.00    +0.000 N 
ATOM      7  C   UNL     1      -3.766  11.715  18.130  0.00  0.00    +0.000 A 
ATOM      8  N   UNL     1      -4.305  11.289  16.968  0.00  0.00    +0.000 NA
ATOM      9  C   UNL     1      -3.528  10.372  16.351  0.00  0.00    +0.000 A 
ATOM     10  C   UNL     1      -2.283   9.947  16.791  0.00  0.00    +0.000 A 
ATOM     11  C   UNL     1      -1.728  10.460  17.987  0.00  0.00    +0.000 A 
ATOM     12  C   UNL     1      -2.564  11.329  18.701  0.00  0.00    +0.000 A 
ATOM     13  C   UNL     1      -0.414  10.007  18.511  0.00  0.00    +0.000 A 
ATOM     14  C   UNL     1       0.573   9.530  17.627  0.00  0.00    +0.000 A 
ATOM     15  C   UNL     1       1.709   8.878  18.097  0.00  0.00    +0.000 A 
ATOM     16  F   UNL     1       2.689   8.552  17.246  0.00  0.00    +0.000 F 
ATOM     17  C   UNL     1       1.835   8.557  19.434  0.00  0.00    +0.000 A 
ATOM     18  C   UNL     1       0.933   9.111  20.326  0.00  0.00    +0.000 A 
ATOM     19  C   UNL     1      -0.036  10.030  19.874  0.00  0.00    +0.000 A 
ATOM     20  H   UNL     1      -5.246  13.076  18.742  0.00  0.00    +0.000 HD
ENDROOT
BRANCH   5  21
ATOM     21  C   UNL     1      -4.047  13.751  21.040  0.00  0.00    +0.000 C 
ATOM     22  C   UNL     1      -3.511  14.985  20.958  0.00  0.00    +0.000 C 
ATOM     23  C   UNL     1      -3.909  16.080  21.906  0.00  0.00    +0.000 C 
ATOM     24  C   UNL     1      -5.217  15.769  22.645  0.00  0.00    +0.000 C 
ATOM     25  N   UNL     1      -5.207  14.410  23.189  0.00  0.00    +0.000 NA
ATOM     26  C   UNL     1      -5.080  13.419  22.112  0.00  0.00    +0.000 C 
ATOM     27  H   UNL     1      -6.076  14.236  23.690  0.00  0.00    +0.000 HD
ENDBRANCH   5  21
TORSDOF 1
ENDMDL
