MODEL 1
REMARK VINA RESULT:      -8.4      0.000      0.000
REMARK  Name = 
REMARK  5 active torsions:
REMARK  status: ('A' for Active; 'I' for Inactive)
REMARK    1  A    between atoms: C_1  and  C_2
REMARK    2  A    between atoms: C_5  and  C_6
REMARK    3  A    between atoms: C_12  and  C_13
REMARK    4  A    between atoms: C_22  and  N_23
REMARK    5  A    between atoms: C_26  and  N_27
REMARK                            x       y       z     vdW  Elec       q    Type
REMARK                         _______ _______ _______ _____ _____    ______ ____
ROOT
ATOM      1  C   UNL     1       3.153   3.319  18.956  0.00  0.00    +0.000 C 
ATOM      2  C   UNL     1       2.620   4.653  19.404  0.00  0.00    +0.000 A 
ATOM      3  C   UNL     1       1.546   4.674  20.298  0.00  0.00    +0.000 A 
ATOM      4  C   UNL     1       1.101   5.878  20.817  0.00  0.00    +0.000 A 
ATOM      5  C   UNL     1       1.732   7.043  20.405  0.00  0.00    +0.000 A 
ATOM      6  N   UNL     1       2.760   7.054  19.513  0.00  0.00    +0.000 NA
ATOM      7  C   UNL     1       3.206   5.876  19.021  0.00  0.00    +0.000 A 
ENDROOT
BRANCH   5   8
ATOM      8  C   UNL     1       1.318   8.342  20.955  0.00  0.00    +0.000 A 
ATOM      9  N   UNL     1       1.793   8.809  22.130  0.00  0.00    +0.000 NA
ATOM     10  N   UNL     1       1.224  10.017  22.261  0.00  0.00    +0.000 N 
ATOM     11  C   UNL     1       0.363  10.344  21.256  0.00  0.00    +0.000 A 
ATOM     12  C   UNL     1      -0.417  11.463  21.030  0.00  0.00    +0.000 A 
ATOM     13  N   UNL     1      -1.198  11.494  19.922  0.00  0.00    +0.000 NA
ATOM     14  C   UNL     1      -1.218  10.441  19.060  0.00  0.00    +0.000 A 
ATOM     15  C   UNL     1      -0.427   9.306  19.247  0.00  0.00    +0.000 A 
ATOM     16  C   UNL     1       0.389   9.266  20.386  0.00  0.00    +0.000 A 
ATOM     17  H   UNL     1       1.462  10.571  23.077  0.00  0.00    +0.000 HD
BRANCH  14  18
ATOM     18  C   UNL     1      -2.121  10.585  17.905  0.00  0.00    +0.000 A 
ATOM     19  C   UNL     1      -1.913   9.875  16.715  0.00  0.00    +0.000 A 
ATOM     20  C   UNL     1      -2.788  10.017  15.638  0.00  0.00    +0.000 A 
ATOM     21  C   UNL     1      -3.861  10.879  15.774  0.00  0.00    +0.000 A 
ATOM     22  N   UNL     1      -4.104  11.595  16.892  0.00  0.00    +0.000 NA
ATOM     23  C   UNL     1      -3.229  11.434  17.917  0.00  0.00    +0.000 A 
ENDBRANCH  14  18
ENDBRANCH   5   8
BRANCH   7  24
ATOM     24  N   UNL     1       4.331   5.876  18.199  0.00  0.00    +0.000 N 
ATOM     25  C   UNL     1       5.627   5.615  18.828  0.00  0.00    +0.000 C 
ATOM     26  C   UNL     1       6.539   5.019  17.746  0.00  0.00    +0.000 C 
ATOM     27  C   UNL     1       6.602   5.922  16.501  0.00  0.00    +0.000 C 
ATOM     28  C   UNL     1       5.202   6.321  16.011  0.00  0.00    +0.000 C 
ATOM     29  C   UNL     1       4.397   6.911  17.168  0.00  0.00    +0.000 C 
BRANCH  27  30
ATOM     30  N   UNL     1       7.332   5.266  15.412  0.00  0.00    +0.000 NA
ATOM     31  H   UNL     1       8.279   5.642  15.363  0.00  0.00    +0.000 HD
ATOM     32  H   UNL     1       6.897   5.497  14.519  0.00  0.00    +0.000 HD
ENDBRANCH  27  30
ENDBRANCH   7  24
TORSDOF 4
ENDMDL
MODEL 2
REMARK VINA RESULT:      -8.3      2.229      8.616
REMARK  Name = 
REMARK  5 active torsions:
REMARK  status: ('A' for Active; 'I' for Inactive)
REMARK    1  A    between atoms: C_1  and  C_2
REMARK    2  A    between atoms: C_5  and  C_6
REMARK    3  A    between atoms: C_12  and  C_13
REMARK    4  A    between atoms: C_22  and  N_23
REMARK    5  A    between atoms: C_26  and  N_27
REMARK                            x       y       z     vdW  Elec       q    Type
REMARK                         _______ _______ _______ _____ _____    ______ ____
ROOT
ATOM      1  C   UNL     1       0.943  12.405  18.281  0.00  0.00    +0.000 C 
ATOM      2  C   UNL     1       1.193  10.959  18.615  0.00  0.00    +0.000 A 
ATOM      3  C   UNL     1       2.148  10.261  17.868  0.00  0.00    +0.000 A 
ATOM      4  C   UNL     1       2.484   8.964  18.218  0.00  0.00    +0.000 A 
ATOM      5  C   UNL     1       1.833   8.385  19.297  0.00  0.00    +0.000 A 
ATOM      6  N   UNL     1       0.879   9.031  20.022  0.00  0.00    +0.000 NA
ATOM      7  C   UNL     1       0.565  10.305  19.692  0.00  0.00    +0.000 A 
ENDROOT
BRANCH   5   8
ATOM      8  C   UNL     1       2.182   7.023  19.726  0.00  0.00    +0.000 A 
ATOM      9  N   UNL     1       1.684   6.475  20.855  0.00  0.00    +0.000 NA
ATOM     10  N   UNL     1       2.193   5.234  20.874  0.00  0.00    +0.000 N 
ATOM     11  C   UNL     1       3.038   4.957  19.841  0.00  0.00    +0.000 A 
ATOM     12  C   UNL     1       3.763   3.827  19.512  0.00  0.00    +0.000 A 
ATOM     13  N   UNL     1       4.544   3.859  18.404  0.00  0.00    +0.000 NA
ATOM     14  C   UNL     1       4.617   4.984  17.641  0.00  0.00    +0.000 A 
ATOM     15  C   UNL     1       3.882   6.134  17.933  0.00  0.00    +0.000 A 
ATOM     16  C   UNL     1       3.066   6.111  19.073  0.00  0.00    +0.000 A 
ATOM     17  H   UNL     1       1.926   4.620  21.637  0.00  0.00    +0.000 HD
BRANCH  14  18
ATOM     18  C   UNL     1       5.513   4.902  16.475  0.00  0.00    +0.000 A 
ATOM     19  C   UNL     1       5.202   4.111  15.361  0.00  0.00    +0.000 A 
ATOM     20  C   UNL     1       6.059   4.058  14.263  0.00  0.00    +0.000 A 
ATOM     21  C   UNL     1       7.225   4.801  14.304  0.00  0.00    +0.000 A 
ATOM     22  N   UNL     1       7.580   5.571  15.353  0.00  0.00    +0.000 NA
ATOM     23  C   UNL     1       6.724   5.595  16.405  0.00  0.00    +0.000 A 
ENDBRANCH  14  18
ENDBRANCH   5   8
BRANCH   7  24
ATOM     24  N   UNL     1      -0.326  11.005  20.502  0.00  0.00    +0.000 N 
ATOM     25  C   UNL     1      -0.397  10.626  21.914  0.00  0.00    +0.000 C 
ATOM     26  C   UNL     1      -0.867  11.867  22.688  0.00  0.00    +0.000 C 
ATOM     27  C   UNL     1      -2.179  12.428  22.110  0.00  0.00    +0.000 C 
ATOM     28  C   UNL     1      -2.101  12.614  20.588  0.00  0.00    +0.000 C 
ATOM     29  C   UNL     1      -1.636  11.315  19.930  0.00  0.00    +0.000 C 
BRANCH  27  30
ATOM     30  N   UNL     1      -2.528  13.705  22.742  0.00  0.00    +0.000 NA
ATOM     31  H   UNL     1      -2.545  13.588  23.755  0.00  0.00    +0.000 HD
ATOM     32  H   UNL     1      -3.476  13.970  22.478  0.00  0.00    +0.000 HD
ENDBRANCH  27  30
ENDBRANCH   7  24
TORSDOF 4
ENDMDL
MODEL 3
REMARK VINA RESULT:      -8.0      2.470      8.647
REMARK  Name = 
REMARK  5 active torsions:
REMARK  status: ('A' for Active; 'I' for Inactive)
REMARK    1  A    between atoms: C_1  and  C_2
REMARK    2  A    between atoms: C_5  and  C_6
REMARK    3  A    between atoms: C_12  and  C_13
REMARK    4  A    between atoms: C_22  and  N_23
REMARK    5  A    between atoms: C_26  and  N_27
REMARK                            x       y       z     vdW  Elec       q    Type
REMARK                         _______ _______ _______ _____ _____    ______ ____
ROOT
ATOM      1  C   UNL     1       0.779  11.977  18.510  0.00  0.00    +0.000 C 
ATOM      2  C   UNL     1       1.106  10.536  18.796  0.00  0.00    +0.000 A 
ATOM      3  C   UNL     1       1.972   9.867  17.926  0.00  0.00    +0.000 A 
ATOM      4  C   UNL     1       2.382   8.576  18.217  0.00  0.00    +0.000 A 
ATOM      5  C   UNL     1       1.891   7.974  19.367  0.00  0.00    +0.000 A 
ATOM      6  N   UNL     1       1.023   8.593  20.214  0.00  0.00    +0.000 NA
ATOM      7  C   UNL     1       0.638   9.859  19.940  0.00  0.00    +0.000 A 
ENDROOT
BRANCH   5   8
ATOM      8  C   UNL     1       2.325   6.620  19.735  0.00  0.00    +0.000 A 
ATOM      9  N   UNL     1       1.905   6.012  20.865  0.00  0.00    +0.000 NA
ATOM     10  N   UNL     1       2.475   4.798  20.821  0.00  0.00    +0.000 N 
ATOM     11  C   UNL     1       3.286   4.597  19.744  0.00  0.00    +0.000 A 
ATOM     12  C   UNL     1       4.050   3.516  19.346  0.00  0.00    +0.000 A 
ATOM     13  N   UNL     1       4.779   3.622  18.208  0.00  0.00    +0.000 NA
ATOM     14  C   UNL     1       4.761   4.773  17.480  0.00  0.00    +0.000 A 
ATOM     15  C   UNL     1       3.985   5.874  17.841  0.00  0.00    +0.000 A 
ATOM     16  C   UNL     1       3.223   5.774  19.014  0.00  0.00    +0.000 A 
ATOM     17  H   UNL     1       2.273   4.149  21.573  0.00  0.00    +0.000 HD
BRANCH  14  18
ATOM     18  C   UNL     1       5.608   4.772  16.274  0.00  0.00    +0.000 A 
ATOM     19  C   UNL     1       5.271   4.024  15.138  0.00  0.00    +0.000 A 
ATOM     20  C   UNL     1       6.081   4.049  14.003  0.00  0.00    +0.000 A 
ATOM     21  C   UNL     1       7.225   4.825  14.030  0.00  0.00    +0.000 A 
ATOM     22  N   UNL     1       7.603   5.557  15.098  0.00  0.00    +0.000 NA
ATOM     23  C   UNL     1       6.793   5.505  16.186  0.00  0.00    +0.000 A 
ENDBRANCH  14  18
ENDBRANCH   5   8
BRANCH   7  24
ATOM     24  N   UNL     1      -0.158  10.533  20.864  0.00  0.00    +0.000 N 
ATOM     25  C   UNL     1      -0.646  11.862  20.492  0.00  0.00    +0.000 C 
ATOM     26  C   UNL     1      -1.947  12.097  21.274  0.00  0.00    +0.000 C 
ATOM     27  C   UNL     1      -1.741  11.891  22.786  0.00  0.00    +0.000 C 
ATOM     28  C   UNL     1      -1.041  10.559  23.092  0.00  0.00    +0.000 C 
ATOM     29  C   UNL     1       0.242  10.446  22.268  0.00  0.00    +0.000 C 
BRANCH  27  30
ATOM     30  N   UNL     1      -3.019  11.947  23.502  0.00  0.00    +0.000 NA
ATOM     31  H   UNL     1      -3.717  12.404  22.915  0.00  0.00    +0.000 HD
ATOM     32  H   UNL     1      -2.923  12.537  24.328  0.00  0.00    +0.000 HD
ENDBRANCH  27  30
ENDBRANCH   7  24
TORSDOF 4
ENDMDL
MODEL 4
REMARK VINA RESULT:      -7.8      2.523      3.813
REMARK  Name = 
REMARK  5 active torsions:
REMARK  status: ('A' for Active; 'I' for Inactive)
REMARK    1  A    between atoms: C_1  and  C_2
REMARK    2  A    between atoms: C_5  and  C_6
REMARK    3  A    between atoms: C_12  and  C_13
REMARK    4  A    between atoms: C_22  and  N_23
REMARK    5  A    between atoms: C_26  and  N_27
REMARK                            x       y       z     vdW  Elec       q    Type
REMARK                         _______ _______ _______ _____ _____    ______ ____
ROOT
ATOM      1  C   UNL     1       2.286   5.123  20.899  0.00  0.00    +0.000 C 
ATOM      2  C   UNL     1       1.914   6.491  20.394  0.00  0.00    +0.000 A 
ATOM      3  C   UNL     1       1.186   7.336  21.238  0.00  0.00    +0.000 A 
ATOM      4  C   UNL     1       0.921   8.638  20.850  0.00  0.00    +0.000 A 
ATOM      5  C   UNL     1       1.373   9.059  19.608  0.00  0.00    +0.000 A 
ATOM      6  N   UNL     1       2.057   8.248  18.754  0.00  0.00    +0.000 NA
ATOM      7  C   UNL     1       2.332   6.982  19.141  0.00  0.00    +0.000 A 
ENDROOT
BRANCH   5   8
ATOM      8  C   UNL     1       1.146  10.443  19.169  0.00  0.00    +0.000 A 
ATOM      9  N   UNL     1       1.923  11.039  18.239  0.00  0.00    +0.000 NA
ATOM     10  N   UNL     1       1.380  12.256  18.083  0.00  0.00    +0.000 N 
ATOM     11  C   UNL     1       0.316  12.504  18.898  0.00  0.00    +0.000 A 
ATOM     12  C   UNL     1      -0.494  13.614  19.054  0.00  0.00    +0.000 A 
ATOM     13  N   UNL     1      -1.486  13.566  19.976  0.00  0.00    +0.000 NA
ATOM     14  C   UNL     1      -1.672  12.452  20.735  0.00  0.00    +0.000 A 
ATOM     15  C   UNL     1      -0.887  11.307  20.589  0.00  0.00    +0.000 A 
ATOM     16  C   UNL     1       0.140  11.344  19.633  0.00  0.00    +0.000 A 
ATOM     17  H   UNL     1       1.796  12.879  17.399  0.00  0.00    +0.000 HD
BRANCH  14  18
ATOM     18  C   UNL     1      -2.770  12.528  21.715  0.00  0.00    +0.000 A 
ATOM     19  C   UNL     1      -2.531  12.471  23.095  0.00  0.00    +0.000 A 
ATOM     20  C   UNL     1      -3.584  12.559  24.004  0.00  0.00    +0.000 A 
ATOM     21  C   UNL     1      -4.868  12.698  23.510  0.00  0.00    +0.000 A 
ATOM     22  N   UNL     1      -5.157  12.749  22.194  0.00  0.00    +0.000 NA
ATOM     23  C   UNL     1      -4.108  12.656  21.338  0.00  0.00    +0.000 A 
ENDBRANCH  14  18
ENDBRANCH   5   8
BRANCH   7  24
ATOM     24  N   UNL     1       3.129   6.189  18.320  0.00  0.00    +0.000 N 
ATOM     25  C   UNL     1       4.080   6.871  17.439  0.00  0.00    +0.000 C 
ATOM     26  C   UNL     1       5.229   5.887  17.173  0.00  0.00    +0.000 C 
ATOM     27  C   UNL     1       4.708   4.543  16.633  0.00  0.00    +0.000 C 
ATOM     28  C   UNL     1       3.571   3.981  17.499  0.00  0.00    +0.000 C 
ATOM     29  C   UNL     1       2.485   5.041  17.681  0.00  0.00    +0.000 C 
BRANCH  27  30
ATOM     30  N   UNL     1       5.790   3.557  16.546  0.00  0.00    +0.000 NA
ATOM     31  H   UNL     1       5.396   2.639  16.337  0.00  0.00    +0.000 HD
ATOM     32  H   UNL     1       6.242   3.463  17.455  0.00  0.00    +0.000 HD
ENDBRANCH  27  30
ENDBRANCH   7  24
TORSDOF 4
ENDMDL
MODEL 5
REMARK VINA RESULT:      -7.5      2.996      4.273
REMARK  Name = 
REMARK  5 active torsions:
REMARK  status: ('A' for Active; 'I' for Inactive)
REMARK    1  A    between atoms: C_1  and  C_2
REMARK    2  A    between atoms: C_5  and  C_6
REMARK    3  A    between atoms: C_12  and  C_13
REMARK    4  A    between atoms: C_22  and  N_23
REMARK    5  A    between atoms: C_26  and  N_27
REMARK                            x       y       z     vdW  Elec       q    Type
REMARK                         _______ _______ _______ _____ _____    ______ ____
ROOT
ATOM      1  C   UNL     1       3.725   6.891  16.852  0.00  0.00    +0.000 C 
ATOM      2  C   UNL     1       2.964   7.498  17.999  0.00  0.00    +0.000 A 
ATOM      3  C   UNL     1       2.421   8.776  17.833  0.00  0.00    +0.000 A 
ATOM      4  C   UNL     1       1.623   9.322  18.825  0.00  0.00    +0.000 A 
ATOM      5  C   UNL     1       1.406   8.579  19.977  0.00  0.00    +0.000 A 
ATOM      6  N   UNL     1       1.947   7.346  20.176  0.00  0.00    +0.000 NA
ATOM      7  C   UNL     1       2.711   6.806  19.200  0.00  0.00    +0.000 A 
ENDROOT
BRANCH   5   8
ATOM      8  C   UNL     1       0.537   9.102  21.040  0.00  0.00    +0.000 A 
ATOM      9  N   UNL     1      -0.069   8.294  21.936  0.00  0.00    +0.000 NA
ATOM     10  N   UNL     1      -0.724   9.134  22.752  0.00  0.00    +0.000 N 
ATOM     11  C   UNL     1      -0.617  10.449  22.407  0.00  0.00    +0.000 A 
ATOM     12  C   UNL     1      -1.140  11.600  22.965  0.00  0.00    +0.000 A 
ATOM     13  N   UNL     1      -0.863  12.789  22.376  0.00  0.00    +0.000 NA
ATOM     14  C   UNL     1      -0.093  12.842  21.255  0.00  0.00    +0.000 A 
ATOM     15  C   UNL     1       0.468  11.702  20.678  0.00  0.00    +0.000 A 
ATOM     16  C   UNL     1       0.192  10.467  21.282  0.00  0.00    +0.000 A 
ATOM     17  H   UNL     1      -1.239   8.738  23.531  0.00  0.00    +0.000 HD
BRANCH  14  18
ATOM     18  C   UNL     1       0.122  14.189  20.697  0.00  0.00    +0.000 A 
ATOM     19  C   UNL     1      -0.471  14.590  19.492  0.00  0.00    +0.000 A 
ATOM     20  C   UNL     1      -0.265  15.874  18.990  0.00  0.00    +0.000 A 
ATOM     21  C   UNL     1       0.542  16.738  19.707  0.00  0.00    +0.000 A 
ATOM     22  N   UNL     1       1.145  16.403  20.867  0.00  0.00    +0.000 NA
ATOM     23  C   UNL     1       0.925  15.144  21.323  0.00  0.00    +0.000 A 
ENDBRANCH  14  18
ENDBRANCH   5   8
BRANCH   7  24
ATOM     24  N   UNL     1       3.170   5.500  19.354  0.00  0.00    +0.000 N 
ATOM     25  C   UNL     1       2.353   4.587  20.156  0.00  0.00    +0.000 C 
ATOM     26  C   UNL     1       2.645   3.165  19.656  0.00  0.00    +0.000 C 
ATOM     27  C   UNL     1       4.154   2.859  19.677  0.00  0.00    +0.000 C 
ATOM     28  C   UNL     1       4.971   3.962  18.988  0.00  0.00    +0.000 C 
ATOM     29  C   UNL     1       4.604   5.324  19.577  0.00  0.00    +0.000 C 
BRANCH  27  30
ATOM     30  N   UNL     1       4.438   1.569  19.039  0.00  0.00    +0.000 NA
ATOM     31  H   UNL     1       4.752   0.904  19.746  0.00  0.00    +0.000 HD
ATOM     32  H   UNL     1       5.217   1.673  18.391  0.00  0.00    +0.000 HD
ENDBRANCH  27  30
ENDBRANCH   7  24
TORSDOF 4
ENDMDL
MODEL 6
REMARK VINA RESULT:      -7.4      3.018      4.159
REMARK  Name = 
REMARK  5 active torsions:
REMARK  status: ('A' for Active; 'I' for Inactive)
REMARK    1  A    between atoms: C_1  and  C_2
REMARK    2  A    between atoms: C_5  and  C_6
REMARK    3  A    between atoms: C_12  and  C_13
REMARK    4  A    between atoms: C_22  and  N_23
REMARK    5  A    between atoms: C_26  and  N_27
REMARK                            x       y       z     vdW  Elec       q    Type
REMARK                         _______ _______ _______ _____ _____    ______ ____
ROOT
ATOM      1  C   UNL     1       4.404   6.117  16.561  0.00  0.00    +0.000 C 
ATOM      2  C   UNL     1       3.587   6.774  17.641  0.00  0.00    +0.000 A 
ATOM      3  C   UNL     1       3.382   8.155  17.571  0.00  0.00    +0.000 A 
ATOM      4  C   UNL     1       2.546   8.776  18.484  0.00  0.00    +0.000 A 
ATOM      5  C   UNL     1       1.952   7.998  19.467  0.00  0.00    +0.000 A 
ATOM      6  N   UNL     1       2.159   6.656  19.575  0.00  0.00    +0.000 NA
ATOM      7  C   UNL     1       2.960   6.047  18.672  0.00  0.00    +0.000 A 
ENDROOT
BRANCH   5   8
ATOM      8  C   UNL     1       1.029   8.607  20.435  0.00  0.00    +0.000 A 
ATOM      9  N   UNL     1       0.335   7.870  21.328  0.00  0.00    +0.000 NA
ATOM     10  N   UNL     1      -0.346   8.775  22.048  0.00  0.00    +0.000 N 
ATOM     11  C   UNL     1      -0.169  10.064  21.640  0.00  0.00    +0.000 A 
ATOM     12  C   UNL     1      -0.690  11.261  22.096  0.00  0.00    +0.000 A 
ATOM     13  N   UNL     1      -0.331  12.405  21.464  0.00  0.00    +0.000 NA
ATOM     14  C   UNL     1       0.517  12.371  20.399  0.00  0.00    +0.000 A 
ATOM     15  C   UNL     1       1.077  11.183  19.927  0.00  0.00    +0.000 A 
ATOM     16  C   UNL     1       0.716   9.993  20.577  0.00  0.00    +0.000 A 
ATOM     17  H   UNL     1      -0.927   8.441  22.808  0.00  0.00    +0.000 HD
BRANCH  14  18
ATOM     18  C   UNL     1       0.816  13.676  19.786  0.00  0.00    +0.000 A 
ATOM     19  C   UNL     1       1.996  13.896  19.062  0.00  0.00    +0.000 A 
ATOM     20  C   UNL     1       2.253  15.136  18.479  0.00  0.00    +0.000 A 
ATOM     21  C   UNL     1       1.318  16.143  18.637  0.00  0.00    +0.000 A 
ATOM     22  N   UNL     1       0.170  15.990  19.330  0.00  0.00    +0.000 NA
ATOM     23  C   UNL     1      -0.044  14.771  19.887  0.00  0.00    +0.000 A 
ENDBRANCH  14  18
ENDBRANCH   5   8
BRANCH   7  24
ATOM     24  N   UNL     1       3.081   4.660  18.712  0.00  0.00    +0.000 N 
ATOM     25  C   UNL     1       2.015   3.871  18.092  0.00  0.00    +0.000 C 
ATOM     26  C   UNL     1       2.637   2.533  17.668  0.00  0.00    +0.000 C 
ATOM     27  C   UNL     1       3.343   1.839  18.847  0.00  0.00    +0.000 C 
ATOM     28  C   UNL     1       4.303   2.789  19.578  0.00  0.00    +0.000 C 
ATOM     29  C   UNL     1       3.570   4.074  19.960  0.00  0.00    +0.000 C 
BRANCH  27  30
ATOM     30  N   UNL     1       4.077   0.653  18.396  0.00  0.00    +0.000 NA
ATOM     31  H   UNL     1       4.911   0.944  17.886  0.00  0.00    +0.000 HD
ATOM     32  H   UNL     1       3.510   0.133  17.727  0.00  0.00    +0.000 HD
ENDBRANCH  27  30
ENDBRANCH   7  24
TORSDOF 4
ENDMDL
MODEL 7
REMARK VINA RESULT:      -7.3      2.848      9.115
REMARK  Name = 
REMARK  5 active torsions:
REMARK  status: ('A' for Active; 'I' for Inactive)
REMARK    1  A    between atoms: C_1  and  C_2
REMARK    2  A    between atoms: C_5  and  C_6
REMARK    3  A    between atoms: C_12  and  C_13
REMARK    4  A    between atoms: C_22  and  N_23
REMARK    5  A    between atoms: C_26  and  N_27
REMARK                            x       y       z     vdW  Elec       q    Type
REMARK                         _______ _______ _______ _____ _____    ______ ____
ROOT
ATOM      1  C   UNL     1      -2.594  11.714  23.777  0.00  0.00    +0.000 C 
ATOM      2  C   UNL     1      -1.622  11.436  22.662  0.00  0.00    +0.000 A 
ATOM      3  C   UNL     1      -0.595  10.515  22.890  0.00  0.00    +0.000 A 
ATOM      4  C   UNL     1       0.251  10.153  21.855  0.00  0.00    +0.000 A 
ATOM      5  C   UNL     1       0.061  10.745  20.614  0.00  0.00    +0.000 A 
ATOM      6  N   UNL     1      -0.911  11.666  20.373  0.00  0.00    +0.000 NA
ATOM      7  C   UNL     1      -1.748  12.006  21.379  0.00  0.00    +0.000 A 
ENDROOT
BRANCH   5   8
ATOM      8  C   UNL     1       0.911  10.365  19.477  0.00  0.00    +0.000 A 
ATOM      9  N   UNL     1       1.201  11.225  18.477  0.00  0.00    +0.000 NA
ATOM     10  N   UNL     1       2.021  10.532  17.671  0.00  0.00    +0.000 N 
ATOM     11  C   UNL     1       2.245   9.248  18.068  0.00  0.00    +0.000 A 
ATOM     12  C   UNL     1       2.998   8.225  17.521  0.00  0.00    +0.000 A 
ATOM     13  N   UNL     1       3.015   7.026  18.151  0.00  0.00    +0.000 NA
ATOM     14  C   UNL     1       2.298   6.833  19.292  0.00  0.00    +0.000 A 
ATOM     15  C   UNL     1       1.545   7.849  19.883  0.00  0.00    +0.000 A 
ATOM     16  C   UNL     1       1.525   9.096  19.242  0.00  0.00    +0.000 A 
ATOM     17  H   UNL     1       2.391  11.001  16.851  0.00  0.00    +0.000 HD
BRANCH  14  18
ATOM     18  C   UNL     1       2.383   5.482  19.873  0.00  0.00    +0.000 A 
ATOM     19  C   UNL     1       1.332   4.936  20.624  0.00  0.00    +0.000 A 
ATOM     20  C   UNL     1       1.428   3.650  21.152  0.00  0.00    +0.000 A 
ATOM     21  C   UNL     1       2.587   2.930  20.922  0.00  0.00    +0.000 A 
ATOM     22  N   UNL     1       3.632   3.408  20.216  0.00  0.00    +0.000 NA
ATOM     23  C   UNL     1       3.505   4.665  19.720  0.00  0.00    +0.000 A 
ENDBRANCH  14  18
ENDBRANCH   5   8
BRANCH   7  24
ATOM     24  N   UNL     1      -2.814  12.860  21.105  0.00  0.00    +0.000 N 
ATOM     25  C   UNL     1      -3.648  12.547  19.943  0.00  0.00    +0.000 C 
ATOM     26  C   UNL     1      -5.037  13.144  20.215  0.00  0.00    +0.000 C 
ATOM     27  C   UNL     1      -4.950  14.643  20.554  0.00  0.00    +0.000 C 
ATOM     28  C   UNL     1      -3.907  14.923  21.646  0.00  0.00    +0.000 C 
ATOM     29  C   UNL     1      -2.569  14.294  21.259  0.00  0.00    +0.000 C 
BRANCH  27  30
ATOM     30  N   UNL     1      -6.254  15.163  20.978  0.00  0.00    +0.000 NA
ATOM     31  H   UNL     1      -6.843  14.389  21.288  0.00  0.00    +0.000 HD
ATOM     32  H   UNL     1      -6.735  15.574  20.179  0.00  0.00    +0.000 HD
ENDBRANCH  27  30
ENDBRANCH   7  24
TORSDOF 4
ENDMDL
MODEL 8
REMARK VINA RESULT:      -7.3      2.746      4.204
REMARK  Name = 
REMARK  5 active torsions:
REMARK  status: ('A' for Active; 'I' for Inactive)
REMARK    1  A    between atoms: C_1  and  C_2
REMARK    2  A    between atoms: C_5  and  C_6
REMARK    3  A    between atoms: C_12  and  C_13
REMARK    4  A    between atoms: C_22  and  N_23
REMARK    5  A    between atoms: C_26  and  N_27
REMARK                            x       y       z     vdW  Elec       q    Type
REMARK                         _______ _______ _______ _____ _____    ______ ____
ROOT
ATOM      1  C   UNL     1       2.082   5.069  20.873  0.00  0.00    +0.000 C 
ATOM      2  C   UNL     1       1.816   6.462  20.371  0.00  0.00    +0.000 A 
ATOM      3  C   UNL     1       1.134   7.351  21.207  0.00  0.00    +0.000 A 
ATOM      4  C   UNL     1       0.968   8.671  20.823  0.00  0.00    +0.000 A 
ATOM      5  C   UNL     1       1.472   9.066  19.592  0.00  0.00    +0.000 A 
ATOM      6  N   UNL     1       2.114   8.214  18.746  0.00  0.00    +0.000 NA
ATOM      7  C   UNL     1       2.292   6.929  19.129  0.00  0.00    +0.000 A 
ENDROOT
BRANCH   5   8
ATOM      8  C   UNL     1       1.352  10.465  19.158  0.00  0.00    +0.000 A 
ATOM      9  N   UNL     1       2.010  10.943  18.081  0.00  0.00    +0.000 NA
ATOM     10  N   UNL     1       1.613  12.222  17.989  0.00  0.00    +0.000 N 
ATOM     11  C   UNL     1       0.765  12.618  18.980  0.00  0.00    +0.000 A 
ATOM     12  C   UNL     1       0.153  13.828  19.249  0.00  0.00    +0.000 A 
ATOM     13  N   UNL     1      -0.644  13.922  20.341  0.00  0.00    +0.000 NA
ATOM     14  C   UNL     1      -0.828  12.849  21.158  0.00  0.00    +0.000 A 
ATOM     15  C   UNL     1      -0.243  11.607  20.904  0.00  0.00    +0.000 A 
ATOM     16  C   UNL     1       0.579  11.497  19.773  0.00  0.00    +0.000 A 
ATOM     17  H   UNL     1       1.970  12.778  17.221  0.00  0.00    +0.000 HD
BRANCH  14  18
ATOM     18  C   UNL     1      -1.700  13.081  22.322  0.00  0.00    +0.000 A 
ATOM     19  C   UNL     1      -2.789  12.244  22.605  0.00  0.00    +0.000 A 
ATOM     20  C   UNL     1      -3.593  12.475  23.720  0.00  0.00    +0.000 A 
ATOM     21  C   UNL     1      -3.293  13.551  24.535  0.00  0.00    +0.000 A 
ATOM     22  N   UNL     1      -2.265  14.394  24.306  0.00  0.00    +0.000 NA
ATOM     23  C   UNL     1      -1.506  14.141  23.209  0.00  0.00    +0.000 A 
ENDBRANCH  14  18
ENDBRANCH   5   8
BRANCH   7  24
ATOM     24  N   UNL     1       3.048   6.087  18.317  0.00  0.00    +0.000 N 
ATOM     25  C   UNL     1       4.037   6.708  17.435  0.00  0.00    +0.000 C 
ATOM     26  C   UNL     1       5.132   5.662  17.182  0.00  0.00    +0.000 C 
ATOM     27  C   UNL     1       4.541   4.343  16.651  0.00  0.00    +0.000 C 
ATOM     28  C   UNL     1       3.372   3.851  17.517  0.00  0.00    +0.000 C 
ATOM     29  C   UNL     1       2.345   4.970  17.686  0.00  0.00    +0.000 C 
BRANCH  27  30
ATOM     30  N   UNL     1       5.567   3.299  16.576  0.00  0.00    +0.000 NA
ATOM     31  H   UNL     1       5.338   2.551  17.231  0.00  0.00    +0.000 HD
ATOM     32  H   UNL     1       6.462   3.675  16.888  0.00  0.00    +0.000 HD
ENDBRANCH  27  30
ENDBRANCH   7  24
TORSDOF 4
ENDMDL
MODEL 9
REMARK VINA RESULT:      -7.3      2.529      3.609
REMARK  Name = 
REMARK  5 active torsions:
REMARK  status: ('A' for Active; 'I' for Inactive)
REMARK    1  A    between atoms: C_1  and  C_2
REMARK    2  A    between atoms: C_5  and  C_6
REMARK    3  A    between atoms: C_12  and  C_13
REMARK    4  A    between atoms: C_22  and  N_23
REMARK    5  A    between atoms: C_26  and  N_27
REMARK                            x       y       z     vdW  Elec       q    Type
REMARK                         _______ _______ _______ _____ _____    ______ ____
ROOT
ATOM      1  C   UNL     1       2.161   4.669  21.073  0.00  0.00    +0.000 C 
ATOM      2  C   UNL     1       1.908   6.027  20.476  0.00  0.00    +0.000 A 
ATOM      3  C   UNL     1       1.114   6.929  21.190  0.00  0.00    +0.000 A 
ATOM      4  C   UNL     1       0.951   8.223  20.725  0.00  0.00    +0.000 A 
ATOM      5  C   UNL     1       1.571   8.577  19.535  0.00  0.00    +0.000 A 
ATOM      6  N   UNL     1       2.325   7.710  18.806  0.00  0.00    +0.000 NA
ATOM      7  C   UNL     1       2.500   6.452  19.270  0.00  0.00    +0.000 A 
ENDROOT
BRANCH   5   8
ATOM      8  C   UNL     1       1.456   9.949  19.022  0.00  0.00    +0.000 A 
ATOM      9  N   UNL     1       2.297  10.440  18.087  0.00  0.00    +0.000 NA
ATOM     10  N   UNL     1       1.846  11.683  17.854  0.00  0.00    +0.000 N 
ATOM     11  C   UNL     1       0.782  12.047  18.625  0.00  0.00    +0.000 A 
ATOM     12  C   UNL     1       0.050  13.218  18.702  0.00  0.00    +0.000 A 
ATOM     13  N   UNL     1      -0.966  13.287  19.596  0.00  0.00    +0.000 NA
ATOM     14  C   UNL     1      -1.251  12.229  20.404  0.00  0.00    +0.000 A 
ATOM     15  C   UNL     1      -0.546  11.027  20.337  0.00  0.00    +0.000 A 
ATOM     16  C   UNL     1       0.505  10.941  19.412  0.00  0.00    +0.000 A 
ATOM     17  H   UNL     1       2.323  12.240  17.153  0.00  0.00    +0.000 HD
BRANCH  14  18
ATOM     18  C   UNL     1      -2.364  12.433  21.346  0.00  0.00    +0.000 A 
ATOM     19  C   UNL     1      -2.200  12.268  22.728  0.00  0.00    +0.000 A 
ATOM     20  C   UNL     1      -3.265  12.480  23.603  0.00  0.00    +0.000 A 
ATOM     21  C   UNL     1      -4.487  12.850  23.072  0.00  0.00    +0.000 A 
ATOM     22  N   UNL     1      -4.705  13.014  21.751  0.00  0.00    +0.000 NA
ATOM     23  C   UNL     1      -3.646  12.796  20.929  0.00  0.00    +0.000 A 
ENDBRANCH  14  18
ENDBRANCH   5   8
BRANCH   7  24
ATOM     24  N   UNL     1       3.363   5.599  18.586  0.00  0.00    +0.000 N 
ATOM     25  C   UNL     1       2.791   4.384  18.003  0.00  0.00    +0.000 C 
ATOM     26  C   UNL     1       3.682   3.994  16.815  0.00  0.00    +0.000 C 
ATOM     27  C   UNL     1       5.158   3.868  17.234  0.00  0.00    +0.000 C 
ATOM     28  C   UNL     1       5.637   5.099  18.017  0.00  0.00    +0.000 C 
ATOM     29  C   UNL     1       4.683   5.379  19.178  0.00  0.00    +0.000 C 
BRANCH  27  30
ATOM     30  N   UNL     1       6.021   3.666  16.066  0.00  0.00    +0.000 NA
ATOM     31  H   UNL     1       5.821   4.383  15.368  0.00  0.00    +0.000 HD
ATOM     32  H   UNL     1       5.793   2.777  15.622  0.00  0.00    +0.000 HD
ENDBRANCH  27  30
ENDBRANCH   7  24
TORSDOF 4
ENDMDL
