MODEL 1
REMARK VINA RESULT:      -7.4      0.000      0.000
REMARK  Name = 
REMARK  6 active torsions:
REMARK  status: ('A' for Active; 'I' for Inactive)
REMARK    1  A    between atoms: C_1  and  O_2
REMARK    2  A    between atoms: O_2  and  C_3
REMARK    3  A    between atoms: C_6  and  C_7
REMARK    4  A    between atoms: C_10  and  S_11
REMARK    5  A    between atoms: N_12  and  C_13
REMARK    6  A    between atoms: C_13  and  C_14
REMARK                            x       y       z     vdW  Elec       q    Type
REMARK                         _______ _______ _______ _____ _____    ______ ____
ROOT
ATOM      1  C   UNL     1       4.510   3.351  19.211  0.00  0.00    +0.000 A 
ATOM      2  N   UNL     1       5.064   2.541  20.102  0.00  0.00    +0.000 NA
ATOM      3  N   UNL     1       4.127   2.195  21.043  0.00  0.00    +0.000 NA
ATOM      4  C   UNL     1       3.005   2.775  20.706  0.00  0.00    +0.000 A 
ATOM      5  N   UNL     1       3.175   3.499  19.555  0.00  0.00    +0.000 N 
ENDROOT
BRANCH   1   9
ATOM      6  C   UNL     1       6.707   4.996  15.899  0.00  0.00    +0.000 A 
ATOM      7  C   UNL     1       7.075   5.272  17.215  0.00  0.00    +0.000 A 
ATOM      8  C   UNL     1       6.347   4.734  18.282  0.00  0.00    +0.000 A 
ATOM      9  C   UNL     1       5.226   3.919  18.057  0.00  0.00    +0.000 A 
ATOM     10  C   UNL     1       4.823   3.731  16.731  0.00  0.00    +0.000 A 
ATOM     11  C   UNL     1       5.559   4.251  15.660  0.00  0.00    +0.000 A 
BRANCH   6  13
ATOM     12  C   UNL     1       7.339   4.947  13.633  0.00  0.00    +0.000 C 
ATOM     13  O   UNL     1       7.504   5.528  14.924  0.00  0.00    +0.000 OA
ENDBRANCH   6  13
ENDBRANCH   1   9
BRANCH   4  14
ATOM     14  S   UNL     1       1.532   2.671  21.598  0.00  0.00    +0.000 S 
ATOM     15  H   UNL     1       0.979   3.793  21.117  0.00  0.00    +0.000 HD
ENDBRANCH   4  14
BRANCH   5  16
ATOM     16  C   UNL     1       2.134   4.202  18.826  0.00  0.00    +0.000 C 
BRANCH  16  17
ATOM     17  C   UNL     1       2.182   5.713  18.958  0.00  0.00    +0.000 A 
ATOM     18  C   UNL     1       2.480   6.580  17.892  0.00  0.00    +0.000 A 
ATOM     19  C   UNL     1       2.388   7.963  18.050  0.00  0.00    +0.000 A 
ATOM     20  C   UNL     1       2.023   8.505  19.278  0.00  0.00    +0.000 A 
ATOM     21  C   UNL     1       1.764   7.662  20.357  0.00  0.00    +0.000 A 
ATOM     22  C   UNL     1       1.842   6.277  20.198  0.00  0.00    +0.000 A 
ENDBRANCH  16  17
ENDBRANCH   5  16
TORSDOF 5
ENDMDL
MODEL 2
REMARK VINA RESULT:      -7.3      1.215      2.011
REMARK  Name = 
REMARK  6 active torsions:
REMARK  status: ('A' for Active; 'I' for Inactive)
REMARK    1  A    between atoms: C_1  and  O_2
REMARK    2  A    between atoms: O_2  and  C_3
REMARK    3  A    between atoms: C_6  and  C_7
REMARK    4  A    between atoms: C_10  and  S_11
REMARK    5  A    between atoms: N_12  and  C_13
REMARK    6  A    between atoms: C_13  and  C_14
REMARK                            x       y       z     vdW  Elec       q    Type
REMARK                         _______ _______ _______ _____ _____    ______ ____
ROOT
ATOM      1  C   UNL     1       3.807   3.529  17.902  0.00  0.00    +0.000 A 
ATOM      2  N   UNL     1       3.060   2.470  17.619  0.00  0.00    +0.000 NA
ATOM      3  N   UNL     1       2.125   2.299  18.608  0.00  0.00    +0.000 NA
ATOM      4  C   UNL     1       2.290   3.266  19.472  0.00  0.00    +0.000 A 
ATOM      5  N   UNL     1       3.317   4.082  19.076  0.00  0.00    +0.000 N 
ENDROOT
BRANCH   1   9
ATOM      6  C   UNL     1       6.955   4.999  15.366  0.00  0.00    +0.000 A 
ATOM      7  C   UNL     1       5.682   4.742  14.859  0.00  0.00    +0.000 A 
ATOM      8  C   UNL     1       4.670   4.259  15.695  0.00  0.00    +0.000 A 
ATOM      9  C   UNL     1       4.910   4.008  17.055  0.00  0.00    +0.000 A 
ATOM     10  C   UNL     1       6.218   4.186  17.521  0.00  0.00    +0.000 A 
ATOM     11  C   UNL     1       7.229   4.688  16.693  0.00  0.00    +0.000 A 
BRANCH   6  13
ATOM     12  C   UNL     1       7.682   5.105  13.131  0.00  0.00    +0.000 C 
ATOM     13  O   UNL     1       7.865   5.511  14.485  0.00  0.00    +0.000 OA
ENDBRANCH   6  13
ENDBRANCH   1   9
BRANCH   4  14
ATOM     14  S   UNL     1       1.370   3.468  20.917  0.00  0.00    +0.000 S 
ATOM     15  H   UNL     1       0.967   4.722  20.671  0.00  0.00    +0.000 HD
ENDBRANCH   4  14
BRANCH   5  16
ATOM     16  C   UNL     1       3.732   5.311  19.729  0.00  0.00    +0.000 C 
BRANCH  16  17
ATOM     17  C   UNL     1       2.939   6.539  19.323  0.00  0.00    +0.000 A 
ATOM     18  C   UNL     1       2.056   7.216  20.182  0.00  0.00    +0.000 A 
ATOM     19  C   UNL     1       1.450   8.410  19.787  0.00  0.00    +0.000 A 
ATOM     20  C   UNL     1       1.694   8.933  18.521  0.00  0.00    +0.000 A 
ATOM     21  C   UNL     1       2.534   8.254  17.641  0.00  0.00    +0.000 A 
ATOM     22  C   UNL     1       3.152   7.067  18.040  0.00  0.00    +0.000 A 
ENDBRANCH  16  17
ENDBRANCH   5  16
TORSDOF 5
ENDMDL
MODEL 3
REMARK VINA RESULT:      -7.3      0.123      1.052
REMARK  Name = 
REMARK  6 active torsions:
REMARK  status: ('A' for Active; 'I' for Inactive)
REMARK    1  A    between atoms: C_1  and  O_2
REMARK    2  A    between atoms: O_2  and  C_3
REMARK    3  A    between atoms: C_6  and  C_7
REMARK    4  A    between atoms: C_10  and  S_11
REMARK    5  A    between atoms: N_12  and  C_13
REMARK    6  A    between atoms: C_13  and  C_14
REMARK                            x       y       z     vdW  Elec       q    Type
REMARK                         _______ _______ _______ _____ _____    ______ ____
ROOT
ATOM      1  C   UNL     1       4.568   3.409  19.253  0.00  0.00    +0.000 A 
ATOM      2  N   UNL     1       5.079   2.594  20.166  0.00  0.00    +0.000 NA
ATOM      3  N   UNL     1       4.096   2.235  21.053  0.00  0.00    +0.000 NA
ATOM      4  C   UNL     1       2.989   2.811  20.662  0.00  0.00    +0.000 A 
ATOM      5  N   UNL     1       3.215   3.546  19.528  0.00  0.00    +0.000 N 
ENDROOT
BRANCH   1   9
ATOM      6  C   UNL     1       6.722   5.117  15.945  0.00  0.00    +0.000 A 
ATOM      7  C   UNL     1       5.674   4.223  15.737  0.00  0.00    +0.000 A 
ATOM      8  C   UNL     1       4.986   3.671  16.823  0.00  0.00    +0.000 A 
ATOM      9  C   UNL     1       5.340   3.990  18.144  0.00  0.00    +0.000 A 
ATOM     10  C   UNL     1       6.453   4.818  18.329  0.00  0.00    +0.000 A 
ATOM     11  C   UNL     1       7.132   5.387  17.246  0.00  0.00    +0.000 A 
BRANCH   6  13
ATOM     12  C   UNL     1       7.186   4.829  13.657  0.00  0.00    +0.000 C 
ATOM     13  O   UNL     1       7.304   5.638  14.824  0.00  0.00    +0.000 OA
ENDBRANCH   6  13
ENDBRANCH   1   9
BRANCH   4  14
ATOM     14  S   UNL     1       1.472   2.690  21.474  0.00  0.00    +0.000 S 
ATOM     15  H   UNL     1       1.855   1.780  22.381  0.00  0.00    +0.000 HD
ENDBRANCH   4  14
BRANCH   5  16
ATOM     16  C   UNL     1       2.209   4.248  18.751  0.00  0.00    +0.000 C 
BRANCH  16  17
ATOM     17  C   UNL     1       2.229   5.757  18.911  0.00  0.00    +0.000 A 
ATOM     18  C   UNL     1       2.526   6.649  17.866  0.00  0.00    +0.000 A 
ATOM     19  C   UNL     1       2.408   8.027  18.048  0.00  0.00    +0.000 A 
ATOM     20  C   UNL     1       2.017   8.539  19.281  0.00  0.00    +0.000 A 
ATOM     21  C   UNL     1       1.758   7.672  20.341  0.00  0.00    +0.000 A 
ATOM     22  C   UNL     1       1.863   6.292  20.156  0.00  0.00    +0.000 A 
ENDBRANCH  16  17
ENDBRANCH   5  16
TORSDOF 5
ENDMDL
MODEL 4
REMARK VINA RESULT:      -7.2      0.083      1.055
REMARK  Name = 
REMARK  6 active torsions:
REMARK  status: ('A' for Active; 'I' for Inactive)
REMARK    1  A    between atoms: C_1  and  O_2
REMARK    2  A    between atoms: O_2  and  C_3
REMARK    3  A    between atoms: C_6  and  C_7
REMARK    4  A    between atoms: C_10  and  S_11
REMARK    5  A    between atoms: N_12  and  C_13
REMARK    6  A    between atoms: C_13  and  C_14
REMARK                            x       y       z     vdW  Elec       q    Type
REMARK                         _______ _______ _______ _____ _____    ______ ____
ROOT
ATOM      1  C   UNL     1       4.518   3.350  19.202  0.00  0.00    +0.000 A 
ATOM      2  N   UNL     1       5.087   2.575  20.116  0.00  0.00    +0.000 NA
ATOM      3  N   UNL     1       4.151   2.222  21.055  0.00  0.00    +0.000 NA
ATOM      4  C   UNL     1       3.016   2.761  20.695  0.00  0.00    +0.000 A 
ATOM      5  N   UNL     1       3.175   3.466  19.532  0.00  0.00    +0.000 N 
ENDROOT
BRANCH   1   9
ATOM      6  C   UNL     1       6.697   4.981  15.872  0.00  0.00    +0.000 A 
ATOM      7  C   UNL     1       7.095   5.230  17.185  0.00  0.00    +0.000 A 
ATOM      8  C   UNL     1       6.373   4.697  18.257  0.00  0.00    +0.000 A 
ATOM      9  C   UNL     1       5.227   3.914  18.043  0.00  0.00    +0.000 A 
ATOM     10  C   UNL     1       4.795   3.754  16.722  0.00  0.00    +0.000 A 
ATOM     11  C   UNL     1       5.525   4.269  15.645  0.00  0.00    +0.000 A 
BRANCH   6  13
ATOM     12  C   UNL     1       7.315   4.917  13.603  0.00  0.00    +0.000 C 
ATOM     13  O   UNL     1       7.490   5.505  14.890  0.00  0.00    +0.000 OA
ENDBRANCH   6  13
ENDBRANCH   1   9
BRANCH   4  14
ATOM     14  S   UNL     1       1.538   2.632  21.577  0.00  0.00    +0.000 S 
ATOM     15  H   UNL     1       1.927   1.635  22.384  0.00  0.00    +0.000 HD
ENDBRANCH   4  14
BRANCH   5  16
ATOM     16  C   UNL     1       2.121   4.121  18.778  0.00  0.00    +0.000 C 
BRANCH  16  17
ATOM     17  C   UNL     1       2.041   5.623  18.982  0.00  0.00    +0.000 A 
ATOM     18  C   UNL     1       1.742   6.227  20.216  0.00  0.00    +0.000 A 
ATOM     19  C   UNL     1       1.804   7.613  20.365  0.00  0.00    +0.000 A 
ATOM     20  C   UNL     1       2.140   8.420  19.282  0.00  0.00    +0.000 A 
ATOM     21  C   UNL     1       2.398   7.841  18.042  0.00  0.00    +0.000 A 
ATOM     22  C   UNL     1       2.350   6.453  17.894  0.00  0.00    +0.000 A 
ENDBRANCH  16  17
ENDBRANCH   5  16
TORSDOF 5
ENDMDL
MODEL 5
REMARK VINA RESULT:      -7.2      1.184      1.711
REMARK  Name = 
REMARK  6 active torsions:
REMARK  status: ('A' for Active; 'I' for Inactive)
REMARK    1  A    between atoms: C_1  and  O_2
REMARK    2  A    between atoms: O_2  and  C_3
REMARK    3  A    between atoms: C_6  and  C_7
REMARK    4  A    between atoms: C_10  and  S_11
REMARK    5  A    between atoms: N_12  and  C_13
REMARK    6  A    between atoms: C_13  and  C_14
REMARK                            x       y       z     vdW  Elec       q    Type
REMARK                         _______ _______ _______ _____ _____    ______ ____
ROOT
ATOM      1  C   UNL     1       3.924   3.493  17.933  0.00  0.00    +0.000 A 
ATOM      2  N   UNL     1       3.223   2.387  17.724  0.00  0.00    +0.000 NA
ATOM      3  N   UNL     1       2.383   2.176  18.788  0.00  0.00    +0.000 NA
ATOM      4  C   UNL     1       2.559   3.166  19.624  0.00  0.00    +0.000 A 
ATOM      5  N   UNL     1       3.499   4.035  19.137  0.00  0.00    +0.000 N 
ENDROOT
BRANCH   1   9
ATOM      6  C   UNL     1       6.934   4.978  15.243  0.00  0.00    +0.000 A 
ATOM      7  C   UNL     1       7.214   4.769  16.592  0.00  0.00    +0.000 A 
ATOM      8  C   UNL     1       6.223   4.291  17.456  0.00  0.00    +0.000 A 
ATOM      9  C   UNL     1       4.925   4.024  16.993  0.00  0.00    +0.000 A 
ATOM     10  C   UNL     1       4.643   4.327  15.657  0.00  0.00    +0.000 A 
ATOM     11  C   UNL     1       5.635   4.787  14.784  0.00  0.00    +0.000 A 
BRANCH   6  13
ATOM     12  C   UNL     1       7.799   5.206  13.067  0.00  0.00    +0.000 C 
ATOM     13  O   UNL     1       7.976   5.404  14.467  0.00  0.00    +0.000 OA
ENDBRANCH   6  13
ENDBRANCH   1   9
BRANCH   4  14
ATOM     14  S   UNL     1       1.748   3.335  21.138  0.00  0.00    +0.000 S 
ATOM     15  H   UNL     1       0.503   3.187  20.664  0.00  0.00    +0.000 HD
ENDBRANCH   4  14
BRANCH   5  16
ATOM     16  C   UNL     1       3.890   5.296  19.740  0.00  0.00    +0.000 C 
BRANCH  16  17
ATOM     17  C   UNL     1       3.054   6.487  19.310  0.00  0.00    +0.000 A 
ATOM     18  C   UNL     1       2.130   7.135  20.149  0.00  0.00    +0.000 A 
ATOM     19  C   UNL     1       1.482   8.299  19.732  0.00  0.00    +0.000 A 
ATOM     20  C   UNL     1       1.725   8.820  18.465  0.00  0.00    +0.000 A 
ATOM     21  C   UNL     1       2.606   8.168  17.605  0.00  0.00    +0.000 A 
ATOM     22  C   UNL     1       3.266   7.011  18.025  0.00  0.00    +0.000 A 
ENDBRANCH  16  17
ENDBRANCH   5  16
TORSDOF 5
ENDMDL
MODEL 6
REMARK VINA RESULT:      -7.2      1.249      1.781
REMARK  Name = 
REMARK  6 active torsions:
REMARK  status: ('A' for Active; 'I' for Inactive)
REMARK    1  A    between atoms: C_1  and  O_2
REMARK    2  A    between atoms: O_2  and  C_3
REMARK    3  A    between atoms: C_6  and  C_7
REMARK    4  A    between atoms: C_10  and  S_11
REMARK    5  A    between atoms: N_12  and  C_13
REMARK    6  A    between atoms: C_13  and  C_14
REMARK                            x       y       z     vdW  Elec       q    Type
REMARK                         _______ _______ _______ _____ _____    ______ ____
ROOT
ATOM      1  C   UNL     1       3.708   3.537  17.819  0.00  0.00    +0.000 A 
ATOM      2  N   UNL     1       2.917   2.532  17.466  0.00  0.00    +0.000 NA
ATOM      3  N   UNL     1       1.957   2.352  18.429  0.00  0.00    +0.000 NA
ATOM      4  C   UNL     1       2.152   3.262  19.348  0.00  0.00    +0.000 A 
ATOM      5  N   UNL     1       3.223   4.048  19.015  0.00  0.00    +0.000 N 
ENDROOT
BRANCH   1   9
ATOM      6  C   UNL     1       6.966   4.981  15.410  0.00  0.00    +0.000 A 
ATOM      7  C   UNL     1       5.729   4.679  14.843  0.00  0.00    +0.000 A 
ATOM      8  C   UNL     1       4.680   4.205  15.639  0.00  0.00    +0.000 A 
ATOM      9  C   UNL     1       4.848   4.009  17.018  0.00  0.00    +0.000 A 
ATOM     10  C   UNL     1       6.124   4.231  17.549  0.00  0.00    +0.000 A 
ATOM     11  C   UNL     1       7.170   4.723  16.761  0.00  0.00    +0.000 A 
BRANCH   6  13
ATOM     12  C   UNL     1       7.714   5.164  13.187  0.00  0.00    +0.000 C 
ATOM     13  O   UNL     1       7.914   5.480  14.563  0.00  0.00    +0.000 OA
ENDBRANCH   6  13
ENDBRANCH   1   9
BRANCH   4  14
ATOM     14  S   UNL     1       1.216   3.427  20.788  0.00  0.00    +0.000 S 
ATOM     15  H   UNL     1       0.101   2.854  20.314  0.00  0.00    +0.000 HD
ENDBRANCH   4  14
BRANCH   5  16
ATOM     16  C   UNL     1       3.684   5.217  19.742  0.00  0.00    +0.000 C 
BRANCH  16  17
ATOM     17  C   UNL     1       3.048   6.523  19.303  0.00  0.00    +0.000 A 
ATOM     18  C   UNL     1       3.238   7.096  18.033  0.00  0.00    +0.000 A 
ATOM     19  C   UNL     1       2.528   8.234  17.650  0.00  0.00    +0.000 A 
ATOM     20  C   UNL     1       1.636   8.833  18.533  0.00  0.00    +0.000 A 
ATOM     21  C   UNL     1       1.465   8.304  19.810  0.00  0.00    +0.000 A 
ATOM     22  C   UNL     1       2.164   7.157  20.191  0.00  0.00    +0.000 A 
ENDBRANCH  16  17
ENDBRANCH   5  16
TORSDOF 5
ENDMDL
MODEL 7
REMARK VINA RESULT:      -7.1      0.132      1.489
REMARK  Name = 
REMARK  6 active torsions:
REMARK  status: ('A' for Active; 'I' for Inactive)
REMARK    1  A    between atoms: C_1  and  O_2
REMARK    2  A    between atoms: O_2  and  C_3
REMARK    3  A    between atoms: C_6  and  C_7
REMARK    4  A    between atoms: C_10  and  S_11
REMARK    5  A    between atoms: N_12  and  C_13
REMARK    6  A    between atoms: C_13  and  C_14
REMARK                            x       y       z     vdW  Elec       q    Type
REMARK                         _______ _______ _______ _____ _____    ______ ____
ROOT
ATOM      1  C   UNL     1       4.564   3.393  19.275  0.00  0.00    +0.000 A 
ATOM      2  N   UNL     1       5.081   2.610  20.213  0.00  0.00    +0.000 NA
ATOM      3  N   UNL     1       4.093   2.244  21.092  0.00  0.00    +0.000 NA
ATOM      4  C   UNL     1       2.978   2.784  20.671  0.00  0.00    +0.000 A 
ATOM      5  N   UNL     1       3.203   3.501  19.526  0.00  0.00    +0.000 N 
ENDROOT
BRANCH   1   9
ATOM      6  C   UNL     1       6.726   5.097  15.971  0.00  0.00    +0.000 A 
ATOM      7  C   UNL     1       5.655   4.231  15.760  0.00  0.00    +0.000 A 
ATOM      8  C   UNL     1       4.965   3.680  16.845  0.00  0.00    +0.000 A 
ATOM      9  C   UNL     1       5.338   3.972  18.167  0.00  0.00    +0.000 A 
ATOM     10  C   UNL     1       6.473   4.771  18.353  0.00  0.00    +0.000 A 
ATOM     11  C   UNL     1       7.154   5.339  17.271  0.00  0.00    +0.000 A 
BRANCH   6  13
ATOM     12  C   UNL     1       7.191   4.814  13.682  0.00  0.00    +0.000 C 
ATOM     13  O   UNL     1       7.310   5.621  14.852  0.00  0.00    +0.000 OA
ENDBRANCH   6  13
ENDBRANCH   1   9
BRANCH   4  14
ATOM     14  S   UNL     1       1.452   2.640  21.462  0.00  0.00    +0.000 S 
ATOM     15  H   UNL     1       1.932   2.555  22.710  0.00  0.00    +0.000 HD
ENDBRANCH   4  14
BRANCH   5  16
ATOM     16  C   UNL     1       2.193   4.161  18.719  0.00  0.00    +0.000 C 
BRANCH  16  17
ATOM     17  C   UNL     1       2.089   5.659  18.941  0.00  0.00    +0.000 A 
ATOM     18  C   UNL     1       1.763   6.243  20.178  0.00  0.00    +0.000 A 
ATOM     19  C   UNL     1       1.803   7.628  20.346  0.00  0.00    +0.000 A 
ATOM     20  C   UNL     1       2.143   8.453  19.278  0.00  0.00    +0.000 A 
ATOM     21  C   UNL     1       2.429   7.894  18.034  0.00  0.00    +0.000 A 
ATOM     22  C   UNL     1       2.403   6.508  17.868  0.00  0.00    +0.000 A 
ENDBRANCH  16  17
ENDBRANCH   5  16
TORSDOF 5
ENDMDL
MODEL 8
REMARK VINA RESULT:      -7.0      1.251      1.476
REMARK  Name = 
REMARK  6 active torsions:
REMARK  status: ('A' for Active; 'I' for Inactive)
REMARK    1  A    between atoms: C_1  and  O_2
REMARK    2  A    between atoms: O_2  and  C_3
REMARK    3  A    between atoms: C_6  and  C_7
REMARK    4  A    between atoms: C_10  and  S_11
REMARK    5  A    between atoms: N_12  and  C_13
REMARK    6  A    between atoms: C_13  and  C_14
REMARK                            x       y       z     vdW  Elec       q    Type
REMARK                         _______ _______ _______ _____ _____    ______ ____
ROOT
ATOM      1  C   UNL     1       3.723   3.550  17.808  0.00  0.00    +0.000 A 
ATOM      2  N   UNL     1       2.952   2.506  17.535  0.00  0.00    +0.000 NA
ATOM      3  N   UNL     1       2.082   2.302  18.575  0.00  0.00    +0.000 NA
ATOM      4  C   UNL     1       2.310   3.236  19.462  0.00  0.00    +0.000 A 
ATOM      5  N   UNL     1       3.314   4.061  19.031  0.00  0.00    +0.000 N 
ENDROOT
BRANCH   1   9
ATOM      6  C   UNL     1       6.875   4.959  15.242  0.00  0.00    +0.000 A 
ATOM      7  C   UNL     1       7.100   4.726  16.597  0.00  0.00    +0.000 A 
ATOM      8  C   UNL     1       6.063   4.274  17.421  0.00  0.00    +0.000 A 
ATOM      9  C   UNL     1       4.774   4.056  16.910  0.00  0.00    +0.000 A 
ATOM     10  C   UNL     1       4.550   4.382  15.568  0.00  0.00    +0.000 A 
ATOM     11  C   UNL     1       5.587   4.817  14.736  0.00  0.00    +0.000 A 
BRANCH   6  13
ATOM     12  C   UNL     1       7.812   5.204  13.098  0.00  0.00    +0.000 C 
ATOM     13  O   UNL     1       7.957   5.356  14.508  0.00  0.00    +0.000 OA
ENDBRANCH   6  13
ENDBRANCH   1   9
BRANCH   4  14
ATOM     14  S   UNL     1       1.486   3.387  20.971  0.00  0.00    +0.000 S 
ATOM     15  H   UNL     1       0.913   2.175  20.956  0.00  0.00    +0.000 HD
ENDBRANCH   4  14
BRANCH   5  16
ATOM     16  C   UNL     1       3.780   5.262  19.702  0.00  0.00    +0.000 C 
BRANCH  16  17
ATOM     17  C   UNL     1       3.115   6.543  19.233  0.00  0.00    +0.000 A 
ATOM     18  C   UNL     1       3.253   7.064  17.934  0.00  0.00    +0.000 A 
ATOM     19  C   UNL     1       2.518   8.179  17.529  0.00  0.00    +0.000 A 
ATOM     20  C   UNL     1       1.653   8.807  18.420  0.00  0.00    +0.000 A 
ATOM     21  C   UNL     1       1.534   8.330  19.723  0.00  0.00    +0.000 A 
ATOM     22  C   UNL     1       2.258   7.207  20.125  0.00  0.00    +0.000 A 
ENDBRANCH  16  17
ENDBRANCH   5  16
TORSDOF 5
ENDMDL
MODEL 9
REMARK VINA RESULT:      -7.0      3.428      6.041
REMARK  Name = 
REMARK  6 active torsions:
REMARK  status: ('A' for Active; 'I' for Inactive)
REMARK    1  A    between atoms: C_1  and  O_2
REMARK    2  A    between atoms: O_2  and  C_3
REMARK    3  A    between atoms: C_6  and  C_7
REMARK    4  A    between atoms: C_10  and  S_11
REMARK    5  A    between atoms: N_12  and  C_13
REMARK    6  A    between atoms: C_13  and  C_14
REMARK                            x       y       z     vdW  Elec       q    Type
REMARK                         _______ _______ _______ _____ _____    ______ ____
ROOT
ATOM      1  C   UNL     1       3.844   6.665  17.717  0.00  0.00    +0.000 A 
ATOM      2  N   UNL     1       5.012   7.141  17.306  0.00  0.00    +0.000 NA
ATOM      3  N   UNL     1       5.711   6.141  16.678  0.00  0.00    +0.000 NA
ATOM      4  C   UNL     1       4.957   5.073  16.688  0.00  0.00    +0.000 A 
ATOM      5  N   UNL     1       3.766   5.342  17.308  0.00  0.00    +0.000 N 
ENDROOT
BRANCH   1   9
ATOM      6  C   UNL     1       0.960   8.988  19.906  0.00  0.00    +0.000 A 
ATOM      7  C   UNL     1       1.596   7.894  20.489  0.00  0.00    +0.000 A 
ATOM      8  C   UNL     1       2.528   7.144  19.763  0.00  0.00    +0.000 A 
ATOM      9  C   UNL     1       2.835   7.464  18.431  0.00  0.00    +0.000 A 
ATOM     10  C   UNL     1       2.118   8.509  17.838  0.00  0.00    +0.000 A 
ATOM     11  C   UNL     1       1.199   9.273  18.566  0.00  0.00    +0.000 A 
BRANCH   6  13
ATOM     12  C   UNL     1      -0.261   9.024  21.916  0.00  0.00    +0.000 C 
ATOM     13  O   UNL     1       0.100   9.686  20.706  0.00  0.00    +0.000 OA
ENDBRANCH   6  13
ENDBRANCH   1   9
BRANCH   4  14
ATOM     14  S   UNL     1       5.410   3.539  16.041  0.00  0.00    +0.000 S 
ATOM     15  H   UNL     1       6.489   3.358  16.815  0.00  0.00    +0.000 HD
ENDBRANCH   4  14
BRANCH   5  16
ATOM     16  C   UNL     1       2.640   4.432  17.427  0.00  0.00    +0.000 C 
BRANCH  16  17
ATOM     17  C   UNL     1       2.491   3.790  18.794  0.00  0.00    +0.000 A 
ATOM     18  C   UNL     1       3.538   3.134  19.465  0.00  0.00    +0.000 A 
ATOM     19  C   UNL     1       3.369   2.671  20.771  0.00  0.00    +0.000 A 
ATOM     20  C   UNL     1       2.148   2.832  21.418  0.00  0.00    +0.000 A 
ATOM     21  C   UNL     1       1.087   3.443  20.754  0.00  0.00    +0.000 A 
ATOM     22  C   UNL     1       1.258   3.919  19.452  0.00  0.00    +0.000 A 
ENDBRANCH  16  17
ENDBRANCH   5  16
TORSDOF 5
ENDMDL
