MODEL 1
REMARK VINA RESULT:      -8.4      0.000      0.000
REMARK  Name = 
REMARK  5 active torsions:
REMARK  status: ('A' for Active; 'I' for Inactive)
REMARK    1  A    between atoms: C_1  and  C_2
REMARK    2  A    between atoms: N_4  and  C_5
REMARK    3  A    between atoms: C_8  and  S_9
REMARK    4  A    between atoms: S_9  and  N_12
REMARK    5  A    between atoms: C_20  and  C_21
REMARK                            x       y       z     vdW  Elec       q    Type
REMARK                         _______ _______ _______ _____ _____    ______ ____
ROOT
ATOM      1  S   UNL     1       4.594   6.175  17.890  0.00  0.00    +0.000 S 
ATOM      2  O   UNL     1       5.047   5.429  19.059  0.00  0.00    +0.000 OA
ATOM      3  O   UNL     1       4.999   7.557  17.708  0.00  0.00    +0.000 OA
ENDROOT
BRANCH   1   4
ATOM      4  N   UNL     1       2.844   6.056  17.826  0.00  0.00    +0.000 N 
ATOM      5  C   UNL     1       2.380   4.878  18.558  0.00  0.00    +0.000 A 
ATOM      6  C   UNL     1       1.752   3.793  17.976  0.00  0.00    +0.000 A 
ATOM      7  C   UNL     1       0.934   2.989  18.788  0.00  0.00    +0.000 A 
ATOM      8  C   UNL     1       0.810   3.237  20.167  0.00  0.00    +0.000 A 
ATOM      9  C   UNL     1       1.413   4.354  20.742  0.00  0.00    +0.000 A 
ATOM     10  C   UNL     1       2.094   5.213  19.897  0.00  0.00    +0.000 A 
ATOM     11  C   UNL     1       2.216   6.711  20.082  0.00  0.00    +0.000 C 
ATOM     12  C   UNL     1       2.047   7.092  18.596  0.00  0.00    +0.000 C 
ATOM     13  C   UNL     1       2.176   8.516  18.146  0.00  0.00    +0.000 C 
ENDBRANCH   1   4
BRANCH   1  17
ATOM     14  C   UNL     1       6.105   3.857  14.199  0.00  0.00    +0.000 A 
ATOM     15  C   UNL     1       5.993   5.248  14.165  0.00  0.00    +0.000 A 
ATOM     16  C   UNL     1       5.552   5.957  15.297  0.00  0.00    +0.000 A 
ATOM     17  C   UNL     1       5.209   5.271  16.470  0.00  0.00    +0.000 A 
ATOM     18  C   UNL     1       5.365   3.887  16.531  0.00  0.00    +0.000 A 
ATOM     19  C   UNL     1       5.792   3.186  15.389  0.00  0.00    +0.000 A 
BRANCH  14  23
ATOM     20  C   UNL     1       6.401   1.812  11.026  0.00  0.00    +0.000 C 
ATOM     21  C   UNL     1       5.720   2.769  11.975  0.00  0.00    +0.000 C 
ATOM     22  O   UNL     1       4.589   3.179  11.736  0.00  0.00    +0.000 OA
ATOM     23  N   UNL     1       6.495   3.080  13.080  0.00  0.00    +0.000 N 
ATOM     24  H   UNL     1       7.457   2.769  13.065  0.00  0.00    +0.000 HD
ENDBRANCH  14  23
ENDBRANCH   1  17
TORSDOF 3
ENDMDL
MODEL 2
REMARK VINA RESULT:      -8.2      0.166      1.018
REMARK  Name = 
REMARK  5 active torsions:
REMARK  status: ('A' for Active; 'I' for Inactive)
REMARK    1  A    between atoms: C_1  and  C_2
REMARK    2  A    between atoms: N_4  and  C_5
REMARK    3  A    between atoms: C_8  and  S_9
REMARK    4  A    between atoms: S_9  and  N_12
REMARK    5  A    between atoms: C_20  and  C_21
REMARK                            x       y       z     vdW  Elec       q    Type
REMARK                         _______ _______ _______ _____ _____    ______ ____
ROOT
ATOM      1  S   UNL     1       4.511   6.201  17.891  0.00  0.00    +0.000 S 
ATOM      2  O   UNL     1       5.011   5.476  19.055  0.00  0.00    +0.000 OA
ATOM      3  O   UNL     1       4.890   7.586  17.680  0.00  0.00    +0.000 OA
ENDROOT
BRANCH   1   4
ATOM      4  N   UNL     1       2.761   6.057  17.884  0.00  0.00    +0.000 N 
ATOM      5  C   UNL     1       2.339   4.858  18.605  0.00  0.00    +0.000 A 
ATOM      6  C   UNL     1       1.707   3.776  18.023  0.00  0.00    +0.000 A 
ATOM      7  C   UNL     1       0.929   2.944  18.844  0.00  0.00    +0.000 A 
ATOM      8  C   UNL     1       0.848   3.161  20.232  0.00  0.00    +0.000 A 
ATOM      9  C   UNL     1       1.454   4.275  20.810  0.00  0.00    +0.000 A 
ATOM     10  C   UNL     1       2.093   5.161  19.960  0.00  0.00    +0.000 A 
ATOM     11  C   UNL     1       2.200   6.657  20.173  0.00  0.00    +0.000 C 
ATOM     12  C   UNL     1       1.976   7.065  18.701  0.00  0.00    +0.000 C 
ATOM     13  C   UNL     1       2.070   8.501  18.278  0.00  0.00    +0.000 C 
ENDBRANCH   1   4
BRANCH   1  17
ATOM     14  C   UNL     1       6.082   3.838  14.254  0.00  0.00    +0.000 A 
ATOM     15  C   UNL     1       5.630   3.169  15.393  0.00  0.00    +0.000 A 
ATOM     16  C   UNL     1       5.132   3.888  16.494  0.00  0.00    +0.000 A 
ATOM     17  C   UNL     1       5.094   5.288  16.463  0.00  0.00    +0.000 A 
ATOM     18  C   UNL     1       5.494   5.965  15.312  0.00  0.00    +0.000 A 
ATOM     19  C   UNL     1       6.005   5.238  14.223  0.00  0.00    +0.000 A 
BRANCH  14  23
ATOM     20  C   UNL     1       6.840   1.983  11.042  0.00  0.00    +0.000 C 
ATOM     21  C   UNL     1       5.972   2.781  11.985  0.00  0.00    +0.000 C 
ATOM     22  O   UNL     1       4.798   3.006  11.707  0.00  0.00    +0.000 OA
ATOM     23  N   UNL     1       6.640   3.177  13.133  0.00  0.00    +0.000 N 
ATOM     24  H   UNL     1       7.640   3.030  13.152  0.00  0.00    +0.000 HD
ENDBRANCH  14  23
ENDBRANCH   1  17
TORSDOF 3
ENDMDL
MODEL 3
REMARK VINA RESULT:      -7.6      3.696      7.866
REMARK  Name = 
REMARK  5 active torsions:
REMARK  status: ('A' for Active; 'I' for Inactive)
REMARK    1  A    between atoms: C_1  and  C_2
REMARK    2  A    between atoms: N_4  and  C_5
REMARK    3  A    between atoms: C_8  and  S_9
REMARK    4  A    between atoms: S_9  and  N_12
REMARK    5  A    between atoms: C_20  and  C_21
REMARK                            x       y       z     vdW  Elec       q    Type
REMARK                         _______ _______ _______ _____ _____    ______ ____
ROOT
ATOM      1  S   UNL     1       2.979   6.704  18.369  0.00  0.00    +0.000 S 
ATOM      2  O   UNL     1       2.013   5.961  17.566  0.00  0.00    +0.000 OA
ATOM      3  O   UNL     1       4.076   7.402  17.725  0.00  0.00    +0.000 OA
ENDROOT
BRANCH   1   4
ATOM      4  N   UNL     1       3.608   5.612  19.592  0.00  0.00    +0.000 N 
ATOM      5  C   UNL     1       2.675   4.512  19.830  0.00  0.00    +0.000 A 
ATOM      6  C   UNL     1       2.004   4.298  21.019  0.00  0.00    +0.000 A 
ATOM      7  C   UNL     1       1.552   2.998  21.299  0.00  0.00    +0.000 A 
ATOM      8  C   UNL     1       1.712   1.956  20.367  0.00  0.00    +0.000 A 
ATOM      9  C   UNL     1       2.423   2.165  19.187  0.00  0.00    +0.000 A 
ATOM     10  C   UNL     1       2.986   3.416  19.000  0.00  0.00    +0.000 A 
ATOM     11  C   UNL     1       4.275   3.694  18.254  0.00  0.00    +0.000 C 
ATOM     12  C   UNL     1       4.814   4.771  19.220  0.00  0.00    +0.000 C 
ATOM     13  C   UNL     1       6.086   5.506  18.922  0.00  0.00    +0.000 C 
ENDBRANCH   1   4
BRANCH   1  17
ATOM     14  C   UNL     1       0.469   9.849  20.625  0.00  0.00    +0.000 A 
ATOM     15  C   UNL     1       0.952   8.718  21.288  0.00  0.00    +0.000 A 
ATOM     16  C   UNL     1       1.734   7.770  20.606  0.00  0.00    +0.000 A 
ATOM     17  C   UNL     1       2.029   7.944  19.247  0.00  0.00    +0.000 A 
ATOM     18  C   UNL     1       1.596   9.094  18.588  0.00  0.00    +0.000 A 
ATOM     19  C   UNL     1       0.801  10.028  19.275  0.00  0.00    +0.000 A 
BRANCH  14  23
ATOM     20  C   UNL     1      -1.666  11.997  22.897  0.00  0.00    +0.000 C 
ATOM     21  C   UNL     1      -0.631  10.940  22.594  0.00  0.00    +0.000 C 
ATOM     22  O   UNL     1      -0.130  10.284  23.502  0.00  0.00    +0.000 OA
ATOM     23  N   UNL     1      -0.364  10.815  21.240  0.00  0.00    +0.000 N 
ATOM     24  H   UNL     1      -0.758  11.520  20.630  0.00  0.00    +0.000 HD
ENDBRANCH  14  23
ENDBRANCH   1  17
TORSDOF 3
ENDMDL
MODEL 4
REMARK VINA RESULT:      -7.5      3.754      7.588
REMARK  Name = 
REMARK  5 active torsions:
REMARK  status: ('A' for Active; 'I' for Inactive)
REMARK    1  A    between atoms: C_1  and  C_2
REMARK    2  A    between atoms: N_4  and  C_5
REMARK    3  A    between atoms: C_8  and  S_9
REMARK    4  A    between atoms: S_9  and  N_12
REMARK    5  A    between atoms: C_20  and  C_21
REMARK                            x       y       z     vdW  Elec       q    Type
REMARK                         _______ _______ _______ _____ _____    ______ ____
ROOT
ATOM      1  S   UNL     1       3.110   6.542  18.190  0.00  0.00    +0.000 S 
ATOM      2  O   UNL     1       2.112   5.691  17.550  0.00  0.00    +0.000 OA
ATOM      3  O   UNL     1       4.195   7.104  17.407  0.00  0.00    +0.000 OA
ENDROOT
BRANCH   1   4
ATOM      4  N   UNL     1       3.761   5.662  19.562  0.00  0.00    +0.000 N 
ATOM      5  C   UNL     1       2.858   4.582  19.958  0.00  0.00    +0.000 A 
ATOM      6  C   UNL     1       2.186   4.526  21.164  0.00  0.00    +0.000 A 
ATOM      7  C   UNL     1       1.769   3.270  21.632  0.00  0.00    +0.000 A 
ATOM      8  C   UNL     1       1.964   2.107  20.864  0.00  0.00    +0.000 A 
ATOM      9  C   UNL     1       2.676   2.160  19.668  0.00  0.00    +0.000 A 
ATOM     10  C   UNL     1       3.206   3.385  19.299  0.00  0.00    +0.000 A 
ATOM     11  C   UNL     1       4.491   3.587  18.524  0.00  0.00    +0.000 C 
ATOM     12  C   UNL     1       4.993   4.810  19.321  0.00  0.00    +0.000 C 
ATOM     13  C   UNL     1       6.246   5.529  18.920  0.00  0.00    +0.000 C 
ENDBRANCH   1   4
BRANCH   1  17
ATOM     14  C   UNL     1       0.702  10.066  19.940  0.00  0.00    +0.000 A 
ATOM     15  C   UNL     1       1.068   8.987  20.747  0.00  0.00    +0.000 A 
ATOM     16  C   UNL     1       1.819   7.922  20.219  0.00  0.00    +0.000 A 
ATOM     17  C   UNL     1       2.201   7.928  18.871  0.00  0.00    +0.000 A 
ATOM     18  C   UNL     1       1.885   9.024  18.069  0.00  0.00    +0.000 A 
ATOM     19  C   UNL     1       1.120  10.076  18.603  0.00  0.00    +0.000 A 
BRANCH  14  23
ATOM     20  C   UNL     1      -0.784  13.170  21.520  0.00  0.00    +0.000 C 
ATOM     21  C   UNL     1       0.345  12.280  21.057  0.00  0.00    +0.000 C 
ATOM     22  O   UNL     1       1.510  12.586  21.290  0.00  0.00    +0.000 OA
ATOM     23  N   UNL     1      -0.095  11.145  20.397  0.00  0.00    +0.000 N 
ATOM     24  H   UNL     1      -1.079  11.103  20.166  0.00  0.00    +0.000 HD
ENDBRANCH  14  23
ENDBRANCH   1  17
TORSDOF 3
ENDMDL
MODEL 5
REMARK VINA RESULT:      -7.5      3.772      7.475
REMARK  Name = 
REMARK  5 active torsions:
REMARK  status: ('A' for Active; 'I' for Inactive)
REMARK    1  A    between atoms: C_1  and  C_2
REMARK    2  A    between atoms: N_4  and  C_5
REMARK    3  A    between atoms: C_8  and  S_9
REMARK    4  A    between atoms: S_9  and  N_12
REMARK    5  A    between atoms: C_20  and  C_21
REMARK                            x       y       z     vdW  Elec       q    Type
REMARK                         _______ _______ _______ _____ _____    ______ ____
ROOT
ATOM      1  S   UNL     1       3.185   6.527  18.173  0.00  0.00    +0.000 S 
ATOM      2  O   UNL     1       2.239   5.645  17.497  0.00  0.00    +0.000 OA
ATOM      3  O   UNL     1       4.286   7.116  17.433  0.00  0.00    +0.000 OA
ENDROOT
BRANCH   1   4
ATOM      4  N   UNL     1       3.803   5.674  19.577  0.00  0.00    +0.000 N 
ATOM      5  C   UNL     1       2.891   4.600  19.970  0.00  0.00    +0.000 A 
ATOM      6  C   UNL     1       2.189   4.565  21.159  0.00  0.00    +0.000 A 
ATOM      7  C   UNL     1       1.762   3.316  21.639  0.00  0.00    +0.000 A 
ATOM      8  C   UNL     1       1.979   2.140  20.899  0.00  0.00    +0.000 A 
ATOM      9  C   UNL     1       2.722   2.172  19.720  0.00  0.00    +0.000 A 
ATOM     10  C   UNL     1       3.258   3.392  19.342  0.00  0.00    +0.000 A 
ATOM     11  C   UNL     1       4.562   3.582  18.596  0.00  0.00    +0.000 C 
ATOM     12  C   UNL     1       5.041   4.821  19.383  0.00  0.00    +0.000 C 
ATOM     13  C   UNL     1       6.303   5.535  19.001  0.00  0.00    +0.000 C 
ENDBRANCH   1   4
BRANCH   1  17
ATOM     14  C   UNL     1       0.738  10.083  19.801  0.00  0.00    +0.000 A 
ATOM     15  C   UNL     1       1.083  10.019  18.449  0.00  0.00    +0.000 A 
ATOM     16  C   UNL     1       1.811   8.926  17.949  0.00  0.00    +0.000 A 
ATOM     17  C   UNL     1       2.209   7.891  18.805  0.00  0.00    +0.000 A 
ATOM     18  C   UNL     1       1.827   7.919  20.146  0.00  0.00    +0.000 A 
ATOM     19  C   UNL     1       1.112   9.024  20.640  0.00  0.00    +0.000 A 
BRANCH  14  23
ATOM     20  C   UNL     1      -0.414  13.188  21.637  0.00  0.00    +0.000 C 
ATOM     21  C   UNL     1       0.614  12.266  21.025  0.00  0.00    +0.000 C 
ATOM     22  O   UNL     1       1.811  12.507  21.142  0.00  0.00    +0.000 OA
ATOM     23  N   UNL     1       0.050  11.179  20.378  0.00  0.00    +0.000 N 
ATOM     24  H   UNL     1      -0.954  11.192  20.252  0.00  0.00    +0.000 HD
ENDBRANCH  14  23
ENDBRANCH   1  17
TORSDOF 3
ENDMDL
MODEL 6
REMARK VINA RESULT:      -7.5      2.904      7.523
REMARK  Name = 
REMARK  5 active torsions:
REMARK  status: ('A' for Active; 'I' for Inactive)
REMARK    1  A    between atoms: C_1  and  C_2
REMARK    2  A    between atoms: N_4  and  C_5
REMARK    3  A    between atoms: C_8  and  S_9
REMARK    4  A    between atoms: S_9  and  N_12
REMARK    5  A    between atoms: C_20  and  C_21
REMARK                            x       y       z     vdW  Elec       q    Type
REMARK                         _______ _______ _______ _____ _____    ______ ____
ROOT
ATOM      1  S   UNL     1       3.171   5.669  19.336  0.00  0.00    +0.000 S 
ATOM      2  O   UNL     1       4.574   5.951  19.624  0.00  0.00    +0.000 OA
ATOM      3  O   UNL     1       2.428   4.746  20.174  0.00  0.00    +0.000 OA
ENDROOT
BRANCH   1   4
ATOM      4  N   UNL     1       3.061   5.168  17.657  0.00  0.00    +0.000 N 
ATOM      5  C   UNL     1       4.374   5.219  17.017  0.00  0.00    +0.000 A 
ATOM      6  C   UNL     1       4.709   6.075  15.985  0.00  0.00    +0.000 A 
ATOM      7  C   UNL     1       5.774   5.713  15.144  0.00  0.00    +0.000 A 
ATOM      8  C   UNL     1       6.526   4.548  15.383  0.00  0.00    +0.000 A 
ATOM      9  C   UNL     1       6.162   3.668  16.400  0.00  0.00    +0.000 A 
ATOM     10  C   UNL     1       5.020   3.971  17.123  0.00  0.00    +0.000 A 
ATOM     11  C   UNL     1       4.072   2.957  17.728  0.00  0.00    +0.000 C 
ATOM     12  C   UNL     1       2.766   3.705  17.386  0.00  0.00    +0.000 C 
ATOM     13  C   UNL     1       1.437   3.185  17.847  0.00  0.00    +0.000 C 
ENDBRANCH   1   4
BRANCH   1  17
ATOM     14  C   UNL     1       0.930   9.692  19.608  0.00  0.00    +0.000 A 
ATOM     15  C   UNL     1       1.030   8.859  20.725  0.00  0.00    +0.000 A 
ATOM     16  C   UNL     1       1.731   7.643  20.648  0.00  0.00    +0.000 A 
ATOM     17  C   UNL     1       2.328   7.247  19.443  0.00  0.00    +0.000 A 
ATOM     18  C   UNL     1       2.277   8.093  18.337  0.00  0.00    +0.000 A 
ATOM     19  C   UNL     1       1.560   9.300  18.419  0.00  0.00    +0.000 A 
BRANCH  14  23
ATOM     20  C   UNL     1      -1.499  12.556  19.127  0.00  0.00    +0.000 C 
ATOM     21  C   UNL     1      -1.067  11.110  19.079  0.00  0.00    +0.000 C 
ATOM     22  O   UNL     1      -1.805  10.259  18.594  0.00  0.00    +0.000 OA
ATOM     23  N   UNL     1       0.198  10.905  19.606  0.00  0.00    +0.000 N 
ATOM     24  H   UNL     1       0.623  11.685  20.089  0.00  0.00    +0.000 HD
ENDBRANCH  14  23
ENDBRANCH   1  17
TORSDOF 3
ENDMDL
MODEL 7
REMARK VINA RESULT:      -7.5      2.858      7.815
REMARK  Name = 
REMARK  5 active torsions:
REMARK  status: ('A' for Active; 'I' for Inactive)
REMARK    1  A    between atoms: C_1  and  C_2
REMARK    2  A    between atoms: N_4  and  C_5
REMARK    3  A    between atoms: C_8  and  S_9
REMARK    4  A    between atoms: S_9  and  N_12
REMARK    5  A    between atoms: C_20  and  C_21
REMARK                            x       y       z     vdW  Elec       q    Type
REMARK                         _______ _______ _______ _____ _____    ______ ____
ROOT
ATOM      1  S   UNL     1       3.268   5.677  19.372  0.00  0.00    +0.000 S 
ATOM      2  O   UNL     1       4.667   6.037  19.573  0.00  0.00    +0.000 OA
ATOM      3  O   UNL     1       2.646   4.675  20.217  0.00  0.00    +0.000 OA
ENDROOT
BRANCH   1   4
ATOM      4  N   UNL     1       3.067   5.237  17.684  0.00  0.00    +0.000 N 
ATOM      5  C   UNL     1       4.361   5.202  17.003  0.00  0.00    +0.000 A 
ATOM      6  C   UNL     1       4.732   6.060  15.985  0.00  0.00    +0.000 A 
ATOM      7  C   UNL     1       5.739   5.640  15.100  0.00  0.00    +0.000 A 
ATOM      8  C   UNL     1       6.402   4.412  15.283  0.00  0.00    +0.000 A 
ATOM      9  C   UNL     1       5.999   3.533  16.286  0.00  0.00    +0.000 A 
ATOM     10  C   UNL     1       4.908   3.904  17.054  0.00  0.00    +0.000 A 
ATOM     11  C   UNL     1       3.899   2.951  17.661  0.00  0.00    +0.000 C 
ATOM     12  C   UNL     1       2.648   3.811  17.382  0.00  0.00    +0.000 C 
ATOM     13  C   UNL     1       1.296   3.385  17.871  0.00  0.00    +0.000 C 
ENDBRANCH   1   4
BRANCH   1  17
ATOM     14  C   UNL     1       0.807   9.533  19.970  0.00  0.00    +0.000 A 
ATOM     15  C   UNL     1       0.958   8.618  21.015  0.00  0.00    +0.000 A 
ATOM     16  C   UNL     1       1.724   7.453  20.839  0.00  0.00    +0.000 A 
ATOM     17  C   UNL     1       2.338   7.191  19.607  0.00  0.00    +0.000 A 
ATOM     18  C   UNL     1       2.237   8.122  18.574  0.00  0.00    +0.000 A 
ATOM     19  C   UNL     1       1.455   9.276  18.754  0.00  0.00    +0.000 A 
BRANCH  14  23
ATOM     20  C   UNL     1      -0.794  12.878  20.734  0.00  0.00    +0.000 C 
ATOM     21  C   UNL     1       0.340  11.880  20.711  0.00  0.00    +0.000 C 
ATOM     22  O   UNL     1       1.412  12.149  21.242  0.00  0.00    +0.000 OA
ATOM     23  N   UNL     1       0.009  10.700  20.066  0.00  0.00    +0.000 N 
ATOM     24  H   UNL     1      -0.868  10.684  19.563  0.00  0.00    +0.000 HD
ENDBRANCH  14  23
ENDBRANCH   1  17
TORSDOF 3
ENDMDL
MODEL 8
REMARK VINA RESULT:      -7.5      3.778      7.348
REMARK  Name = 
REMARK  5 active torsions:
REMARK  status: ('A' for Active; 'I' for Inactive)
REMARK    1  A    between atoms: C_1  and  C_2
REMARK    2  A    between atoms: N_4  and  C_5
REMARK    3  A    between atoms: C_8  and  S_9
REMARK    4  A    between atoms: S_9  and  N_12
REMARK    5  A    between atoms: C_20  and  C_21
REMARK                            x       y       z     vdW  Elec       q    Type
REMARK                         _______ _______ _______ _____ _____    ______ ____
ROOT
ATOM      1  S   UNL     1       3.121   6.476  18.133  0.00  0.00    +0.000 S 
ATOM      2  O   UNL     1       2.092   5.612  17.563  0.00  0.00    +0.000 OA
ATOM      3  O   UNL     1       4.208   6.958  17.301  0.00  0.00    +0.000 OA
ENDROOT
BRANCH   1   4
ATOM      4  N   UNL     1       3.771   5.668  19.550  0.00  0.00    +0.000 N 
ATOM      5  C   UNL     1       2.884   4.588  19.980  0.00  0.00    +0.000 A 
ATOM      6  C   UNL     1       2.196   4.570  21.179  0.00  0.00    +0.000 A 
ATOM      7  C   UNL     1       1.798   3.327  21.694  0.00  0.00    +0.000 A 
ATOM      8  C   UNL     1       2.027   2.136  20.980  0.00  0.00    +0.000 A 
ATOM      9  C   UNL     1       2.754   2.153  19.792  0.00  0.00    +0.000 A 
ATOM     10  C   UNL     1       3.264   3.372  19.378  0.00  0.00    +0.000 A 
ATOM     11  C   UNL     1       4.556   3.566  18.611  0.00  0.00    +0.000 C 
ATOM     12  C   UNL     1       5.022   4.832  19.362  0.00  0.00    +0.000 C 
ATOM     13  C   UNL     1       6.266   5.559  18.947  0.00  0.00    +0.000 C 
ENDBRANCH   1   4
BRANCH   1  17
ATOM     14  C   UNL     1       0.828  10.169  19.677  0.00  0.00    +0.000 A 
ATOM     15  C   UNL     1       1.071   9.082  20.519  0.00  0.00    +0.000 A 
ATOM     16  C   UNL     1       1.787   7.965  20.055  0.00  0.00    +0.000 A 
ATOM     17  C   UNL     1       2.257   7.926  18.736  0.00  0.00    +0.000 A 
ATOM     18  C   UNL     1       2.065   9.026  17.902  0.00  0.00    +0.000 A 
ATOM     19  C   UNL     1       1.334  10.132  18.371  0.00  0.00    +0.000 A 
BRANCH  14  23
ATOM     20  C   UNL     1      -1.674  12.969  20.165  0.00  0.00    +0.000 C 
ATOM     21  C   UNL     1      -1.213  11.621  19.662  0.00  0.00    +0.000 C 
ATOM     22  O   UNL     1      -1.949  10.938  18.958  0.00  0.00    +0.000 OA
ATOM     23  N   UNL     1       0.072  11.302  20.067  0.00  0.00    +0.000 N 
ATOM     24  H   UNL     1       0.498  11.907  20.757  0.00  0.00    +0.000 HD
ENDBRANCH  14  23
ENDBRANCH   1  17
TORSDOF 3
ENDMDL
MODEL 9
REMARK VINA RESULT:      -7.5      4.532      6.986
REMARK  Name = 
REMARK  5 active torsions:
REMARK  status: ('A' for Active; 'I' for Inactive)
REMARK    1  A    between atoms: C_1  and  C_2
REMARK    2  A    between atoms: N_4  and  C_5
REMARK    3  A    between atoms: C_8  and  S_9
REMARK    4  A    between atoms: S_9  and  N_12
REMARK    5  A    between atoms: C_20  and  C_21
REMARK                            x       y       z     vdW  Elec       q    Type
REMARK                         _______ _______ _______ _____ _____    ______ ____
ROOT
ATOM      1  S   UNL     1       0.434  10.416  20.171  0.00  0.00    +0.000 S 
ATOM      2  O   UNL     1      -0.747   9.922  20.872  0.00  0.00    +0.000 OA
ATOM      3  O   UNL     1       1.397  11.249  20.866  0.00  0.00    +0.000 OA
ENDROOT
BRANCH   1   4
ATOM      4  N   UNL     1      -0.112  11.230  18.714  0.00  0.00    +0.000 N 
ATOM      5  C   UNL     1      -1.458  10.789  18.351  0.00  0.00    +0.000 A 
ATOM      6  C   UNL     1      -1.767  10.083  17.203  0.00  0.00    +0.000 A 
ATOM      7  C   UNL     1      -3.084  10.150  16.721  0.00  0.00    +0.000 A 
ATOM      8  C   UNL     1      -4.081  10.856  17.420  0.00  0.00    +0.000 A 
ATOM      9  C   UNL     1      -3.758  11.598  18.554  0.00  0.00    +0.000 A 
ATOM     10  C   UNL     1      -2.425  11.637  18.928  0.00  0.00    +0.000 A 
ATOM     11  C   UNL     1      -1.737  12.807  19.601  0.00  0.00    +0.000 C 
ATOM     12  C   UNL     1      -0.412  12.713  18.816  0.00  0.00    +0.000 C 
ATOM     13  C   UNL     1       0.741  13.616  19.141  0.00  0.00    +0.000 C 
ENDBRANCH   1   4
BRANCH   1  17
ATOM     14  C   UNL     1       2.649   6.636  18.729  0.00  0.00    +0.000 A 
ATOM     15  C   UNL     1       2.470   7.723  17.871  0.00  0.00    +0.000 A 
ATOM     16  C   UNL     1       1.813   8.883  18.317  0.00  0.00    +0.000 A 
ATOM     17  C   UNL     1       1.320   8.957  19.626  0.00  0.00    +0.000 A 
ATOM     18  C   UNL     1       1.538   7.898  20.506  0.00  0.00    +0.000 A 
ATOM     19  C   UNL     1       2.183   6.736  20.047  0.00  0.00    +0.000 A 
BRANCH  14  23
ATOM     20  C   UNL     1       3.553   3.142  17.583  0.00  0.00    +0.000 C 
ATOM     21  C   UNL     1       2.628   4.321  17.771  0.00  0.00    +0.000 C 
ATOM     22  O   UNL     1       1.446   4.238  17.454  0.00  0.00    +0.000 OA
ATOM     23  N   UNL     1       3.258   5.421  18.328  0.00  0.00    +0.000 N 
ATOM     24  H   UNL     1       4.266   5.378  18.408  0.00  0.00    +0.000 HD
ENDBRANCH  14  23
ENDBRANCH   1  17
TORSDOF 3
ENDMDL
