MODEL 1
REMARK VINA RESULT:      -5.1      0.000      0.000
REMARK  Name = 
REMARK  1 active torsions:
REMARK  status: ('A' for Active; 'I' for Inactive)
REMARK    1  A    between atoms: O_1  and  C_2
REMARK                            x       y       z     vdW  Elec       q    Type
REMARK                         _______ _______ _______ _____ _____    ______ ____
ROOT
ATOM      1  C   UNL     1       7.590   5.710  19.318  0.00  0.00    +0.000 A 
ATOM      2  C   UNL     1       7.995   6.853  18.620  0.00  0.00    +0.000 A 
ATOM      3  C   UNL     1       7.524   7.075  17.323  0.00  0.00    +0.000 A 
ATOM      4  C   UNL     1       6.659   6.148  16.759  0.00  0.00    +0.000 A 
ATOM      5  C   UNL     1       6.265   5.015  17.462  0.00  0.00    +0.000 A 
ATOM      6  C   UNL     1       6.724   4.781  18.748  0.00  0.00    +0.000 A 
ATOM      7  S   UNL     1       5.179   4.023  16.516  0.00  0.00    +0.000 S 
ATOM      8  C   UNL     1       5.293   5.224  15.175  0.00  0.00    +0.000 C 
ATOM      9  O   UNL     1       6.171   6.327  15.489  0.00  0.00    +0.000 OA
ENDROOT
BRANCH   1  10
ATOM     10  O   UNL     1       8.032   5.464  20.585  0.00  0.00    +0.000 OA
ATOM     11  H   UNL     1       8.685   4.746  20.557  0.00  0.00    +0.000 HD
ENDBRANCH   1  10
TORSDOF 1
ENDMDL
MODEL 2
REMARK VINA RESULT:      -4.9      4.098      5.320
REMARK  Name = 
REMARK  1 active torsions:
REMARK  status: ('A' for Active; 'I' for Inactive)
REMARK    1  A    between atoms: O_1  and  C_2
REMARK                            x       y       z     vdW  Elec       q    Type
REMARK                         _______ _______ _______ _____ _____    ______ ____
ROOT
ATOM      1  C   UNL     1       1.887   2.423  18.548  0.00  0.00    +0.000 A 
ATOM      2  C   UNL     1       2.462   2.351  19.822  0.00  0.00    +0.000 A 
ATOM      3  C   UNL     1       3.739   2.875  20.036  0.00  0.00    +0.000 A 
ATOM      4  C   UNL     1       4.409   3.458  18.970  0.00  0.00    +0.000 A 
ATOM      5  C   UNL     1       3.829   3.523  17.708  0.00  0.00    +0.000 A 
ATOM      6  C   UNL     1       2.564   3.008  17.480  0.00  0.00    +0.000 A 
ATOM      7  S   UNL     1       4.890   4.305  16.557  0.00  0.00    +0.000 S 
ATOM      8  C   UNL     1       6.104   4.532  17.872  0.00  0.00    +0.000 C 
ATOM      9  O   UNL     1       5.665   3.986  19.136  0.00  0.00    +0.000 OA
ENDROOT
BRANCH   1  10
ATOM     10  O   UNL     1       0.642   1.922  18.306  0.00  0.00    +0.000 OA
ATOM     11  H   UNL     1       0.062   2.646  18.019  0.00  0.00    +0.000 HD
ENDBRANCH   1  10
TORSDOF 1
ENDMDL
MODEL 3
REMARK VINA RESULT:      -4.9      4.720      5.754
REMARK  Name = 
REMARK  1 active torsions:
REMARK  status: ('A' for Active; 'I' for Inactive)
REMARK    1  A    between atoms: O_1  and  C_2
REMARK                            x       y       z     vdW  Elec       q    Type
REMARK                         _______ _______ _______ _____ _____    ______ ____
ROOT
ATOM      1  C   UNL     1       1.173   2.756  18.765  0.00  0.00    +0.000 A 
ATOM      2  C   UNL     1       1.002   3.543  19.909  0.00  0.00    +0.000 A 
ATOM      3  C   UNL     1       1.980   4.478  20.258  0.00  0.00    +0.000 A 
ATOM      4  C   UNL     1       3.103   4.602  19.453  0.00  0.00    +0.000 A 
ATOM      5  C   UNL     1       3.262   3.813  18.319  0.00  0.00    +0.000 A 
ATOM      6  C   UNL     1       2.303   2.882  17.960  0.00  0.00    +0.000 A 
ATOM      7  S   UNL     1       4.763   4.175  17.495  0.00  0.00    +0.000 S 
ATOM      8  C   UNL     1       5.116   5.426  18.745  0.00  0.00    +0.000 C 
ATOM      9  O   UNL     1       4.087   5.508  19.757  0.00  0.00    +0.000 OA
ENDROOT
BRANCH   1  10
ATOM     10  O   UNL     1       0.237   1.834  18.396  0.00  0.00    +0.000 OA
ATOM     11  H   UNL     1       0.636   0.950  18.431  0.00  0.00    +0.000 HD
ENDBRANCH   1  10
TORSDOF 1
ENDMDL
MODEL 4
REMARK VINA RESULT:      -4.8      4.577      5.421
REMARK  Name = 
REMARK  1 active torsions:
REMARK  status: ('A' for Active; 'I' for Inactive)
REMARK    1  A    between atoms: O_1  and  C_2
REMARK                            x       y       z     vdW  Elec       q    Type
REMARK                         _______ _______ _______ _____ _____    ______ ____
ROOT
ATOM      1  C   UNL     1       1.644   2.983  20.083  0.00  0.00    +0.000 A 
ATOM      2  C   UNL     1       1.481   2.229  18.916  0.00  0.00    +0.000 A 
ATOM      3  C   UNL     1       2.396   2.366  17.869  0.00  0.00    +0.000 A 
ATOM      4  C   UNL     1       3.451   3.254  18.017  0.00  0.00    +0.000 A 
ATOM      5  C   UNL     1       3.603   4.000  19.180  0.00  0.00    +0.000 A 
ATOM      6  C   UNL     1       2.704   3.875  20.227  0.00  0.00    +0.000 A 
ATOM      7  S   UNL     1       5.011   5.035  19.096  0.00  0.00    +0.000 S 
ATOM      8  C   UNL     1       5.356   4.386  17.449  0.00  0.00    +0.000 C 
ATOM      9  O   UNL     1       4.374   3.419  17.014  0.00  0.00    +0.000 OA
ENDROOT
BRANCH   1  10
ATOM     10  O   UNL     1       0.769   2.872  21.124  0.00  0.00    +0.000 OA
ATOM     11  H   UNL     1       1.086   3.420  21.860  0.00  0.00    +0.000 HD
ENDBRANCH   1  10
TORSDOF 1
ENDMDL
MODEL 5
REMARK VINA RESULT:      -4.8      1.749      2.935
REMARK  Name = 
REMARK  1 active torsions:
REMARK  status: ('A' for Active; 'I' for Inactive)
REMARK    1  A    between atoms: O_1  and  C_2
REMARK                            x       y       z     vdW  Elec       q    Type
REMARK                         _______ _______ _______ _____ _____    ______ ____
ROOT
ATOM      1  C   UNL     1       7.311   7.232  17.633  0.00  0.00    +0.000 A 
ATOM      2  C   UNL     1       7.968   6.627  18.710  0.00  0.00    +0.000 A 
ATOM      3  C   UNL     1       7.407   5.502  19.319  0.00  0.00    +0.000 A 
ATOM      4  C   UNL     1       6.203   5.011  18.836  0.00  0.00    +0.000 A 
ATOM      5  C   UNL     1       5.557   5.623  17.767  0.00  0.00    +0.000 A 
ATOM      6  C   UNL     1       6.100   6.738  17.152  0.00  0.00    +0.000 A 
ATOM      7  S   UNL     1       4.064   4.802  17.369  0.00  0.00    +0.000 S 
ATOM      8  C   UNL     1       4.392   3.622  18.693  0.00  0.00    +0.000 C 
ATOM      9  O   UNL     1       5.616   3.908  19.404  0.00  0.00    +0.000 OA
ENDROOT
BRANCH   1  10
ATOM     10  O   UNL     1       7.832   8.331  17.016  0.00  0.00    +0.000 OA
ATOM     11  H   UNL     1       7.343   9.118  17.309  0.00  0.00    +0.000 HD
ENDBRANCH   1  10
TORSDOF 1
ENDMDL
MODEL 6
REMARK VINA RESULT:      -4.8      4.858      5.617
REMARK  Name = 
REMARK  1 active torsions:
REMARK  status: ('A' for Active; 'I' for Inactive)
REMARK    1  A    between atoms: O_1  and  C_2
REMARK                            x       y       z     vdW  Elec       q    Type
REMARK                         _______ _______ _______ _____ _____    ______ ____
ROOT
ATOM      1  C   UNL     1       1.729   2.856  20.883  0.00  0.00    +0.000 A 
ATOM      2  C   UNL     1       0.804   2.844  19.834  0.00  0.00    +0.000 A 
ATOM      3  C   UNL     1       1.212   3.209  18.548  0.00  0.00    +0.000 A 
ATOM      4  C   UNL     1       2.534   3.576  18.345  0.00  0.00    +0.000 A 
ATOM      5  C   UNL     1       3.444   3.585  19.397  0.00  0.00    +0.000 A 
ATOM      6  C   UNL     1       3.056   3.227  20.676  0.00  0.00    +0.000 A 
ATOM      7  S   UNL     1       5.032   4.087  18.861  0.00  0.00    +0.000 S 
ATOM      8  C   UNL     1       4.385   4.253  17.186  0.00  0.00    +0.000 C 
ATOM      9  O   UNL     1       2.977   3.940  17.099  0.00  0.00    +0.000 OA
ENDROOT
BRANCH   1  10
ATOM     10  O   UNL     1       1.364   2.505  22.150  0.00  0.00    +0.000 OA
ATOM     11  H   UNL     1       1.820   1.682  22.392  0.00  0.00    +0.000 HD
ENDBRANCH   1  10
TORSDOF 1
ENDMDL
MODEL 7
REMARK VINA RESULT:      -4.8      4.594      5.386
REMARK  Name = 
REMARK  1 active torsions:
REMARK  status: ('A' for Active; 'I' for Inactive)
REMARK    1  A    between atoms: O_1  and  C_2
REMARK                            x       y       z     vdW  Elec       q    Type
REMARK                         _______ _______ _______ _____ _____    ______ ____
ROOT
ATOM      1  C   UNL     1       1.325   3.318  19.389  0.00  0.00    +0.000 A 
ATOM      2  C   UNL     1       1.728   2.235  18.600  0.00  0.00    +0.000 A 
ATOM      3  C   UNL     1       2.735   2.410  17.646  0.00  0.00    +0.000 A 
ATOM      4  C   UNL     1       3.311   3.664  17.507  0.00  0.00    +0.000 A 
ATOM      5  C   UNL     1       2.901   4.733  18.295  0.00  0.00    +0.000 A 
ATOM      6  C   UNL     1       1.905   4.576  19.244  0.00  0.00    +0.000 A 
ATOM      7  S   UNL     1       3.791   6.190  17.909  0.00  0.00    +0.000 S 
ATOM      8  C   UNL     1       4.720   5.261  16.672  0.00  0.00    +0.000 C 
ATOM      9  O   UNL     1       4.303   3.881  16.584  0.00  0.00    +0.000 OA
ENDROOT
BRANCH   1  10
ATOM     10  O   UNL     1       0.346   3.180  20.329  0.00  0.00    +0.000 OA
ATOM     11  H   UNL     1      -0.395   2.688  19.941  0.00  0.00    +0.000 HD
ENDBRANCH   1  10
TORSDOF 1
ENDMDL
MODEL 8
REMARK VINA RESULT:      -4.7      4.274      4.997
REMARK  Name = 
REMARK  1 active torsions:
REMARK  status: ('A' for Active; 'I' for Inactive)
REMARK    1  A    between atoms: O_1  and  C_2
REMARK                            x       y       z     vdW  Elec       q    Type
REMARK                         _______ _______ _______ _____ _____    ______ ____
ROOT
ATOM      1  C   UNL     1       5.167   3.882  18.257  0.00  0.00    +0.000 A 
ATOM      2  C   UNL     1       4.378   3.858  17.102  0.00  0.00    +0.000 A 
ATOM      3  C   UNL     1       3.001   3.645  17.208  0.00  0.00    +0.000 A 
ATOM      4  C   UNL     1       2.449   3.462  18.467  0.00  0.00    +0.000 A 
ATOM      5  C   UNL     1       3.242   3.485  19.608  0.00  0.00    +0.000 A 
ATOM      6  C   UNL     1       4.608   3.695  19.520  0.00  0.00    +0.000 A 
ATOM      7  S   UNL     1       2.290   3.226  21.053  0.00  0.00    +0.000 S 
ATOM      8  C   UNL     1       0.813   3.108  20.026  0.00  0.00    +0.000 C 
ATOM      9  O   UNL     1       1.101   3.250  18.617  0.00  0.00    +0.000 OA
ENDROOT
BRANCH   1  10
ATOM     10  O   UNL     1       6.513   4.088  18.189  0.00  0.00    +0.000 OA
ATOM     11  H   UNL     1       6.684   4.876  17.648  0.00  0.00    +0.000 HD
ENDBRANCH   1  10
TORSDOF 1
ENDMDL
MODEL 9
REMARK VINA RESULT:      -4.7      2.736      4.348
REMARK  Name = 
REMARK  1 active torsions:
REMARK  status: ('A' for Active; 'I' for Inactive)
REMARK    1  A    between atoms: O_1  and  C_2
REMARK                            x       y       z     vdW  Elec       q    Type
REMARK                         _______ _______ _______ _____ _____    ______ ____
ROOT
ATOM      1  C   UNL     1       3.199   3.919  17.594  0.00  0.00    +0.000 A 
ATOM      2  C   UNL     1       2.979   4.453  18.869  0.00  0.00    +0.000 A 
ATOM      3  C   UNL     1       4.043   5.020  19.575  0.00  0.00    +0.000 A 
ATOM      4  C   UNL     1       5.299   5.039  18.988  0.00  0.00    +0.000 A 
ATOM      5  C   UNL     1       5.507   4.503  17.722  0.00  0.00    +0.000 A 
ATOM      6  C   UNL     1       4.463   3.938  17.009  0.00  0.00    +0.000 A 
ATOM      7  S   UNL     1       7.179   4.659  17.230  0.00  0.00    +0.000 S 
ATOM      8  C   UNL     1       7.535   5.479  18.796  0.00  0.00    +0.000 C 
ATOM      9  O   UNL     1       6.372   5.587  19.646  0.00  0.00    +0.000 OA
ENDROOT
BRANCH   1  10
ATOM     10  O   UNL     1       2.182   3.359  16.878  0.00  0.00    +0.000 OA
ATOM     11  H   UNL     1       1.378   3.889  17.007  0.00  0.00    +0.000 HD
ENDBRANCH   1  10
TORSDOF 1
ENDMDL
