MODEL 1
REMARK VINA RESULT:      -6.2      0.000      0.000
REMARK  Name = 
REMARK  5 active torsions:
REMARK  status: ('A' for Active; 'I' for Inactive)
REMARK    1  A    between atoms: C_1  and  C_2
REMARK    2  A    between atoms: C_2  and  C_3
REMARK    3  A    between atoms: C_3  and  N_4
REMARK    4  A    between atoms: C_5  and  C_7
REMARK    5  A    between atoms: C_12  and  N_13
REMARK                            x       y       z     vdW  Elec       q    Type
REMARK                         _______ _______ _______ _____ _____    ______ ____
ROOT
ATOM      1  C   UNL     1       6.075   4.901  15.839  0.00  0.00    +0.000 A 
ATOM      2  C   UNL     1       5.010   4.051  16.184  0.00  0.00    +0.000 A 
ATOM      3  C   UNL     1       4.399   4.148  17.434  0.00  0.00    +0.000 A 
ATOM      4  C   UNL     1       4.859   5.087  18.351  0.00  0.00    +0.000 A 
ATOM      5  C   UNL     1       5.915   5.938  18.014  0.00  0.00    +0.000 A 
ATOM      6  C   UNL     1       6.500   5.903  16.738  0.00  0.00    +0.000 A 
ENDROOT
BRANCH   1   8
ATOM      7  N   UNL     1       6.085   3.732  13.698  0.00  0.00    +0.000 N 
ATOM      8  C   UNL     1       6.667   4.703  14.484  0.00  0.00    +0.000 C 
ATOM      9  O   UNL     1       7.606   5.398  14.114  0.00  0.00    +0.000 OA
ATOM     10  H   UNL     1       5.251   3.267  14.049  0.00  0.00    +0.000 HD
BRANCH   7  11
ATOM     11  C   UNL     1       6.560   3.439  12.362  0.00  0.00    +0.000 C 
BRANCH  11  13
ATOM     12  C   UNL     1       4.247   3.235  11.391  0.00  0.00    +0.000 C 
ATOM     13  C   UNL     1       5.586   2.543  11.603  0.00  0.00    +0.000 C 
ENDBRANCH  11  13
ENDBRANCH   7  11
ENDBRANCH   1   8
BRANCH   6  14
ATOM     14  N   UNL     1       7.610   6.742  16.488  0.00  0.00    +0.000 N 
ATOM     15  H   UNL     1       7.358   7.577  15.965  0.00  0.00    +0.000 HD
ATOM     16  H   UNL     1       8.362   6.237  16.019  0.00  0.00    +0.000 HD
ENDBRANCH   6  14
TORSDOF 4
ENDMDL
MODEL 2
REMARK VINA RESULT:      -6.2      1.279      1.399
REMARK  Name = 
REMARK  5 active torsions:
REMARK  status: ('A' for Active; 'I' for Inactive)
REMARK    1  A    between atoms: C_1  and  C_2
REMARK    2  A    between atoms: C_2  and  C_3
REMARK    3  A    between atoms: C_3  and  N_4
REMARK    4  A    between atoms: C_5  and  C_7
REMARK    5  A    between atoms: C_12  and  N_13
REMARK                            x       y       z     vdW  Elec       q    Type
REMARK                         _______ _______ _______ _____ _____    ______ ____
ROOT
ATOM      1  C   UNL     1       6.038   5.046  16.581  0.00  0.00    +0.000 A 
ATOM      2  C   UNL     1       4.712   5.510  16.612  0.00  0.00    +0.000 A 
ATOM      3  C   UNL     1       4.056   5.709  17.827  0.00  0.00    +0.000 A 
ATOM      4  C   UNL     1       4.719   5.429  19.018  0.00  0.00    +0.000 A 
ATOM      5  C   UNL     1       6.039   4.970  18.995  0.00  0.00    +0.000 A 
ATOM      6  C   UNL     1       6.740   4.828  17.786  0.00  0.00    +0.000 A 
ENDROOT
BRANCH   1   8
ATOM      7  N   UNL     1       5.949   4.034  14.363  0.00  0.00    +0.000 N 
ATOM      8  C   UNL     1       6.640   4.853  15.229  0.00  0.00    +0.000 C 
ATOM      9  O   UNL     1       7.683   5.424  14.931  0.00  0.00    +0.000 OA
ATOM     10  H   UNL     1       5.045   3.675  14.661  0.00  0.00    +0.000 HD
BRANCH   7  11
ATOM     11  C   UNL     1       6.421   3.764  13.021  0.00  0.00    +0.000 C 
BRANCH  11  13
ATOM     12  C   UNL     1       5.700   1.966  11.414  0.00  0.00    +0.000 C 
ATOM     13  C   UNL     1       5.298   3.251  12.123  0.00  0.00    +0.000 C 
ENDBRANCH  11  13
ENDBRANCH   7  11
ENDBRANCH   1   8
BRANCH   6  14
ATOM     14  N   UNL     1       8.047   4.292  17.831  0.00  0.00    +0.000 N 
ATOM     15  H   UNL     1       8.234   3.789  18.695  0.00  0.00    +0.000 HD
ATOM     16  H   UNL     1       8.752   5.012  17.676  0.00  0.00    +0.000 HD
ENDBRANCH   6  14
TORSDOF 4
ENDMDL
MODEL 3
REMARK VINA RESULT:      -6.1      3.106      4.322
REMARK  Name = 
REMARK  5 active torsions:
REMARK  status: ('A' for Active; 'I' for Inactive)
REMARK    1  A    between atoms: C_1  and  C_2
REMARK    2  A    between atoms: C_2  and  C_3
REMARK    3  A    between atoms: C_3  and  N_4
REMARK    4  A    between atoms: C_5  and  C_7
REMARK    5  A    between atoms: C_12  and  N_13
REMARK                            x       y       z     vdW  Elec       q    Type
REMARK                         _______ _______ _______ _____ _____    ______ ____
ROOT
ATOM      1  C   UNL     1       3.863   3.804  18.375  0.00  0.00    +0.000 A 
ATOM      2  C   UNL     1       2.736   4.418  17.802  0.00  0.00    +0.000 A 
ATOM      3  C   UNL     1       1.458   3.911  18.028  0.00  0.00    +0.000 A 
ATOM      4  C   UNL     1       1.300   2.776  18.818  0.00  0.00    +0.000 A 
ATOM      5  C   UNL     1       2.415   2.161  19.393  0.00  0.00    +0.000 A 
ATOM      6  C   UNL     1       3.704   2.695  19.234  0.00  0.00    +0.000 A 
ENDROOT
BRANCH   1   8
ATOM      7  N   UNL     1       5.814   3.959  16.920  0.00  0.00    +0.000 N 
ATOM      8  C   UNL     1       5.185   4.418  18.057  0.00  0.00    +0.000 C 
ATOM      9  O   UNL     1       5.648   5.295  18.777  0.00  0.00    +0.000 OA
ATOM     10  H   UNL     1       5.317   3.296  16.330  0.00  0.00    +0.000 HD
BRANCH   7  11
ATOM     11  C   UNL     1       7.101   4.471  16.495  0.00  0.00    +0.000 C 
BRANCH  11  13
ATOM     12  C   UNL     1       6.031   4.081  14.250  0.00  0.00    +0.000 C 
ATOM     13  C   UNL     1       7.093   4.855  15.018  0.00  0.00    +0.000 C 
ENDBRANCH  11  13
ENDBRANCH   7  11
ENDBRANCH   1   8
BRANCH   6  14
ATOM     14  N   UNL     1       4.794   1.984  19.784  0.00  0.00    +0.000 N 
ATOM     15  H   UNL     1       4.549   1.031  20.044  0.00  0.00    +0.000 HD
ATOM     16  H   UNL     1       5.201   2.479  20.579  0.00  0.00    +0.000 HD
ENDBRANCH   6  14
TORSDOF 4
ENDMDL
MODEL 4
REMARK VINA RESULT:      -6.0      4.141      5.663
REMARK  Name = 
REMARK  5 active torsions:
REMARK  status: ('A' for Active; 'I' for Inactive)
REMARK    1  A    between atoms: C_1  and  C_2
REMARK    2  A    between atoms: C_2  and  C_3
REMARK    3  A    between atoms: C_3  and  N_4
REMARK    4  A    between atoms: C_5  and  C_7
REMARK    5  A    between atoms: C_12  and  N_13
REMARK                            x       y       z     vdW  Elec       q    Type
REMARK                         _______ _______ _______ _____ _____    ______ ____
ROOT
ATOM      1  C   UNL     1       3.434   3.908  18.982  0.00  0.00    +0.000 A 
ATOM      2  C   UNL     1       3.133   4.907  19.924  0.00  0.00    +0.000 A 
ATOM      3  C   UNL     1       1.985   4.821  20.711  0.00  0.00    +0.000 A 
ATOM      4  C   UNL     1       1.123   3.740  20.551  0.00  0.00    +0.000 A 
ATOM      5  C   UNL     1       1.417   2.741  19.619  0.00  0.00    +0.000 A 
ATOM      6  C   UNL     1       2.601   2.774  18.864  0.00  0.00    +0.000 A 
ENDROOT
BRANCH   1   8
ATOM      7  N   UNL     1       5.791   4.523  18.876  0.00  0.00    +0.000 N 
ATOM      8  C   UNL     1       4.677   4.105  18.182  0.00  0.00    +0.000 C 
ATOM      9  O   UNL     1       4.678   3.878  16.978  0.00  0.00    +0.000 OA
ATOM     10  H   UNL     1       5.725   4.599  19.889  0.00  0.00    +0.000 HD
BRANCH   7  11
ATOM     11  C   UNL     1       7.063   4.751  18.222  0.00  0.00    +0.000 C 
BRANCH  11  13
ATOM     12  C   UNL     1       7.439   7.152  17.566  0.00  0.00    +0.000 C 
ATOM     13  C   UNL     1       7.673   6.089  18.630  0.00  0.00    +0.000 C 
ENDBRANCH  11  13
ENDBRANCH   7  11
ENDBRANCH   1   8
BRANCH   6  14
ATOM     14  N   UNL     1       2.801   1.769  17.891  0.00  0.00    +0.000 N 
ATOM     15  H   UNL     1       3.707   1.840  17.436  0.00  0.00    +0.000 HD
ATOM     16  H   UNL     1       2.051   1.765  17.198  0.00  0.00    +0.000 HD
ENDBRANCH   6  14
TORSDOF 4
ENDMDL
MODEL 5
REMARK VINA RESULT:      -5.9      1.042      1.071
REMARK  Name = 
REMARK  5 active torsions:
REMARK  status: ('A' for Active; 'I' for Inactive)
REMARK    1  A    between atoms: C_1  and  C_2
REMARK    2  A    between atoms: C_2  and  C_3
REMARK    3  A    between atoms: C_3  and  N_4
REMARK    4  A    between atoms: C_5  and  C_7
REMARK    5  A    between atoms: C_12  and  N_13
REMARK                            x       y       z     vdW  Elec       q    Type
REMARK                         _______ _______ _______ _____ _____    ______ ____
ROOT
ATOM      1  C   UNL     1       5.231   4.888  16.155  0.00  0.00    +0.000 A 
ATOM      2  C   UNL     1       4.258   3.918  16.454  0.00  0.00    +0.000 A 
ATOM      3  C   UNL     1       3.308   4.147  17.449  0.00  0.00    +0.000 A 
ATOM      4  C   UNL     1       3.335   5.342  18.161  0.00  0.00    +0.000 A 
ATOM      5  C   UNL     1       4.297   6.312  17.867  0.00  0.00    +0.000 A 
ATOM      6  C   UNL     1       5.220   6.131  16.824  0.00  0.00    +0.000 A 
ENDROOT
BRANCH   1   8
ATOM      7  N   UNL     1       5.678   4.070  13.901  0.00  0.00    +0.000 N 
ATOM      8  C   UNL     1       6.208   4.537  15.084  0.00  0.00    +0.000 C 
ATOM      9  O   UNL     1       7.410   4.688  15.271  0.00  0.00    +0.000 OA
ATOM     10  H   UNL     1       4.665   4.063  13.799  0.00  0.00    +0.000 HD
BRANCH   7  11
ATOM     11  C   UNL     1       6.514   3.695  12.780  0.00  0.00    +0.000 C 
BRANCH  11  13
ATOM     12  C   UNL     1       4.345   3.259  11.580  0.00  0.00    +0.000 C 
ATOM     13  C   UNL     1       5.772   2.784  11.805  0.00  0.00    +0.000 C 
ENDBRANCH  11  13
ENDBRANCH   7  11
ENDBRANCH   1   8
BRANCH   6  14
ATOM     14  N   UNL     1       6.209   7.121  16.628  0.00  0.00    +0.000 N 
ATOM     15  H   UNL     1       7.038   6.759  16.164  0.00  0.00    +0.000 HD
ATOM     16  H   UNL     1       6.460   7.578  17.506  0.00  0.00    +0.000 HD
ENDBRANCH   6  14
TORSDOF 4
ENDMDL
MODEL 6
REMARK VINA RESULT:      -5.9      3.463      4.623
REMARK  Name = 
REMARK  5 active torsions:
REMARK  status: ('A' for Active; 'I' for Inactive)
REMARK    1  A    between atoms: C_1  and  C_2
REMARK    2  A    between atoms: C_2  and  C_3
REMARK    3  A    between atoms: C_3  and  N_4
REMARK    4  A    between atoms: C_5  and  C_7
REMARK    5  A    between atoms: C_12  and  N_13
REMARK                            x       y       z     vdW  Elec       q    Type
REMARK                         _______ _______ _______ _____ _____    ______ ____
ROOT
ATOM      1  C   UNL     1       3.810   4.026  19.332  0.00  0.00    +0.000 A 
ATOM      2  C   UNL     1       2.712   4.902  19.370  0.00  0.00    +0.000 A 
ATOM      3  C   UNL     1       1.599   4.613  20.157  0.00  0.00    +0.000 A 
ATOM      4  C   UNL     1       1.571   3.437  20.901  0.00  0.00    +0.000 A 
ATOM      5  C   UNL     1       2.660   2.562  20.871  0.00  0.00    +0.000 A 
ATOM      6  C   UNL     1       3.819   2.867  20.138  0.00  0.00    +0.000 A 
ENDROOT
BRANCH   1   8
ATOM      7  N   UNL     1       4.611   4.815  17.167  0.00  0.00    +0.000 N 
ATOM      8  C   UNL     1       4.943   4.422  18.446  0.00  0.00    +0.000 C 
ATOM      9  O   UNL     1       6.093   4.407  18.870  0.00  0.00    +0.000 OA
ATOM     10  H   UNL     1       3.624   4.886  16.928  0.00  0.00    +0.000 HD
BRANCH   7  11
ATOM     11  C   UNL     1       5.612   5.226  16.205  0.00  0.00    +0.000 C 
BRANCH  11  13
ATOM     12  C   UNL     1       5.788   4.075  13.974  0.00  0.00    +0.000 C 
ATOM     13  C   UNL     1       6.183   4.034  15.443  0.00  0.00    +0.000 C 
ENDBRANCH  11  13
ENDBRANCH   7  11
ENDBRANCH   1   8
BRANCH   6  14
ATOM     14  N   UNL     1       4.854   1.905  20.095  0.00  0.00    +0.000 N 
ATOM     15  H   UNL     1       4.695   1.131  20.735  0.00  0.00    +0.000 HD
ATOM     16  H   UNL     1       5.766   2.330  20.265  0.00  0.00    +0.000 HD
ENDBRANCH   6  14
TORSDOF 4
ENDMDL
MODEL 7
REMARK VINA RESULT:      -5.9      3.892      5.389
REMARK  Name = 
REMARK  5 active torsions:
REMARK  status: ('A' for Active; 'I' for Inactive)
REMARK    1  A    between atoms: C_1  and  C_2
REMARK    2  A    between atoms: C_2  and  C_3
REMARK    3  A    between atoms: C_3  and  N_4
REMARK    4  A    between atoms: C_5  and  C_7
REMARK    5  A    between atoms: C_12  and  N_13
REMARK                            x       y       z     vdW  Elec       q    Type
REMARK                         _______ _______ _______ _____ _____    ______ ____
ROOT
ATOM      1  C   UNL     1       4.037   3.830  19.319  0.00  0.00    +0.000 A 
ATOM      2  C   UNL     1       3.093   4.844  19.557  0.00  0.00    +0.000 A 
ATOM      3  C   UNL     1       2.156   4.718  20.582  0.00  0.00    +0.000 A 
ATOM      4  C   UNL     1       2.148   3.568  21.366  0.00  0.00    +0.000 A 
ATOM      5  C   UNL     1       3.085   2.556  21.137  0.00  0.00    +0.000 A 
ATOM      6  C   UNL     1       4.079   2.693  20.155  0.00  0.00    +0.000 A 
ENDROOT
BRANCH   1   8
ATOM      7  N   UNL     1       6.283   4.364  18.533  0.00  0.00    +0.000 N 
ATOM      8  C   UNL     1       4.984   4.058  18.189  0.00  0.00    +0.000 C 
ATOM      9  O   UNL     1       4.600   3.951  17.031  0.00  0.00    +0.000 OA
ATOM     10  H   UNL     1       6.537   4.341  19.518  0.00  0.00    +0.000 HD
BRANCH   7  11
ATOM     11  C   UNL     1       7.304   4.608  17.536  0.00  0.00    +0.000 C 
BRANCH  11  13
ATOM     12  C   UNL     1       7.819   6.976  18.213  0.00  0.00    +0.000 C 
ATOM     13  C   UNL     1       7.324   6.069  17.096  0.00  0.00    +0.000 C 
ENDBRANCH  11  13
ENDBRANCH   7  11
ENDBRANCH   1   8
BRANCH   6  14
ATOM     14  N   UNL     1       4.950   1.602  19.930  0.00  0.00    +0.000 N 
ATOM     15  H   UNL     1       5.820   1.882  19.483  0.00  0.00    +0.000 HD
ATOM     16  H   UNL     1       4.493   0.864  19.394  0.00  0.00    +0.000 HD
ENDBRANCH   6  14
TORSDOF 4
ENDMDL
MODEL 8
REMARK VINA RESULT:      -5.9      4.003      5.572
REMARK  Name = 
REMARK  5 active torsions:
REMARK  status: ('A' for Active; 'I' for Inactive)
REMARK    1  A    between atoms: C_1  and  C_2
REMARK    2  A    between atoms: C_2  and  C_3
REMARK    3  A    between atoms: C_3  and  N_4
REMARK    4  A    between atoms: C_5  and  C_7
REMARK    5  A    between atoms: C_12  and  N_13
REMARK                            x       y       z     vdW  Elec       q    Type
REMARK                         _______ _______ _______ _____ _____    ______ ____
ROOT
ATOM      1  C   UNL     1       2.358   5.015  18.652  0.00  0.00    +0.000 A 
ATOM      2  C   UNL     1       2.033   3.883  17.884  0.00  0.00    +0.000 A 
ATOM      3  C   UNL     1       1.265   2.853  18.425  0.00  0.00    +0.000 A 
ATOM      4  C   UNL     1       0.829   2.942  19.743  0.00  0.00    +0.000 A 
ATOM      5  C   UNL     1       1.145   4.065  20.512  0.00  0.00    +0.000 A 
ATOM      6  C   UNL     1       1.860   5.144  19.967  0.00  0.00    +0.000 A 
ENDROOT
BRANCH   1   8
ATOM      7  N   UNL     1       4.304   5.594  17.301  0.00  0.00    +0.000 N 
ATOM      8  C   UNL     1       3.197   6.051  17.983  0.00  0.00    +0.000 C 
ATOM      9  O   UNL     1       2.879   7.233  18.038  0.00  0.00    +0.000 OA
ATOM     10  H   UNL     1       4.442   4.589  17.228  0.00  0.00    +0.000 HD
BRANCH   7  11
ATOM     11  C   UNL     1       5.202   6.492  16.605  0.00  0.00    +0.000 C 
BRANCH  11  13
ATOM     12  C   UNL     1       7.407   7.248  17.554  0.00  0.00    +0.000 C 
ATOM     13  C   UNL     1       6.664   6.125  16.846  0.00  0.00    +0.000 C 
ENDBRANCH  11  13
ENDBRANCH   7  11
ENDBRANCH   1   8
BRANCH   6  14
ATOM     14  N   UNL     1       2.206   6.216  20.820  0.00  0.00    +0.000 N 
ATOM     15  H   UNL     1       2.971   6.777  20.454  0.00  0.00    +0.000 HD
ATOM     16  H   UNL     1       2.419   5.890  21.763  0.00  0.00    +0.000 HD
ENDBRANCH   6  14
TORSDOF 4
ENDMDL
MODEL 9
REMARK VINA RESULT:      -5.8      3.258      5.716
REMARK  Name = 
REMARK  5 active torsions:
REMARK  status: ('A' for Active; 'I' for Inactive)
REMARK    1  A    between atoms: C_1  and  C_2
REMARK    2  A    between atoms: C_2  and  C_3
REMARK    3  A    between atoms: C_3  and  N_4
REMARK    4  A    between atoms: C_5  and  C_7
REMARK    5  A    between atoms: C_12  and  N_13
REMARK                            x       y       z     vdW  Elec       q    Type
REMARK                         _______ _______ _______ _____ _____    ______ ____
ROOT
ATOM      1  C   UNL     1       5.382   4.252  17.718  0.00  0.00    +0.000 A 
ATOM      2  C   UNL     1       4.653   4.076  16.529  0.00  0.00    +0.000 A 
ATOM      3  C   UNL     1       5.260   4.266  15.289  0.00  0.00    +0.000 A 
ATOM      4  C   UNL     1       6.598   4.647  15.230  0.00  0.00    +0.000 A 
ATOM      5  C   UNL     1       7.329   4.820  16.408  0.00  0.00    +0.000 A 
ATOM      6  C   UNL     1       6.757   4.569  17.665  0.00  0.00    +0.000 A 
ENDROOT
BRANCH   1   8
ATOM      7  N   UNL     1       3.596   4.911  19.243  0.00  0.00    +0.000 N 
ATOM      8  C   UNL     1       4.633   4.039  18.991  0.00  0.00    +0.000 C 
ATOM      9  O   UNL     1       4.936   3.116  19.738  0.00  0.00    +0.000 OA
ATOM     10  H   UNL     1       3.355   5.590  18.525  0.00  0.00    +0.000 HD
BRANCH   7  11
ATOM     11  C   UNL     1       2.787   4.815  20.441  0.00  0.00    +0.000 C 
BRANCH  11  13
ATOM     12  C   UNL     1       1.359   2.852  21.105  0.00  0.00    +0.000 C 
ATOM     13  C   UNL     1       1.489   4.056  20.183  0.00  0.00    +0.000 C 
ENDBRANCH  11  13
ENDBRANCH   7  11
ENDBRANCH   1   8
BRANCH   6  14
ATOM     14  N   UNL     1       7.532   4.832  18.818  0.00  0.00    +0.000 N 
ATOM     15  H   UNL     1       6.999   5.295  19.550  0.00  0.00    +0.000 HD
ATOM     16  H   UNL     1       8.370   5.368  18.590  0.00  0.00    +0.000 HD
ENDBRANCH   6  14
TORSDOF 4
ENDMDL
