MODEL 1
REMARK VINA RESULT:      -7.3      0.000      0.000
REMARK  Name = 
REMARK  9 active torsions:
REMARK  status: ('A' for Active; 'I' for Inactive)
REMARK    1  A    between atoms: C_1  and  C_2
REMARK    2  A    between atoms: C_2  and  C_3
REMARK    3  A    between atoms: C_3  and  N_4
REMARK    4  A    between atoms: C_7  and  C_8
REMARK    5  A    between atoms: C_8  and  C_9
REMARK    6  A    between atoms: C_13  and  C_14
REMARK    7  A    between atoms: C_13  and  C_15
REMARK    8  A    between atoms: C_16  and  C_17
REMARK    9  A    between atoms: C_16  and  O_18
REMARK                            x       y       z     vdW  Elec       q    Type
REMARK                         _______ _______ _______ _____ _____    ______ ____
ROOT
ATOM      1  C   UNL     1       3.828   5.952  18.277  0.00  0.00    +0.000 C 
ATOM      2  O   UNL     1       3.102   6.936  18.159  0.00  0.00    +0.000 OA
ATOM      3  N   UNL     1       3.319   4.672  18.371  0.00  0.00    +0.000 N 
ATOM      4  C   UNL     1       1.907   4.390  18.196  0.00  0.00    +0.000 C 
ATOM      5  C   UNL     1       1.567   3.407  19.327  0.00  0.00    +0.000 C 
ATOM      6  C   UNL     1       0.361   2.538  18.941  0.00  0.00    +0.000 C 
ATOM      7  C   UNL     1       1.198   4.225  20.580  0.00  0.00    +0.000 C 
ATOM      8  C   UNL     1       2.902   2.595  19.478  0.00  0.00    +0.000 C 
ATOM      9  C   UNL     1       3.208   2.118  20.896  0.00  0.00    +0.000 C 
ATOM     10  C   UNL     1       4.012   3.543  18.971  0.00  0.00    +0.000 C 
ENDROOT
BRANCH   8  11
ATOM     11  O   UNL     1       2.882   1.424  18.653  0.00  0.00    +0.000 OA
ATOM     12  H   UNL     1       3.357   1.618  17.828  0.00  0.00    +0.000 HD
ENDBRANCH   8  11
BRANCH   1  13
ATOM     13  C   UNL     1       5.348   6.063  18.330  0.00  0.00    +0.000 C 
BRANCH  13  17
ATOM     14  N   UNL     1       6.437   5.113  14.878  0.00  0.00    +0.000 NA
ATOM     15  C   UNL     1       5.075   5.541  15.229  0.00  0.00    +0.000 C 
ATOM     16  C   UNL     1       5.081   6.906  15.917  0.00  0.00    +0.000 C 
ATOM     17  C   UNL     1       5.942   6.915  17.188  0.00  0.00    +0.000 C 
ATOM     18  C   UNL     1       7.347   6.425  16.804  0.00  0.00    +0.000 C 
ATOM     19  C   UNL     1       7.323   5.088  16.051  0.00  0.00    +0.000 C 
BRANCH  14  20
ATOM     20  C   UNL     1       6.444   3.794  14.215  0.00  0.00    +0.000 C 
BRANCH  20  22
ATOM     21  C   UNL     1       5.187   3.303  12.045  0.00  0.00    +0.000 C 
ATOM     22  C   UNL     1       6.466   3.830  12.680  0.00  0.00    +0.000 C 
ENDBRANCH  20  22
ENDBRANCH  14  20
ENDBRANCH  13  17
ENDBRANCH   1  13
TORSDOF 5
ENDMDL
MODEL 2
REMARK VINA RESULT:      -7.0      1.936      6.144
REMARK  Name = 
REMARK  9 active torsions:
REMARK  status: ('A' for Active; 'I' for Inactive)
REMARK    1  A    between atoms: C_1  and  C_2
REMARK    2  A    between atoms: C_2  and  C_3
REMARK    3  A    between atoms: C_3  and  N_4
REMARK    4  A    between atoms: C_7  and  C_8
REMARK    5  A    between atoms: C_8  and  C_9
REMARK    6  A    between atoms: C_13  and  C_14
REMARK    7  A    between atoms: C_13  and  C_15
REMARK    8  A    between atoms: C_16  and  C_17
REMARK    9  A    between atoms: C_16  and  O_18
REMARK                            x       y       z     vdW  Elec       q    Type
REMARK                         _______ _______ _______ _____ _____    ______ ____
ROOT
ATOM      1  C   UNL     1       3.313   2.553  18.058  0.00  0.00    +0.000 C 
ATOM      2  O   UNL     1       2.673   1.986  17.177  0.00  0.00    +0.000 OA
ATOM      3  N   UNL     1       4.030   3.708  17.816  0.00  0.00    +0.000 N 
ATOM      4  C   UNL     1       3.963   4.403  16.545  0.00  0.00    +0.000 C 
ATOM      5  C   UNL     1       5.422   4.761  16.223  0.00  0.00    +0.000 C 
ATOM      6  C   UNL     1       5.486   5.993  15.308  0.00  0.00    +0.000 C 
ATOM      7  C   UNL     1       6.056   3.569  15.480  0.00  0.00    +0.000 C 
ATOM      8  C   UNL     1       6.029   5.007  17.649  0.00  0.00    +0.000 C 
ATOM      9  C   UNL     1       7.502   4.632  17.795  0.00  0.00    +0.000 C 
ATOM     10  C   UNL     1       5.156   4.170  18.611  0.00  0.00    +0.000 C 
ENDROOT
BRANCH   8  11
ATOM     11  O   UNL     1       5.925   6.388  18.016  0.00  0.00    +0.000 OA
ATOM     12  H   UNL     1       6.287   6.500  18.910  0.00  0.00    +0.000 HD
ENDBRANCH   8  11
BRANCH   1  13
ATOM     13  C   UNL     1       3.369   2.030  19.490  0.00  0.00    +0.000 C 
BRANCH  13  17
ATOM     14  N   UNL     1       1.447   5.039  20.611  0.00  0.00    +0.000 NA
ATOM     15  C   UNL     1       1.287   4.394  19.299  0.00  0.00    +0.000 C 
ATOM     16  C   UNL     1       0.955   2.909  19.445  0.00  0.00    +0.000 C 
ATOM     17  C   UNL     1       2.026   2.148  20.239  0.00  0.00    +0.000 C 
ATOM     18  C   UNL     1       2.204   2.864  21.588  0.00  0.00    +0.000 C 
ATOM     19  C   UNL     1       2.467   4.367  21.431  0.00  0.00    +0.000 C 
BRANCH  14  20
ATOM     20  C   UNL     1       1.771   6.474  20.482  0.00  0.00    +0.000 C 
BRANCH  20  22
ATOM     21  C   UNL     1       2.142   8.094  18.541  0.00  0.00    +0.000 C 
ATOM     22  C   UNL     1       2.629   6.847  19.265  0.00  0.00    +0.000 C 
ENDBRANCH  20  22
ENDBRANCH  14  20
ENDBRANCH  13  17
ENDBRANCH   1  13
TORSDOF 5
ENDMDL
MODEL 3
REMARK VINA RESULT:      -7.0      0.934      1.021
REMARK  Name = 
REMARK  9 active torsions:
REMARK  status: ('A' for Active; 'I' for Inactive)
REMARK    1  A    between atoms: C_1  and  C_2
REMARK    2  A    between atoms: C_2  and  C_3
REMARK    3  A    between atoms: C_3  and  N_4
REMARK    4  A    between atoms: C_7  and  C_8
REMARK    5  A    between atoms: C_8  and  C_9
REMARK    6  A    between atoms: C_13  and  C_14
REMARK    7  A    between atoms: C_13  and  C_15
REMARK    8  A    between atoms: C_16  and  C_17
REMARK    9  A    between atoms: C_16  and  O_18
REMARK                            x       y       z     vdW  Elec       q    Type
REMARK                         _______ _______ _______ _____ _____    ______ ____
ROOT
ATOM      1  C   UNL     1       3.716   5.780  19.087  0.00  0.00    +0.000 C 
ATOM      2  O   UNL     1       3.067   6.602  19.730  0.00  0.00    +0.000 OA
ATOM      3  N   UNL     1       3.160   4.601  18.631  0.00  0.00    +0.000 N 
ATOM      4  C   UNL     1       1.743   4.320  18.757  0.00  0.00    +0.000 C 
ATOM      5  C   UNL     1       1.681   2.860  19.233  0.00  0.00    +0.000 C 
ATOM      6  C   UNL     1       0.350   2.214  18.818  0.00  0.00    +0.000 C 
ATOM      7  C   UNL     1       1.768   2.852  20.771  0.00  0.00    +0.000 C 
ATOM      8  C   UNL     1       2.932   2.225  18.529  0.00  0.00    +0.000 C 
ATOM      9  C   UNL     1       3.610   1.103  19.313  0.00  0.00    +0.000 C 
ATOM     10  C   UNL     1       3.910   3.400  18.304  0.00  0.00    +0.000 C 
ENDROOT
BRANCH   8  11
ATOM     11  O   UNL     1       2.575   1.671  17.257  0.00  0.00    +0.000 OA
ATOM     12  H   UNL     1       2.615   0.703  17.318  0.00  0.00    +0.000 HD
ENDBRANCH   8  11
BRANCH   1  13
ATOM     13  C   UNL     1       5.186   5.993  18.742  0.00  0.00    +0.000 C 
BRANCH  13  17
ATOM     14  N   UNL     1       6.574   5.768  15.274  0.00  0.00    +0.000 NA
ATOM     15  C   UNL     1       5.150   5.619  15.609  0.00  0.00    +0.000 C 
ATOM     16  C   UNL     1       4.629   6.833  16.379  0.00  0.00    +0.000 C 
ATOM     17  C   UNL     1       5.414   7.082  17.674  0.00  0.00    +0.000 C 
ATOM     18  C   UNL     1       6.902   7.193  17.304  0.00  0.00    +0.000 C 
ATOM     19  C   UNL     1       7.396   6.003  16.471  0.00  0.00    +0.000 C 
BRANCH  14  20
ATOM     20  C   UNL     1       7.089   4.600  14.533  0.00  0.00    +0.000 C 
BRANCH  20  22
ATOM     21  C   UNL     1       6.478   3.587  12.267  0.00  0.00    +0.000 C 
ATOM     22  C   UNL     1       6.046   3.834  13.706  0.00  0.00    +0.000 C 
ENDBRANCH  20  22
ENDBRANCH  14  20
ENDBRANCH  13  17
ENDBRANCH   1  13
TORSDOF 5
ENDMDL
MODEL 4
REMARK VINA RESULT:      -6.7      2.230      4.166
REMARK  Name = 
REMARK  9 active torsions:
REMARK  status: ('A' for Active; 'I' for Inactive)
REMARK    1  A    between atoms: C_1  and  C_2
REMARK    2  A    between atoms: C_2  and  C_3
REMARK    3  A    between atoms: C_3  and  N_4
REMARK    4  A    between atoms: C_7  and  C_8
REMARK    5  A    between atoms: C_8  and  C_9
REMARK    6  A    between atoms: C_13  and  C_14
REMARK    7  A    between atoms: C_13  and  C_15
REMARK    8  A    between atoms: C_16  and  C_17
REMARK    9  A    between atoms: C_16  and  O_18
REMARK                            x       y       z     vdW  Elec       q    Type
REMARK                         _______ _______ _______ _____ _____    ______ ____
ROOT
ATOM      1  C   UNL     1       4.127   3.651  17.740  0.00  0.00    +0.000 C 
ATOM      2  O   UNL     1       4.116   2.562  17.174  0.00  0.00    +0.000 OA
ATOM      3  N   UNL     1       3.623   3.821  19.015  0.00  0.00    +0.000 N 
ATOM      4  C   UNL     1       3.178   2.701  19.821  0.00  0.00    +0.000 C 
ATOM      5  C   UNL     1       1.854   3.174  20.443  0.00  0.00    +0.000 C 
ATOM      6  C   UNL     1       1.581   2.432  21.759  0.00  0.00    +0.000 C 
ATOM      7  C   UNL     1       0.717   2.849  19.454  0.00  0.00    +0.000 C 
ATOM      8  C   UNL     1       2.103   4.712  20.630  0.00  0.00    +0.000 C 
ATOM      9  C   UNL     1       0.861   5.587  20.484  0.00  0.00    +0.000 C 
ATOM     10  C   UNL     1       3.160   5.084  19.565  0.00  0.00    +0.000 C 
ENDROOT
BRANCH   8  11
ATOM     11  O   UNL     1       2.641   4.987  21.929  0.00  0.00    +0.000 OA
ATOM     12  H   UNL     1       1.919   4.953  22.577  0.00  0.00    +0.000 HD
ENDBRANCH   8  11
BRANCH   1  13
ATOM     13  C   UNL     1       4.695   4.905  17.084  0.00  0.00    +0.000 C 
BRANCH  13  17
ATOM     14  N   UNL     1       7.943   6.651  17.718  0.00  0.00    +0.000 NA
ATOM     15  C   UNL     1       7.484   5.462  18.450  0.00  0.00    +0.000 C 
ATOM     16  C   UNL     1       7.160   4.312  17.498  0.00  0.00    +0.000 C 
ATOM     17  C   UNL     1       6.091   4.694  16.464  0.00  0.00    +0.000 C 
ATOM     18  C   UNL     1       6.574   5.962  15.741  0.00  0.00    +0.000 C 
ATOM     19  C   UNL     1       6.964   7.085  16.710  0.00  0.00    +0.000 C 
BRANCH  14  20
ATOM     20  C   UNL     1       8.257   7.770  18.628  0.00  0.00    +0.000 C 
BRANCH  20  22
ATOM     21  C   UNL     1       9.033  10.200  18.798  0.00  0.00    +0.000 C 
ATOM     22  C   UNL     1       8.285   9.160  17.976  0.00  0.00    +0.000 C 
ENDBRANCH  20  22
ENDBRANCH  14  20
ENDBRANCH  13  17
ENDBRANCH   1  13
TORSDOF 5
ENDMDL
MODEL 5
REMARK VINA RESULT:      -6.7      4.728      7.324
REMARK  Name = 
REMARK  9 active torsions:
REMARK  status: ('A' for Active; 'I' for Inactive)
REMARK    1  A    between atoms: C_1  and  C_2
REMARK    2  A    between atoms: C_2  and  C_3
REMARK    3  A    between atoms: C_3  and  N_4
REMARK    4  A    between atoms: C_7  and  C_8
REMARK    5  A    between atoms: C_8  and  C_9
REMARK    6  A    between atoms: C_13  and  C_14
REMARK    7  A    between atoms: C_13  and  C_15
REMARK    8  A    between atoms: C_16  and  C_17
REMARK    9  A    between atoms: C_16  and  O_18
REMARK                            x       y       z     vdW  Elec       q    Type
REMARK                         _______ _______ _______ _____ _____    ______ ____
ROOT
ATOM      1  C   UNL     1       2.659   7.621  18.653  0.00  0.00    +0.000 C 
ATOM      2  O   UNL     1       3.337   7.863  17.658  0.00  0.00    +0.000 OA
ATOM      3  N   UNL     1       2.809   6.454  19.377  0.00  0.00    +0.000 N 
ATOM      4  C   UNL     1       3.869   5.505  19.095  0.00  0.00    +0.000 C 
ATOM      5  C   UNL     1       3.181   4.132  19.151  0.00  0.00    +0.000 C 
ATOM      6  C   UNL     1       4.196   3.035  19.508  0.00  0.00    +0.000 C 
ATOM      7  C   UNL     1       2.606   3.827  17.754  0.00  0.00    +0.000 C 
ATOM      8  C   UNL     1       2.082   4.351  20.249  0.00  0.00    +0.000 C 
ATOM      9  C   UNL     1       0.797   3.553  20.041  0.00  0.00    +0.000 C 
ATOM     10  C   UNL     1       1.789   5.868  20.231  0.00  0.00    +0.000 C 
ENDROOT
BRANCH   8  11
ATOM     11  O   UNL     1       2.577   3.992  21.544  0.00  0.00    +0.000 OA
ATOM     12  H   UNL     1       2.025   3.276  21.899  0.00  0.00    +0.000 HD
ENDBRANCH   8  11
BRANCH   1  13
ATOM     13  C   UNL     1       1.597   8.586  19.170  0.00  0.00    +0.000 C 
BRANCH  13  17
ATOM     14  N   UNL     1      -0.484  11.671  19.562  0.00  0.00    +0.000 NA
ATOM     15  C   UNL     1       0.966  11.614  19.794  0.00  0.00    +0.000 C 
ATOM     16  C   UNL     1       1.706  11.081  18.568  0.00  0.00    +0.000 C 
ATOM     17  C   UNL     1       1.220   9.685  18.155  0.00  0.00    +0.000 C 
ATOM     18  C   UNL     1      -0.302   9.760  17.958  0.00  0.00    +0.000 C 
ATOM     19  C   UNL     1      -1.028  10.362  19.168  0.00  0.00    +0.000 C 
BRANCH  14  20
ATOM     20  C   UNL     1      -1.210  12.181  20.742  0.00  0.00    +0.000 C 
BRANCH  20  22
ATOM     21  C   UNL     1      -1.044  10.835  22.908  0.00  0.00    +0.000 C 
ATOM     22  C   UNL     1      -0.494  11.993  22.087  0.00  0.00    +0.000 C 
ENDBRANCH  20  22
ENDBRANCH  14  20
ENDBRANCH  13  17
ENDBRANCH   1  13
TORSDOF 5
ENDMDL
MODEL 6
REMARK VINA RESULT:      -6.7      1.564      1.974
REMARK  Name = 
REMARK  9 active torsions:
REMARK  status: ('A' for Active; 'I' for Inactive)
REMARK    1  A    between atoms: C_1  and  C_2
REMARK    2  A    between atoms: C_2  and  C_3
REMARK    3  A    between atoms: C_3  and  N_4
REMARK    4  A    between atoms: C_7  and  C_8
REMARK    5  A    between atoms: C_8  and  C_9
REMARK    6  A    between atoms: C_13  and  C_14
REMARK    7  A    between atoms: C_13  and  C_15
REMARK    8  A    between atoms: C_16  and  C_17
REMARK    9  A    between atoms: C_16  and  O_18
REMARK                            x       y       z     vdW  Elec       q    Type
REMARK                         _______ _______ _______ _____ _____    ______ ____
ROOT
ATOM      1  C   UNL     1       5.602   4.707  18.864  0.00  0.00    +0.000 C 
ATOM      2  O   UNL     1       6.130   5.147  19.882  0.00  0.00    +0.000 OA
ATOM      3  N   UNL     1       4.236   4.526  18.766  0.00  0.00    +0.000 N 
ATOM      4  C   UNL     1       3.325   4.973  19.801  0.00  0.00    +0.000 C 
ATOM      5  C   UNL     1       2.340   3.807  19.978  0.00  0.00    +0.000 C 
ATOM      6  C   UNL     1       0.996   4.314  20.521  0.00  0.00    +0.000 C 
ATOM      7  C   UNL     1       2.939   2.823  21.002  0.00  0.00    +0.000 C 
ATOM      8  C   UNL     1       2.248   3.223  18.524  0.00  0.00    +0.000 C 
ATOM      9  C   UNL     1       2.022   1.715  18.450  0.00  0.00    +0.000 C 
ATOM     10  C   UNL     1       3.583   3.607  17.848  0.00  0.00    +0.000 C 
ENDROOT
BRANCH   8  11
ATOM     11  O   UNL     1       1.172   3.829  17.798  0.00  0.00    +0.000 OA
ATOM     12  H   UNL     1       0.344   3.382  18.039  0.00  0.00    +0.000 HD
ENDBRANCH   8  11
BRANCH   1  13
ATOM     13  C   UNL     1       6.409   4.323  17.628  0.00  0.00    +0.000 C 
BRANCH  13  17
ATOM     14  N   UNL     1       5.833   4.765  13.957  0.00  0.00    +0.000 NA
ATOM     15  C   UNL     1       4.856   5.115  14.997  0.00  0.00    +0.000 C 
ATOM     16  C   UNL     1       5.451   6.083  16.019  0.00  0.00    +0.000 C 
ATOM     17  C   UNL     1       6.707   5.516  16.696  0.00  0.00    +0.000 C 
ATOM     18  C   UNL     1       7.696   5.120  15.588  0.00  0.00    +0.000 C 
ATOM     19  C   UNL     1       7.067   4.205  14.530  0.00  0.00    +0.000 C 
BRANCH  14  20
ATOM     20  C   UNL     1       5.270   3.827  12.966  0.00  0.00    +0.000 C 
BRANCH  20  22
ATOM     21  C   UNL     1       5.741   1.882  11.376  0.00  0.00    +0.000 C 
ATOM     22  C   UNL     1       6.298   3.112  12.078  0.00  0.00    +0.000 C 
ENDBRANCH  20  22
ENDBRANCH  14  20
ENDBRANCH  13  17
ENDBRANCH   1  13
TORSDOF 5
ENDMDL
MODEL 7
REMARK VINA RESULT:      -6.6      2.224      3.980
REMARK  Name = 
REMARK  9 active torsions:
REMARK  status: ('A' for Active; 'I' for Inactive)
REMARK    1  A    between atoms: C_1  and  C_2
REMARK    2  A    between atoms: C_2  and  C_3
REMARK    3  A    between atoms: C_3  and  N_4
REMARK    4  A    between atoms: C_7  and  C_8
REMARK    5  A    between atoms: C_8  and  C_9
REMARK    6  A    between atoms: C_13  and  C_14
REMARK    7  A    between atoms: C_13  and  C_15
REMARK    8  A    between atoms: C_16  and  C_17
REMARK    9  A    between atoms: C_16  and  O_18
REMARK                            x       y       z     vdW  Elec       q    Type
REMARK                         _______ _______ _______ _____ _____    ______ ____
ROOT
ATOM      1  C   UNL     1       4.023   5.675  18.770  0.00  0.00    +0.000 C 
ATOM      2  O   UNL     1       3.411   6.676  18.407  0.00  0.00    +0.000 OA
ATOM      3  N   UNL     1       3.431   4.427  18.808  0.00  0.00    +0.000 N 
ATOM      4  C   UNL     1       2.097   4.193  18.291  0.00  0.00    +0.000 C 
ATOM      5  C   UNL     1       1.421   3.312  19.354  0.00  0.00    +0.000 C 
ATOM      6  C   UNL     1       0.304   2.467  18.723  0.00  0.00    +0.000 C 
ATOM      7  C   UNL     1       0.792   4.237  20.414  0.00  0.00    +0.000 C 
ATOM      8  C   UNL     1       2.621   2.459  19.895  0.00  0.00    +0.000 C 
ATOM      9  C   UNL     1       2.526   2.078  21.371  0.00  0.00    +0.000 C 
ATOM     10  C   UNL     1       3.879   3.319  19.636  0.00  0.00    +0.000 C 
ENDROOT
BRANCH   8  11
ATOM     11  O   UNL     1       2.744   1.231  19.168  0.00  0.00    +0.000 OA
ATOM     12  H   UNL     1       1.907   1.059  18.706  0.00  0.00    +0.000 HD
ENDBRANCH   8  11
BRANCH   1  13
ATOM     13  C   UNL     1       5.483   5.726  19.208  0.00  0.00    +0.000 C 
BRANCH  13  17
ATOM     14  N   UNL     1       7.922   7.995  17.505  0.00  0.00    +0.000 NA
ATOM     15  C   UNL     1       8.231   7.190  18.695  0.00  0.00    +0.000 C 
ATOM     16  C   UNL     1       7.940   5.708  18.457  0.00  0.00    +0.000 C 
ATOM     17  C   UNL     1       6.478   5.458  18.060  0.00  0.00    +0.000 C 
ATOM     18  C   UNL     1       6.168   6.340  16.840  0.00  0.00    +0.000 C 
ATOM     19  C   UNL     1       6.530   7.814  17.067  0.00  0.00    +0.000 C 
BRANCH  14  20
ATOM     20  C   UNL     1       8.197   9.429  17.725  0.00  0.00    +0.000 C 
BRANCH  20  22
ATOM     21  C   UNL     1       9.668  11.156  18.902  0.00  0.00    +0.000 C 
ATOM     22  C   UNL     1       9.087   9.750  18.934  0.00  0.00    +0.000 C 
ENDBRANCH  20  22
ENDBRANCH  14  20
ENDBRANCH  13  17
ENDBRANCH   1  13
TORSDOF 5
ENDMDL
MODEL 8
REMARK VINA RESULT:      -6.4      1.290      1.644
REMARK  Name = 
REMARK  9 active torsions:
REMARK  status: ('A' for Active; 'I' for Inactive)
REMARK    1  A    between atoms: C_1  and  C_2
REMARK    2  A    between atoms: C_2  and  C_3
REMARK    3  A    between atoms: C_3  and  N_4
REMARK    4  A    between atoms: C_7  and  C_8
REMARK    5  A    between atoms: C_8  and  C_9
REMARK    6  A    between atoms: C_13  and  C_14
REMARK    7  A    between atoms: C_13  and  C_15
REMARK    8  A    between atoms: C_16  and  C_17
REMARK    9  A    between atoms: C_16  and  O_18
REMARK                            x       y       z     vdW  Elec       q    Type
REMARK                         _______ _______ _______ _____ _____    ______ ____
ROOT
ATOM      1  C   UNL     1       2.796   6.175  18.823  0.00  0.00    +0.000 C 
ATOM      2  O   UNL     1       2.911   6.918  19.794  0.00  0.00    +0.000 OA
ATOM      3  N   UNL     1       2.174   4.944  18.910  0.00  0.00    +0.000 N 
ATOM      4  C   UNL     1       1.494   4.510  20.115  0.00  0.00    +0.000 C 
ATOM      5  C   UNL     1       1.935   3.049  20.301  0.00  0.00    +0.000 C 
ATOM      6  C   UNL     1       0.880   2.264  21.095  0.00  0.00    +0.000 C 
ATOM      7  C   UNL     1       3.252   3.044  21.103  0.00  0.00    +0.000 C 
ATOM      8  C   UNL     1       2.099   2.557  18.820  0.00  0.00    +0.000 C 
ATOM      9  C   UNL     1       3.192   1.512  18.607  0.00  0.00    +0.000 C 
ATOM     10  C   UNL     1       2.399   3.833  18.001  0.00  0.00    +0.000 C 
ENDROOT
BRANCH   8  11
ATOM     11  O   UNL     1       0.883   1.975  18.339  0.00  0.00    +0.000 OA
ATOM     12  H   UNL     1       1.059   1.054  18.085  0.00  0.00    +0.000 HD
ENDBRANCH   8  11
BRANCH   1  13
ATOM     13  C   UNL     1       3.330   6.548  17.444  0.00  0.00    +0.000 C 
BRANCH  13  17
ATOM     14  N   UNL     1       6.211   4.871  15.745  0.00  0.00    +0.000 NA
ATOM     15  C   UNL     1       5.407   5.945  15.146  0.00  0.00    +0.000 C 
ATOM     16  C   UNL     1       5.382   7.187  16.037  0.00  0.00    +0.000 C 
ATOM     17  C   UNL     1       4.835   6.886  17.440  0.00  0.00    +0.000 C 
ATOM     18  C   UNL     1       5.664   5.734  18.028  0.00  0.00    +0.000 C 
ATOM     19  C   UNL     1       5.740   4.520  17.093  0.00  0.00    +0.000 C 
BRANCH  14  20
ATOM     20  C   UNL     1       6.239   3.665  14.893  0.00  0.00    +0.000 C 
BRANCH  20  22
ATOM     21  C   UNL     1       6.436   3.529  12.348  0.00  0.00    +0.000 C 
ATOM     22  C   UNL     1       5.528   3.800  13.539  0.00  0.00    +0.000 C 
ENDBRANCH  20  22
ENDBRANCH  14  20
ENDBRANCH  13  17
ENDBRANCH   1  13
TORSDOF 5
ENDMDL
MODEL 9
REMARK VINA RESULT:      -6.3      2.089      6.327
REMARK  Name = 
REMARK  9 active torsions:
REMARK  status: ('A' for Active; 'I' for Inactive)
REMARK    1  A    between atoms: C_1  and  C_2
REMARK    2  A    between atoms: C_2  and  C_3
REMARK    3  A    between atoms: C_3  and  N_4
REMARK    4  A    between atoms: C_7  and  C_8
REMARK    5  A    between atoms: C_8  and  C_9
REMARK    6  A    between atoms: C_13  and  C_14
REMARK    7  A    between atoms: C_13  and  C_15
REMARK    8  A    between atoms: C_16  and  C_17
REMARK    9  A    between atoms: C_16  and  O_18
REMARK                            x       y       z     vdW  Elec       q    Type
REMARK                         _______ _______ _______ _____ _____    ______ ____
ROOT
ATOM      1  C   UNL     1       3.656   2.965  17.478  0.00  0.00    +0.000 C 
ATOM      2  O   UNL     1       4.119   1.834  17.608  0.00  0.00    +0.000 OA
ATOM      3  N   UNL     1       4.282   3.931  16.715  0.00  0.00    +0.000 N 
ATOM      4  C   UNL     1       5.448   3.635  15.905  0.00  0.00    +0.000 C 
ATOM      5  C   UNL     1       6.403   4.812  16.161  0.00  0.00    +0.000 C 
ATOM      6  C   UNL     1       7.352   5.005  14.968  0.00  0.00    +0.000 C 
ATOM      7  C   UNL     1       7.248   4.481  17.407  0.00  0.00    +0.000 C 
ATOM      8  C   UNL     1       5.412   6.009  16.374  0.00  0.00    +0.000 C 
ATOM      9  C   UNL     1       5.894   7.077  17.352  0.00  0.00    +0.000 C 
ATOM     10  C   UNL     1       4.100   5.364  16.876  0.00  0.00    +0.000 C 
ENDROOT
BRANCH   8  11
ATOM     11  O   UNL     1       5.151   6.681  15.136  0.00  0.00    +0.000 OA
ATOM     12  H   UNL     1       4.831   7.577  15.331  0.00  0.00    +0.000 HD
ENDBRANCH   8  11
BRANCH   1  13
ATOM     13  C   UNL     1       2.356   3.394  18.149  0.00  0.00    +0.000 C 
BRANCH  13  17
ATOM     14  N   UNL     1       1.919   6.137  20.657  0.00  0.00    +0.000 NA
ATOM     15  C   UNL     1       0.825   5.299  20.146  0.00  0.00    +0.000 C 
ATOM     16  C   UNL     1       1.115   3.813  20.360  0.00  0.00    +0.000 C 
ATOM     17  C   UNL     1       2.424   3.373  19.690  0.00  0.00    +0.000 C 
ATOM     18  C   UNL     1       3.544   4.289  20.209  0.00  0.00    +0.000 C 
ATOM     19  C   UNL     1       3.212   5.778  20.053  0.00  0.00    +0.000 C 
BRANCH  14  20
ATOM     20  C   UNL     1       1.651   7.574  20.454  0.00  0.00    +0.000 C 
BRANCH  20  22
ATOM     21  C   UNL     1       1.283   9.325  18.628  0.00  0.00    +0.000 C 
ATOM     22  C   UNL     1       2.117   8.146  19.107  0.00  0.00    +0.000 C 
ENDBRANCH  20  22
ENDBRANCH  14  20
ENDBRANCH  13  17
ENDBRANCH   1  13
TORSDOF 5
ENDMDL
