MODEL 1
REMARK VINA RESULT:      -7.3      0.000      0.000
REMARK  Name = 
REMARK  6 active torsions:
REMARK  status: ('A' for Active; 'I' for Inactive)
REMARK    1  A    between atoms: C_1  and  O_2
REMARK    2  A    between atoms: O_2  and  C_3
REMARK    3  A    between atoms: C_7  and  N_8
REMARK    4  A    between atoms: C_11  and  C_12
REMARK    5  A    between atoms: C_17  and  O_18
REMARK    6  A    between atoms: C_17  and  C_19
REMARK                            x       y       z     vdW  Elec       q    Type
REMARK                         _______ _______ _______ _____ _____    ______ ____
ROOT
ATOM      1  C   UNL     1       4.598   4.333  19.098  0.00  0.00    +0.000 A 
ATOM      2  N   UNL     1       5.596   3.543  19.518  0.00  0.00    +0.000 NA
ATOM      3  N   UNL     1       5.046   2.767  20.466  0.00  0.00    +0.000 N 
ATOM      4  C   UNL     1       3.729   3.038  20.653  0.00  0.00    +0.000 A 
ATOM      5  C   UNL     1       3.389   4.045  19.795  0.00  0.00    +0.000 A 
ATOM      6  C   UNL     1       2.010   4.624  19.735  0.00  0.00    +0.000 C 
ATOM      7  C   UNL     1       1.037   3.868  20.683  0.00  0.00    +0.000 C 
ATOM      8  C   UNL     1       1.583   2.782  21.600  0.00  0.00    +0.000 C 
ATOM      9  O   UNL     1       0.850   2.208  22.403  0.00  0.00    +0.000 OA
ATOM     10  N   UNL     1       2.901   2.422  21.536  0.00  0.00    +0.000 N 
ATOM     11  H   UNL     1       5.632   2.087  20.936  0.00  0.00    +0.000 HD
ATOM     12  H   UNL     1       3.204   1.675  22.154  0.00  0.00    +0.000 HD
ENDROOT
BRANCH   1  16
ATOM     13  N   UNL     1       5.860   4.316  15.548  0.00  0.00    +0.000 N 
ATOM     14  C   UNL     1       4.459   4.044  15.858  0.00  0.00    +0.000 C 
ATOM     15  C   UNL     1       3.950   5.148  16.789  0.00  0.00    +0.000 C 
ATOM     16  C   UNL     1       4.845   5.360  18.020  0.00  0.00    +0.000 C 
ATOM     17  C   UNL     1       6.327   5.470  17.629  0.00  0.00    +0.000 C 
ATOM     18  C   UNL     1       6.767   4.347  16.696  0.00  0.00    +0.000 C 
BRANCH  13  23
ATOM     19  C   UNL     1       6.367   3.335  12.016  0.00  0.00    +0.000 A 
ATOM     20  C   UNL     1       7.396   4.206  11.698  0.00  0.00    +0.000 A 
ATOM     21  N   UNL     1       7.899   5.127  12.547  0.00  0.00    +0.000 NA
ATOM     22  C   UNL     1       7.353   5.151  13.790  0.00  0.00    +0.000 A 
ATOM     23  C   UNL     1       6.339   4.306  14.252  0.00  0.00    +0.000 A 
ATOM     24  C   UNL     1       5.859   3.385  13.314  0.00  0.00    +0.000 A 
BRANCH  19  26
ATOM     25  C   UNL     1       6.578   1.169  11.119  0.00  0.00    +0.000 C 
ATOM     26  O   UNL     1       5.968   2.457  11.049  0.00  0.00    +0.000 OA
ENDBRANCH  19  26
ENDBRANCH  13  23
ENDBRANCH   1  16
BRANCH   6  27
ATOM     27  C   UNL     1       2.021   6.163  20.064  0.00  0.00    +0.000 C 
ATOM     28  F   UNL     1       3.192   6.568  20.617  0.00  0.00    +0.000 F 
ATOM     29  F   UNL     1       1.873   6.895  18.930  0.00  0.00    +0.000 F 
ATOM     30  F   UNL     1       1.047   6.553  20.915  0.00  0.00    +0.000 F 
ENDBRANCH   6  27
BRANCH   6  31
ATOM     31  O   UNL     1       1.473   4.370  18.406  0.00  0.00    +0.000 OA
ATOM     32  H   UNL     1       1.298   3.419  18.316  0.00  0.00    +0.000 HD
ENDBRANCH   6  31
TORSDOF 5
ENDMDL
MODEL 2
REMARK VINA RESULT:      -7.0      6.309      8.994
REMARK  Name = 
REMARK  6 active torsions:
REMARK  status: ('A' for Active; 'I' for Inactive)
REMARK    1  A    between atoms: C_1  and  O_2
REMARK    2  A    between atoms: O_2  and  C_3
REMARK    3  A    between atoms: C_7  and  N_8
REMARK    4  A    between atoms: C_11  and  C_12
REMARK    5  A    between atoms: C_17  and  O_18
REMARK    6  A    between atoms: C_17  and  C_19
REMARK                            x       y       z     vdW  Elec       q    Type
REMARK                         _______ _______ _______ _____ _____    ______ ____
ROOT
ATOM      1  C   UNL     1       1.314  11.436  18.969  0.00  0.00    +0.000 A 
ATOM      2  N   UNL     1       2.360  11.656  18.159  0.00  0.00    +0.000 NA
ATOM      3  N   UNL     1       2.801  12.879  18.491  0.00  0.00    +0.000 N 
ATOM      4  C   UNL     1       2.071  13.436  19.491  0.00  0.00    +0.000 A 
ATOM      5  C   UNL     1       1.094  12.546  19.833  0.00  0.00    +0.000 A 
ATOM      6  C   UNL     1       0.078  12.831  20.895  0.00  0.00    +0.000 C 
ATOM      7  C   UNL     1       0.353  14.193  21.592  0.00  0.00    +0.000 C 
ATOM      8  C   UNL     1       1.470  15.086  21.068  0.00  0.00    +0.000 C 
ATOM      9  O   UNL     1       1.673  16.195  21.559  0.00  0.00    +0.000 OA
ATOM     10  N   UNL     1       2.273  14.660  20.046  0.00  0.00    +0.000 N 
ATOM     11  H   UNL     1       3.597  13.260  17.991  0.00  0.00    +0.000 HD
ATOM     12  H   UNL     1       3.016  15.286  19.754  0.00  0.00    +0.000 HD
ENDROOT
BRANCH   1  16
ATOM     13  N   UNL     1       2.088   7.768  19.351  0.00  0.00    +0.000 N 
ATOM     14  C   UNL     1       1.789   8.606  20.508  0.00  0.00    +0.000 C 
ATOM     15  C   UNL     1       0.503   9.387  20.218  0.00  0.00    +0.000 C 
ATOM     16  C   UNL     1       0.544  10.141  18.879  0.00  0.00    +0.000 C 
ATOM     17  C   UNL     1       1.030   9.236  17.735  0.00  0.00    +0.000 C 
ATOM     18  C   UNL     1       2.306   8.483  18.092  0.00  0.00    +0.000 C 
BRANCH  13  23
ATOM     19  C   UNL     1       2.418   4.383  20.810  0.00  0.00    +0.000 A 
ATOM     20  C   UNL     1       3.088   3.765  19.766  0.00  0.00    +0.000 A 
ATOM     21  N   UNL     1       3.393   4.369  18.598  0.00  0.00    +0.000 NA
ATOM     22  C   UNL     1       3.026   5.672  18.488  0.00  0.00    +0.000 A 
ATOM     23  C   UNL     1       2.381   6.423  19.476  0.00  0.00    +0.000 A 
ATOM     24  C   UNL     1       2.086   5.730  20.654  0.00  0.00    +0.000 A 
BRANCH  19  26
ATOM     25  C   UNL     1       1.405   2.464  21.720  0.00  0.00    +0.000 C 
ATOM     26  O   UNL     1       2.184   3.640  21.931  0.00  0.00    +0.000 OA
ENDBRANCH  19  26
ENDBRANCH  13  23
ENDBRANCH   1  16
BRANCH   6  27
ATOM     27  C   UNL     1      -1.384  12.791  20.313  0.00  0.00    +0.000 C 
ATOM     28  F   UNL     1      -1.983  11.587  20.495  0.00  0.00    +0.000 F 
ATOM     29  F   UNL     1      -2.174  13.697  20.943  0.00  0.00    +0.000 F 
ATOM     30  F   UNL     1      -1.459  13.054  18.990  0.00  0.00    +0.000 F 
ENDBRANCH   6  27
BRANCH   6  31
ATOM     31  O   UNL     1       0.251  11.852  21.959  0.00  0.00    +0.000 OA
ATOM     32  H   UNL     1      -0.615  11.468  22.174  0.00  0.00    +0.000 HD
ENDBRANCH   6  31
TORSDOF 5
ENDMDL
MODEL 3
REMARK VINA RESULT:      -7.0      8.854     13.018
REMARK  Name = 
REMARK  6 active torsions:
REMARK  status: ('A' for Active; 'I' for Inactive)
REMARK    1  A    between atoms: C_1  and  O_2
REMARK    2  A    between atoms: O_2  and  C_3
REMARK    3  A    between atoms: C_7  and  N_8
REMARK    4  A    between atoms: C_11  and  C_12
REMARK    5  A    between atoms: C_17  and  O_18
REMARK    6  A    between atoms: C_17  and  C_19
REMARK                            x       y       z     vdW  Elec       q    Type
REMARK                         _______ _______ _______ _____ _____    ______ ____
ROOT
ATOM      1  C   UNL     1      -0.161  11.276  21.587  0.00  0.00    +0.000 A 
ATOM      2  N   UNL     1      -0.226  10.885  22.869  0.00  0.00    +0.000 NA
ATOM      3  N   UNL     1       0.357   9.676  22.890  0.00  0.00    +0.000 N 
ATOM      4  C   UNL     1       0.795   9.294  21.663  0.00  0.00    +0.000 A 
ATOM      5  C   UNL     1       0.482  10.291  20.784  0.00  0.00    +0.000 A 
ATOM      6  C   UNL     1       0.796  10.208  19.323  0.00  0.00    +0.000 C 
ATOM      7  C   UNL     1       1.592   8.916  18.987  0.00  0.00    +0.000 C 
ATOM      8  C   UNL     1       1.835   7.884  20.081  0.00  0.00    +0.000 C 
ATOM      9  O   UNL     1       2.408   6.826  19.833  0.00  0.00    +0.000 OA
ATOM     10  N   UNL     1       1.426   8.128  21.363  0.00  0.00    +0.000 N 
ATOM     11  H   UNL     1       0.413   9.180  23.772  0.00  0.00    +0.000 HD
ATOM     12  H   UNL     1       1.636   7.417  22.056  0.00  0.00    +0.000 HD
ENDROOT
BRANCH   1  16
ATOM     13  N   UNL     1      -2.725  13.687  22.933  0.00  0.00    +0.000 N 
ATOM     14  C   UNL     1      -1.343  13.707  23.403  0.00  0.00    +0.000 C 
ATOM     15  C   UNL     1      -0.420  13.725  22.181  0.00  0.00    +0.000 C 
ATOM     16  C   UNL     1      -0.733  12.609  21.171  0.00  0.00    +0.000 C 
ATOM     17  C   UNL     1      -2.234  12.541  20.852  0.00  0.00    +0.000 C 
ATOM     18  C   UNL     1      -3.096  12.534  22.110  0.00  0.00    +0.000 C 
BRANCH  13  23
ATOM     19  C   UNL     1      -5.998  15.057  23.986  0.00  0.00    +0.000 A 
ATOM     20  C   UNL     1      -5.602  16.352  24.279  0.00  0.00    +0.000 A 
ATOM     21  N   UNL     1      -4.328  16.791  24.202  0.00  0.00    +0.000 NA
ATOM     22  C   UNL     1      -3.410  15.883  23.783  0.00  0.00    +0.000 A 
ATOM     23  C   UNL     1      -3.678  14.559  23.422  0.00  0.00    +0.000 A 
ATOM     24  C   UNL     1      -5.017  14.171  23.537  0.00  0.00    +0.000 A 
BRANCH  19  26
ATOM     25  C   UNL     1      -7.659  13.393  23.899  0.00  0.00    +0.000 C 
ATOM     26  O   UNL     1      -7.325  14.764  24.108  0.00  0.00    +0.000 OA
ENDBRANCH  19  26
ENDBRANCH  13  23
ENDBRANCH   1  16
BRANCH   6  27
ATOM     27  C   UNL     1      -0.512  10.297  18.451  0.00  0.00    +0.000 C 
ATOM     28  F   UNL     1      -0.440   9.538  17.329  0.00  0.00    +0.000 F 
ATOM     29  F   UNL     1      -1.581   9.832  19.146  0.00  0.00    +0.000 F 
ATOM     30  F   UNL     1      -0.820  11.547  18.042  0.00  0.00    +0.000 F 
ENDBRANCH   6  27
BRANCH   6  31
ATOM     31  O   UNL     1       1.722  11.284  19.000  0.00  0.00    +0.000 OA
ATOM     32  H   UNL     1       2.170  11.070  18.164  0.00  0.00    +0.000 HD
ENDBRANCH   6  31
TORSDOF 5
ENDMDL
MODEL 4
REMARK VINA RESULT:      -7.0      6.212      8.669
REMARK  Name = 
REMARK  6 active torsions:
REMARK  status: ('A' for Active; 'I' for Inactive)
REMARK    1  A    between atoms: C_1  and  O_2
REMARK    2  A    between atoms: O_2  and  C_3
REMARK    3  A    between atoms: C_7  and  N_8
REMARK    4  A    between atoms: C_11  and  C_12
REMARK    5  A    between atoms: C_17  and  O_18
REMARK    6  A    between atoms: C_17  and  C_19
REMARK                            x       y       z     vdW  Elec       q    Type
REMARK                         _______ _______ _______ _____ _____    ______ ____
ROOT
ATOM      1  C   UNL     1       1.469  11.244  18.678  0.00  0.00    +0.000 A 
ATOM      2  N   UNL     1       2.523  11.351  17.855  0.00  0.00    +0.000 NA
ATOM      3  N   UNL     1       3.010  12.581  18.077  0.00  0.00    +0.000 N 
ATOM      4  C   UNL     1       2.302  13.253  19.021  0.00  0.00    +0.000 A 
ATOM      5  C   UNL     1       1.292  12.435  19.439  0.00  0.00    +0.000 A 
ATOM      6  C   UNL     1       0.288  12.851  20.468  0.00  0.00    +0.000 C 
ATOM      7  C   UNL     1       0.615  14.259  21.041  0.00  0.00    +0.000 C 
ATOM      8  C   UNL     1       1.765  15.059  20.442  0.00  0.00    +0.000 C 
ATOM      9  O   UNL     1       2.010  16.198  20.833  0.00  0.00    +0.000 OA
ATOM     10  N   UNL     1       2.550  14.513  19.465  0.00  0.00    +0.000 N 
ATOM     11  H   UNL     1       3.820  12.886  17.548  0.00  0.00    +0.000 HD
ATOM     12  H   UNL     1       3.317  15.082  19.120  0.00  0.00    +0.000 HD
ENDROOT
BRANCH   1  16
ATOM     13  N   UNL     1       2.100   7.601  19.404  0.00  0.00    +0.000 N 
ATOM     14  C   UNL     1       1.828   8.554  20.476  0.00  0.00    +0.000 C 
ATOM     15  C   UNL     1       0.575   9.352  20.104  0.00  0.00    +0.000 C 
ATOM     16  C   UNL     1       0.651   9.976  18.702  0.00  0.00    +0.000 C 
ATOM     17  C   UNL     1       1.107   8.951  17.651  0.00  0.00    +0.000 C 
ATOM     18  C   UNL     1       2.352   8.187  18.087  0.00  0.00    +0.000 C 
BRANCH  13  23
ATOM     19  C   UNL     1       3.304   4.126  18.985  0.00  0.00    +0.000 A 
ATOM     20  C   UNL     1       2.708   3.558  20.099  0.00  0.00    +0.000 A 
ATOM     21  N   UNL     1       1.982   4.247  21.004  0.00  0.00    +0.000 NA
ATOM     22  C   UNL     1       1.826   5.574  20.758  0.00  0.00    +0.000 A 
ATOM     23  C   UNL     1       2.341   6.264  19.655  0.00  0.00    +0.000 A 
ATOM     24  C   UNL     1       3.093   5.489  18.766  0.00  0.00    +0.000 A 
BRANCH  19  26
ATOM     25  C   UNL     1       3.470   1.983  18.029  0.00  0.00    +0.000 C 
ATOM     26  O   UNL     1       4.007   3.298  18.159  0.00  0.00    +0.000 OA
ENDBRANCH  19  26
ENDBRANCH  13  23
ENDBRANCH   1  16
BRANCH   6  27
ATOM     27  C   UNL     1      -1.175  12.815  19.887  0.00  0.00    +0.000 C 
ATOM     28  F   UNL     1      -1.827  11.665  20.193  0.00  0.00    +0.000 F 
ATOM     29  F   UNL     1      -1.923  13.817  20.415  0.00  0.00    +0.000 F 
ATOM     30  F   UNL     1      -1.239  12.939  18.544  0.00  0.00    +0.000 F 
ENDBRANCH   6  27
BRANCH   6  31
ATOM     31  O   UNL     1       0.425  11.965  21.615  0.00  0.00    +0.000 OA
ATOM     32  H   UNL     1       1.052  12.362  22.243  0.00  0.00    +0.000 HD
ENDBRANCH   6  31
TORSDOF 5
ENDMDL
MODEL 5
REMARK VINA RESULT:      -6.9      6.214      8.718
REMARK  Name = 
REMARK  6 active torsions:
REMARK  status: ('A' for Active; 'I' for Inactive)
REMARK    1  A    between atoms: C_1  and  O_2
REMARK    2  A    between atoms: O_2  and  C_3
REMARK    3  A    between atoms: C_7  and  N_8
REMARK    4  A    between atoms: C_11  and  C_12
REMARK    5  A    between atoms: C_17  and  O_18
REMARK    6  A    between atoms: C_17  and  C_19
REMARK                            x       y       z     vdW  Elec       q    Type
REMARK                         _______ _______ _______ _____ _____    ______ ____
ROOT
ATOM      1  C   UNL     1       1.431  11.245  18.655  0.00  0.00    +0.000 A 
ATOM      2  N   UNL     1       2.473  11.395  17.824  0.00  0.00    +0.000 NA
ATOM      3  N   UNL     1       2.912  12.644  18.043  0.00  0.00    +0.000 N 
ATOM      4  C   UNL     1       2.184  13.287  18.991  0.00  0.00    +0.000 A 
ATOM      5  C   UNL     1       1.211  12.429  19.417  0.00  0.00    +0.000 A 
ATOM      6  C   UNL     1       0.198  12.805  20.453  0.00  0.00    +0.000 C 
ATOM      7  C   UNL     1       0.472  14.225  21.023  0.00  0.00    +0.000 C 
ATOM      8  C   UNL     1       1.584  15.071  20.416  0.00  0.00    +0.000 C 
ATOM      9  O   UNL     1       1.785  16.219  20.804  0.00  0.00    +0.000 OA
ATOM     10  N   UNL     1       2.384  14.557  19.433  0.00  0.00    +0.000 N 
ATOM     11  H   UNL     1       3.704  12.981  17.508  0.00  0.00    +0.000 HD
ATOM     12  H   UNL     1       3.125  15.156  19.083  0.00  0.00    +0.000 HD
ENDROOT
BRANCH   1  16
ATOM     13  N   UNL     1       2.183   7.653  19.507  0.00  0.00    +0.000 N 
ATOM     14  C   UNL     1       1.832   8.622  20.541  0.00  0.00    +0.000 C 
ATOM     15  C   UNL     1       0.562   9.357  20.101  0.00  0.00    +0.000 C 
ATOM     16  C   UNL     1       0.665   9.946  18.685  0.00  0.00    +0.000 C 
ATOM     17  C   UNL     1       1.201   8.913  17.681  0.00  0.00    +0.000 C 
ATOM     18  C   UNL     1       2.459   8.214  18.183  0.00  0.00    +0.000 C 
BRANCH  13  23
ATOM     19  C   UNL     1       3.916   4.384  19.590  0.00  0.00    +0.000 A 
ATOM     20  C   UNL     1       2.969   3.659  20.295  0.00  0.00    +0.000 A 
ATOM     21  N   UNL     1       1.826   4.181  20.788  0.00  0.00    +0.000 NA
ATOM     22  C   UNL     1       1.616   5.498  20.533  0.00  0.00    +0.000 A 
ATOM     23  C   UNL     1       2.468   6.334  19.804  0.00  0.00    +0.000 A 
ATOM     24  C   UNL     1       3.638   5.728  19.335  0.00  0.00    +0.000 A 
BRANCH  19  26
ATOM     25  C   UNL     1       5.969   4.514  18.448  0.00  0.00    +0.000 C 
ATOM     26  O   UNL     1       5.021   3.714  19.152  0.00  0.00    +0.000 OA
ENDBRANCH  19  26
ENDBRANCH  13  23
ENDBRANCH   1  16
BRANCH   6  27
ATOM     27  C   UNL     1      -1.266  12.709  19.883  0.00  0.00    +0.000 C 
ATOM     28  F   UNL     1      -2.084  13.668  20.385  0.00  0.00    +0.000 F 
ATOM     29  F   UNL     1      -1.267  12.888  18.537  0.00  0.00    +0.000 F 
ATOM     30  F   UNL     1      -1.877  11.528  20.124  0.00  0.00    +0.000 F 
ENDBRANCH   6  27
BRANCH   6  31
ATOM     31  O   UNL     1       0.379  11.926  21.600  0.00  0.00    +0.000 OA
ATOM     32  H   UNL     1      -0.161  11.128  21.469  0.00  0.00    +0.000 HD
ENDBRANCH   6  31
TORSDOF 5
ENDMDL
MODEL 6
REMARK VINA RESULT:      -6.8      8.962     13.144
REMARK  Name = 
REMARK  6 active torsions:
REMARK  status: ('A' for Active; 'I' for Inactive)
REMARK    1  A    between atoms: C_1  and  O_2
REMARK    2  A    between atoms: O_2  and  C_3
REMARK    3  A    between atoms: C_7  and  N_8
REMARK    4  A    between atoms: C_11  and  C_12
REMARK    5  A    between atoms: C_17  and  O_18
REMARK    6  A    between atoms: C_17  and  C_19
REMARK                            x       y       z     vdW  Elec       q    Type
REMARK                         _______ _______ _______ _____ _____    ______ ____
ROOT
ATOM      1  C   UNL     1      -0.106  11.251  21.573  0.00  0.00    +0.000 A 
ATOM      2  N   UNL     1      -0.183  10.874  22.858  0.00  0.00    +0.000 NA
ATOM      3  N   UNL     1       0.378   9.655  22.894  0.00  0.00    +0.000 N 
ATOM      4  C   UNL     1       0.812   9.252  21.673  0.00  0.00    +0.000 A 
ATOM      5  C   UNL     1       0.520  10.245  20.782  0.00  0.00    +0.000 A 
ATOM      6  C   UNL     1       0.838  10.142  19.323  0.00  0.00    +0.000 C 
ATOM      7  C   UNL     1       1.611   8.831  19.003  0.00  0.00    +0.000 C 
ATOM      8  C   UNL     1       1.832   7.807  20.109  0.00  0.00    +0.000 C 
ATOM      9  O   UNL     1       2.386   6.736  19.873  0.00  0.00    +0.000 OA
ATOM     10  N   UNL     1       1.423   8.072  21.387  0.00  0.00    +0.000 N 
ATOM     11  H   UNL     1       0.422   9.167  23.782  0.00  0.00    +0.000 HD
ATOM     12  H   UNL     1       1.618   7.364  22.088  0.00  0.00    +0.000 HD
ENDROOT
BRANCH   1  16
ATOM     13  N   UNL     1      -2.669  13.696  22.857  0.00  0.00    +0.000 N 
ATOM     14  C   UNL     1      -1.297  13.700  23.356  0.00  0.00    +0.000 C 
ATOM     15  C   UNL     1      -0.347  13.704  22.155  0.00  0.00    +0.000 C 
ATOM     16  C   UNL     1      -0.652  12.589  21.142  0.00  0.00    +0.000 C 
ATOM     17  C   UNL     1      -2.148  12.538  20.790  0.00  0.00    +0.000 C 
ATOM     18  C   UNL     1      -3.036  12.546  22.029  0.00  0.00    +0.000 C 
BRANCH  13  23
ATOM     19  C   UNL     1      -4.226  16.518  24.676  0.00  0.00    +0.000 A 
ATOM     20  C   UNL     1      -5.552  16.272  24.357  0.00  0.00    +0.000 A 
ATOM     21  N   UNL     1      -5.964  15.275  23.545  0.00  0.00    +0.000 NA
ATOM     22  C   UNL     1      -4.989  14.468  23.052  0.00  0.00    +0.000 A 
ATOM     23  C   UNL     1      -3.622  14.582  23.323  0.00  0.00    +0.000 A 
ATOM     24  C   UNL     1      -3.267  15.644  24.161  0.00  0.00    +0.000 A 
BRANCH  19  26
ATOM     25  C   UNL     1      -3.212  18.626  24.931  0.00  0.00    +0.000 C 
ATOM     26  O   UNL     1      -3.966  17.565  25.513  0.00  0.00    +0.000 OA
ENDBRANCH  19  26
ENDBRANCH  13  23
ENDBRANCH   1  16
BRANCH   6  27
ATOM     27  C   UNL     1      -0.465  10.245  18.446  0.00  0.00    +0.000 C 
ATOM     28  F   UNL     1      -0.707  11.511  18.021  0.00  0.00    +0.000 F 
ATOM     29  F   UNL     1      -0.345   9.493  17.322  0.00  0.00    +0.000 F 
ATOM     30  F   UNL     1      -1.589   9.838  19.075  0.00  0.00    +0.000 F 
ENDBRANCH   6  27
BRANCH   6  31
ATOM     31  O   UNL     1       1.784  11.197  18.992  0.00  0.00    +0.000 OA
ATOM     32  H   UNL     1       1.722  11.385  18.041  0.00  0.00    +0.000 HD
ENDBRANCH   6  31
TORSDOF 5
ENDMDL
MODEL 7
REMARK VINA RESULT:      -6.8      6.695      9.275
REMARK  Name = 
REMARK  6 active torsions:
REMARK  status: ('A' for Active; 'I' for Inactive)
REMARK    1  A    between atoms: C_1  and  O_2
REMARK    2  A    between atoms: O_2  and  C_3
REMARK    3  A    between atoms: C_7  and  N_8
REMARK    4  A    between atoms: C_11  and  C_12
REMARK    5  A    between atoms: C_17  and  O_18
REMARK    6  A    between atoms: C_17  and  C_19
REMARK                            x       y       z     vdW  Elec       q    Type
REMARK                         _______ _______ _______ _____ _____    ______ ____
ROOT
ATOM      1  C   UNL     1       0.871  11.807  19.703  0.00  0.00    +0.000 A 
ATOM      2  N   UNL     1       1.935  12.117  18.946  0.00  0.00    +0.000 NA
ATOM      3  N   UNL     1       2.333  13.321  19.386  0.00  0.00    +0.000 N 
ATOM      4  C   UNL     1       1.558  13.779  20.402  0.00  0.00    +0.000 A 
ATOM      5  C   UNL     1       0.596  12.841  20.644  0.00  0.00    +0.000 A 
ATOM      6  C   UNL     1      -0.458  13.016  21.692  0.00  0.00    +0.000 C 
ATOM      7  C   UNL     1      -0.241  14.326  22.500  0.00  0.00    +0.000 C 
ATOM      8  C   UNL     1       0.866  15.285  22.083  0.00  0.00    +0.000 C 
ATOM      9  O   UNL     1       1.024  16.356  22.664  0.00  0.00    +0.000 OA
ATOM     10  N   UNL     1       1.710  14.961  21.056  0.00  0.00    +0.000 N 
ATOM     11  H   UNL     1       3.132  13.760  18.942  0.00  0.00    +0.000 HD
ATOM     12  H   UNL     1       2.444  15.626  20.837  0.00  0.00    +0.000 HD
ENDROOT
BRANCH   1  16
ATOM     13  N   UNL     1       1.779   8.152  19.606  0.00  0.00    +0.000 N 
ATOM     14  C   UNL     1       1.506   8.834  20.868  0.00  0.00    +0.000 C 
ATOM     15  C   UNL     1       0.184   9.595  20.727  0.00  0.00    +0.000 C 
ATOM     16  C   UNL     1       0.141  10.505  19.489  0.00  0.00    +0.000 C 
ATOM     17  C   UNL     1       0.603   9.762  18.225  0.00  0.00    +0.000 C 
ATOM     18  C   UNL     1       1.917   9.020  18.436  0.00  0.00    +0.000 C 
BRANCH  13  23
ATOM     19  C   UNL     1       2.330   4.643  20.645  0.00  0.00    +0.000 A 
ATOM     20  C   UNL     1       2.926   4.169  19.487  0.00  0.00    +0.000 A 
ATOM     21  N   UNL     1       3.113   4.908  18.374  0.00  0.00    +0.000 NA
ATOM     22  C   UNL     1       2.701   6.200  18.441  0.00  0.00    +0.000 A 
ATOM     23  C   UNL     1       2.120   6.814  19.555  0.00  0.00    +0.000 A 
ATOM     24  C   UNL     1       1.947   5.985  20.669  0.00  0.00    +0.000 A 
BRANCH  19  26
ATOM     25  C   UNL     1       1.413   2.623  21.429  0.00  0.00    +0.000 C 
ATOM     26  O   UNL     1       2.213   3.774  21.691  0.00  0.00    +0.000 OA
ENDBRANCH  19  26
ENDBRANCH  13  23
ENDBRANCH   1  16
BRANCH   6  27
ATOM     27  C   UNL     1      -1.901  12.985  21.062  0.00  0.00    +0.000 C 
ATOM     28  F   UNL     1      -1.902  13.326  19.749  0.00  0.00    +0.000 F 
ATOM     29  F   UNL     1      -2.421  11.733  21.121  0.00  0.00    +0.000 F 
ATOM     30  F   UNL     1      -2.785  13.809  21.667  0.00  0.00    +0.000 F 
ENDBRANCH   6  27
BRANCH   6  31
ATOM     31  O   UNL     1      -0.290  11.961  22.681  0.00  0.00    +0.000 OA
ATOM     32  H   UNL     1       0.291  12.287  23.389  0.00  0.00    +0.000 HD
ENDBRANCH   6  31
TORSDOF 5
ENDMDL
MODEL 8
REMARK VINA RESULT:      -6.7      4.412      7.885
REMARK  Name = 
REMARK  6 active torsions:
REMARK  status: ('A' for Active; 'I' for Inactive)
REMARK    1  A    between atoms: C_1  and  O_2
REMARK    2  A    between atoms: O_2  and  C_3
REMARK    3  A    between atoms: C_7  and  N_8
REMARK    4  A    between atoms: C_11  and  C_12
REMARK    5  A    between atoms: C_17  and  O_18
REMARK    6  A    between atoms: C_17  and  C_19
REMARK                            x       y       z     vdW  Elec       q    Type
REMARK                         _______ _______ _______ _____ _____    ______ ____
ROOT
ATOM      1  C   UNL     1       3.063   5.803  18.731  0.00  0.00    +0.000 A 
ATOM      2  N   UNL     1       4.225   6.419  18.468  0.00  0.00    +0.000 NA
ATOM      3  N   UNL     1       5.169   5.506  18.744  0.00  0.00    +0.000 N 
ATOM      4  C   UNL     1       4.640   4.329  19.166  0.00  0.00    +0.000 A 
ATOM      5  C   UNL     1       3.282   4.469  19.180  0.00  0.00    +0.000 A 
ATOM      6  C   UNL     1       2.361   3.372  19.615  0.00  0.00    +0.000 C 
ATOM      7  C   UNL     1       3.145   2.069  19.937  0.00  0.00    +0.000 C 
ATOM      8  C   UNL     1       4.668   2.087  19.903  0.00  0.00    +0.000 C 
ATOM      9  O   UNL     1       5.317   1.090  20.211  0.00  0.00    +0.000 OA
ATOM     10  N   UNL     1       5.336   3.216  19.517  0.00  0.00    +0.000 N 
ATOM     11  H   UNL     1       6.143   5.762  18.622  0.00  0.00    +0.000 HD
ATOM     12  H   UNL     1       6.350   3.164  19.489  0.00  0.00    +0.000 HD
ENDROOT
BRANCH   1  16
ATOM     13  N   UNL     1       1.753   9.271  19.406  0.00  0.00    +0.000 N 
ATOM     14  C   UNL     1       2.491   8.961  18.185  0.00  0.00    +0.000 C 
ATOM     15  C   UNL     1       1.877   7.707  17.556  0.00  0.00    +0.000 C 
ATOM     16  C   UNL     1       1.757   6.534  18.541  0.00  0.00    +0.000 C 
ATOM     17  C   UNL     1       1.121   6.975  19.870  0.00  0.00    +0.000 C 
ATOM     18  C   UNL     1       1.772   8.232  20.436  0.00  0.00    +0.000 C 
BRANCH  13  23
ATOM     19  C   UNL     1       0.187  12.116  21.180  0.00  0.00    +0.000 A 
ATOM     20  C   UNL     1       0.195  13.041  20.149  0.00  0.00    +0.000 A 
ATOM     21  N   UNL     1       0.725  12.811  18.928  0.00  0.00    +0.000 NA
ATOM     22  C   UNL     1       1.249  11.574  18.731  0.00  0.00    +0.000 A 
ATOM     23  C   UNL     1       1.272  10.539  19.670  0.00  0.00    +0.000 A 
ATOM     24  C   UNL     1       0.717  10.853  20.915  0.00  0.00    +0.000 A 
BRANCH  19  26
ATOM     25  C   UNL     1      -1.234  11.515  22.956  0.00  0.00    +0.000 C 
ATOM     26  O   UNL     1      -0.389  12.496  22.358  0.00  0.00    +0.000 OA
ENDBRANCH  19  26
ENDBRANCH  13  23
ENDBRANCH   1  16
BRANCH   6  27
ATOM     27  C   UNL     1       1.488   3.813  20.848  0.00  0.00    +0.000 C 
ATOM     28  F   UNL     1       1.196   2.778  21.675  0.00  0.00    +0.000 F 
ATOM     29  F   UNL     1       2.158   4.717  21.608  0.00  0.00    +0.000 F 
ATOM     30  F   UNL     1       0.306   4.376  20.515  0.00  0.00    +0.000 F 
ENDBRANCH   6  27
BRANCH   6  31
ATOM     31  O   UNL     1       1.527   3.007  18.478  0.00  0.00    +0.000 OA
ATOM     32  H   UNL     1       1.075   2.170  18.679  0.00  0.00    +0.000 HD
ENDBRANCH   6  31
TORSDOF 5
ENDMDL
MODEL 9
REMARK VINA RESULT:      -6.6      6.479      8.695
REMARK  Name = 
REMARK  6 active torsions:
REMARK  status: ('A' for Active; 'I' for Inactive)
REMARK    1  A    between atoms: C_1  and  O_2
REMARK    2  A    between atoms: O_2  and  C_3
REMARK    3  A    between atoms: C_7  and  N_8
REMARK    4  A    between atoms: C_11  and  C_12
REMARK    5  A    between atoms: C_17  and  O_18
REMARK    6  A    between atoms: C_17  and  C_19
REMARK                            x       y       z     vdW  Elec       q    Type
REMARK                         _______ _______ _______ _____ _____    ______ ____
ROOT
ATOM      1  C   UNL     1       1.068  11.592  19.422  0.00  0.00    +0.000 A 
ATOM      2  N   UNL     1       2.146  11.891  18.681  0.00  0.00    +0.000 NA
ATOM      3  N   UNL     1       2.549  13.091  19.127  0.00  0.00    +0.000 N 
ATOM      4  C   UNL     1       1.764  13.557  20.132  0.00  0.00    +0.000 A 
ATOM      5  C   UNL     1       0.789  12.628  20.359  0.00  0.00    +0.000 A 
ATOM      6  C   UNL     1      -0.279  12.814  21.391  0.00  0.00    +0.000 C 
ATOM      7  C   UNL     1      -0.061  14.121  22.203  0.00  0.00    +0.000 C 
ATOM      8  C   UNL     1       1.062  15.069  21.803  0.00  0.00    +0.000 C 
ATOM      9  O   UNL     1       1.221  16.139  22.387  0.00  0.00    +0.000 OA
ATOM     10  N   UNL     1       1.917  14.737  20.789  0.00  0.00    +0.000 N 
ATOM     11  H   UNL     1       3.359  13.522  18.696  0.00  0.00    +0.000 HD
ATOM     12  H   UNL     1       2.662  15.395  20.581  0.00  0.00    +0.000 HD
ENDROOT
BRANCH   1  16
ATOM     13  N   UNL     1       1.932   7.925  19.382  0.00  0.00    +0.000 N 
ATOM     14  C   UNL     1       1.630   8.622  20.629  0.00  0.00    +0.000 C 
ATOM     15  C   UNL     1       0.323   9.398  20.442  0.00  0.00    +0.000 C 
ATOM     16  C   UNL     1       0.328  10.297  19.196  0.00  0.00    +0.000 C 
ATOM     17  C   UNL     1       0.818   9.538  17.953  0.00  0.00    +0.000 C 
ATOM     18  C   UNL     1       2.116   8.781  18.209  0.00  0.00    +0.000 C 
BRANCH  13  23
ATOM     19  C   UNL     1       3.088   4.635  18.143  0.00  0.00    +0.000 A 
ATOM     20  C   UNL     1       2.785   3.869  19.258  0.00  0.00    +0.000 A 
ATOM     21  N   UNL     1       2.275   4.367  20.404  0.00  0.00    +0.000 NA
ATOM     22  C   UNL     1       2.034   5.704  20.417  0.00  0.00    +0.000 A 
ATOM     23  C   UNL     1       2.258   6.583  19.352  0.00  0.00    +0.000 A 
ATOM     24  C   UNL     1       2.798   5.999  18.202  0.00  0.00    +0.000 A 
BRANCH  19  26
ATOM     25  C   UNL     1       4.780   4.565  16.510  0.00  0.00    +0.000 C 
ATOM     26  O   UNL     1       3.596   3.986  17.056  0.00  0.00    +0.000 OA
ENDBRANCH  19  26
ENDBRANCH  13  23
ENDBRANCH   1  16
BRANCH   6  27
ATOM     27  C   UNL     1      -1.713  12.797  20.740  0.00  0.00    +0.000 C 
ATOM     28  F   UNL     1      -1.694  13.161  19.433  0.00  0.00    +0.000 F 
ATOM     29  F   UNL     1      -2.236  11.545  20.770  0.00  0.00    +0.000 F 
ATOM     30  F   UNL     1      -2.604  13.612  21.346  0.00  0.00    +0.000 F 
ENDBRANCH   6  27
BRANCH   6  31
ATOM     31  O   UNL     1      -0.136  11.757  22.382  0.00  0.00    +0.000 OA
ATOM     32  H   UNL     1      -0.987  11.296  22.473  0.00  0.00    +0.000 HD
ENDBRANCH   6  31
TORSDOF 5
ENDMDL
