MODEL 1
REMARK VINA RESULT:      -7.0      0.000      0.000
REMARK  Name = 
REMARK  4 active torsions:
REMARK  status: ('A' for Active; 'I' for Inactive)
REMARK    1  A    between atoms: C_1  and  C_2
REMARK    2  A    between atoms: C_4  and  C_5
REMARK    3  A    between atoms: C_4  and  C_10
REMARK    4  A    between atoms: C_6  and  C_7
REMARK                            x       y       z     vdW  Elec       q    Type
REMARK                         _______ _______ _______ _____ _____    ______ ____
ROOT
ATOM      1  C   UNL     1       0.046  12.866  18.891  0.00  0.00    +0.000 C 
ATOM      2  C   UNL     1       1.239  12.071  19.413  0.00  0.00    +0.000 C 
ATOM      3  O   UNL     1       0.919  11.193  20.485  0.00  0.00    +0.000 OA
ATOM      4  C   UNL     1       0.280   9.888  20.319  0.00  0.00    +0.000 C 
ATOM      5  C   UNL     1       1.277   8.925  19.600  0.00  0.00    +0.000 A 
ATOM      6  C   UNL     1       1.796   7.751  20.179  0.00  0.00    +0.000 A 
ATOM      7  C   UNL     1       2.666   6.895  19.492  0.00  0.00    +0.000 A 
ATOM      8  F   UNL     1       3.110   5.791  20.108  0.00  0.00    +0.000 F 
ATOM      9  C   UNL     1       3.078   7.168  18.204  0.00  0.00    +0.000 A 
ATOM     10  C   UNL     1       2.637   8.337  17.605  0.00  0.00    +0.000 A 
ATOM     11  C   UNL     1       1.763   9.198  18.293  0.00  0.00    +0.000 A 
ATOM     12  N   UNL     1       1.467  10.408  17.628  0.00  0.00    +0.000 N 
ATOM     13  C   UNL     1       2.058  11.501  18.242  0.00  0.00    +0.000 C 
ATOM     14  O   UNL     1       3.145  11.963  17.896  0.00  0.00    +0.000 OA
ATOM     15  H   UNL     1       0.462  10.541  17.612  0.00  0.00    +0.000 HD
ENDROOT
BRANCH   4  16
ATOM     16  C   UNL     1      -0.211   9.471  21.805  0.00  0.00    +0.000 C 
ATOM     17  F   UNL     1       0.835   9.390  22.671  0.00  0.00    +0.000 F 
ATOM     18  F   UNL     1      -1.065  10.384  22.342  0.00  0.00    +0.000 F 
ATOM     19  F   UNL     1      -0.855   8.289  21.907  0.00  0.00    +0.000 F 
ENDBRANCH   4  16
BRANCH   4  20
ATOM     20  C   UNL     1      -0.978  10.040  19.515  0.00  0.00    +0.000 C 
ATOM     21  C   UNL     1      -1.927  10.168  18.785  0.00  0.00    +0.000 C 
BRANCH  21  22
ATOM     22  C   UNL     1      -2.993  10.207  17.821  0.00  0.00    +0.000 C 
ATOM     23  C   UNL     1      -3.261  11.422  16.974  0.00  0.00    +0.000 C 
ATOM     24  C   UNL     1      -2.615  10.218  16.357  0.00  0.00    +0.000 C 
ENDBRANCH  21  22
ENDBRANCH   4  20
TORSDOF 3
ENDMDL
MODEL 2
REMARK VINA RESULT:      -6.8      5.074      7.449
REMARK  Name = 
REMARK  4 active torsions:
REMARK  status: ('A' for Active; 'I' for Inactive)
REMARK    1  A    between atoms: C_1  and  C_2
REMARK    2  A    between atoms: C_4  and  C_5
REMARK    3  A    between atoms: C_4  and  C_10
REMARK    4  A    between atoms: C_6  and  C_7
REMARK                            x       y       z     vdW  Elec       q    Type
REMARK                         _______ _______ _______ _____ _____    ______ ____
ROOT
ATOM      1  C   UNL     1       7.388   6.662  17.348  0.00  0.00    +0.000 C 
ATOM      2  C   UNL     1       6.628   6.517  18.663  0.00  0.00    +0.000 C 
ATOM      3  O   UNL     1       5.267   6.925  18.586  0.00  0.00    +0.000 OA
ATOM      4  C   UNL     1       4.193   6.112  18.017  0.00  0.00    +0.000 C 
ATOM      5  C   UNL     1       3.950   4.877  18.942  0.00  0.00    +0.000 A 
ATOM      6  C   UNL     1       2.745   4.631  19.629  0.00  0.00    +0.000 A 
ATOM      7  C   UNL     1       2.554   3.495  20.426  0.00  0.00    +0.000 A 
ATOM      8  F   UNL     1       1.376   3.326  21.041  0.00  0.00    +0.000 F 
ATOM      9  C   UNL     1       3.551   2.557  20.597  0.00  0.00    +0.000 A 
ATOM     10  C   UNL     1       4.774   2.778  19.984  0.00  0.00    +0.000 A 
ATOM     11  C   UNL     1       4.970   3.916  19.183  0.00  0.00    +0.000 A 
ATOM     12  N   UNL     1       6.285   4.092  18.698  0.00  0.00    +0.000 N 
ATOM     13  C   UNL     1       6.930   5.154  19.310  0.00  0.00    +0.000 C 
ATOM     14  O   UNL     1       7.663   5.026  20.290  0.00  0.00    +0.000 OA
ATOM     15  H   UNL     1       6.251   4.255  17.699  0.00  0.00    +0.000 HD
ENDROOT
BRANCH   4  16
ATOM     16  C   UNL     1       2.957   7.137  17.812  0.00  0.00    +0.000 C 
ATOM     17  F   UNL     1       3.215   8.040  16.828  0.00  0.00    +0.000 F 
ATOM     18  F   UNL     1       1.813   6.501  17.438  0.00  0.00    +0.000 F 
ATOM     19  F   UNL     1       2.609   7.871  18.891  0.00  0.00    +0.000 F 
ENDBRANCH   4  16
BRANCH   4  20
ATOM     20  C   UNL     1       4.572   5.669  16.635  0.00  0.00    +0.000 C 
ATOM     21  C   UNL     1       4.960   5.377  15.533  0.00  0.00    +0.000 C 
BRANCH  21  22
ATOM     22  C   UNL     1       5.569   5.009  14.283  0.00  0.00    +0.000 C 
ATOM     23  C   UNL     1       7.058   4.858  14.133  0.00  0.00    +0.000 C 
ATOM     24  C   UNL     1       6.193   3.636  14.185  0.00  0.00    +0.000 C 
ENDBRANCH  21  22
ENDBRANCH   4  20
TORSDOF 3
ENDMDL
MODEL 3
REMARK VINA RESULT:      -6.7      4.915      7.264
REMARK  Name = 
REMARK  4 active torsions:
REMARK  status: ('A' for Active; 'I' for Inactive)
REMARK    1  A    between atoms: C_1  and  C_2
REMARK    2  A    between atoms: C_4  and  C_5
REMARK    3  A    between atoms: C_4  and  C_10
REMARK    4  A    between atoms: C_6  and  C_7
REMARK                            x       y       z     vdW  Elec       q    Type
REMARK                         _______ _______ _______ _____ _____    ______ ____
ROOT
ATOM      1  C   UNL     1       2.536   2.828  17.767  0.00  0.00    +0.000 C 
ATOM      2  C   UNL     1       3.374   3.754  16.891  0.00  0.00    +0.000 C 
ATOM      3  O   UNL     1       3.040   5.131  17.026  0.00  0.00    +0.000 OA
ATOM      4  C   UNL     1       3.480   5.981  18.132  0.00  0.00    +0.000 C 
ATOM      5  C   UNL     1       5.024   6.189  18.026  0.00  0.00    +0.000 A 
ATOM      6  C   UNL     1       5.639   7.439  17.818  0.00  0.00    +0.000 A 
ATOM      7  C   UNL     1       7.029   7.592  17.759  0.00  0.00    +0.000 A 
ATOM      8  F   UNL     1       7.540   8.815  17.568  0.00  0.00    +0.000 F 
ATOM      9  C   UNL     1       7.879   6.512  17.886  0.00  0.00    +0.000 A 
ATOM     10  C   UNL     1       7.324   5.252  18.040  0.00  0.00    +0.000 A 
ATOM     11  C   UNL     1       5.928   5.096  18.100  0.00  0.00    +0.000 A 
ATOM     12  N   UNL     1       5.475   3.759  18.152  0.00  0.00    +0.000 N 
ATOM     13  C   UNL     1       4.862   3.369  16.972  0.00  0.00    +0.000 C 
ATOM     14  O   UNL     1       5.453   2.784  16.065  0.00  0.00    +0.000 OA
ATOM     15  H   UNL     1       4.817   3.661  18.916  0.00  0.00    +0.000 HD
ENDROOT
BRANCH   4  16
ATOM     16  C   UNL     1       2.547   7.301  18.039  0.00  0.00    +0.000 C 
ATOM     17  F   UNL     1       1.270   6.987  17.687  0.00  0.00    +0.000 F 
ATOM     18  F   UNL     1       2.451   7.952  19.231  0.00  0.00    +0.000 F 
ATOM     19  F   UNL     1       2.940   8.245  17.158  0.00  0.00    +0.000 F 
ENDBRANCH   4  16
BRANCH   4  20
ATOM     20  C   UNL     1       3.123   5.336  19.438  0.00  0.00    +0.000 C 
ATOM     21  C   UNL     1       2.747   4.786  20.441  0.00  0.00    +0.000 C 
BRANCH  21  22
ATOM     22  C   UNL     1       2.266   4.001  21.546  0.00  0.00    +0.000 C 
ATOM     23  C   UNL     1       1.239   2.916  21.370  0.00  0.00    +0.000 C 
ATOM     24  C   UNL     1       2.672   2.546  21.603  0.00  0.00    +0.000 C 
ENDBRANCH  21  22
ENDBRANCH   4  20
TORSDOF 3
ENDMDL
MODEL 4
REMARK VINA RESULT:      -6.6      5.282      7.870
REMARK  Name = 
REMARK  4 active torsions:
REMARK  status: ('A' for Active; 'I' for Inactive)
REMARK    1  A    between atoms: C_1  and  C_2
REMARK    2  A    between atoms: C_4  and  C_5
REMARK    3  A    between atoms: C_4  and  C_10
REMARK    4  A    between atoms: C_6  and  C_7
REMARK                            x       y       z     vdW  Elec       q    Type
REMARK                         _______ _______ _______ _____ _____    ______ ____
ROOT
ATOM      1  C   UNL     1       6.025   5.414  19.582  0.00  0.00    +0.000 C 
ATOM      2  C   UNL     1       6.309   4.291  18.589  0.00  0.00    +0.000 C 
ATOM      3  O   UNL     1       5.139   3.733  18.002  0.00  0.00    +0.000 OA
ATOM      4  C   UNL     1       4.393   4.349  16.905  0.00  0.00    +0.000 C 
ATOM      5  C   UNL     1       5.269   4.307  15.613  0.00  0.00    +0.000 A 
ATOM      6  C   UNL     1       4.921   3.599  14.447  0.00  0.00    +0.000 A 
ATOM      7  C   UNL     1       5.718   3.609  13.295  0.00  0.00    +0.000 A 
ATOM      8  F   UNL     1       5.315   2.917  12.221  0.00  0.00    +0.000 F 
ATOM      9  C   UNL     1       6.907   4.307  13.247  0.00  0.00    +0.000 A 
ATOM     10  C   UNL     1       7.322   4.980  14.386  0.00  0.00    +0.000 A 
ATOM     11  C   UNL     1       6.524   4.971  15.543  0.00  0.00    +0.000 A 
ATOM     12  N   UNL     1       7.096   5.599  16.672  0.00  0.00    +0.000 N 
ATOM     13  C   UNL     1       7.461   4.686  17.648  0.00  0.00    +0.000 C 
ATOM     14  O   UNL     1       8.596   4.219  17.746  0.00  0.00    +0.000 OA
ATOM     15  H   UNL     1       6.427   6.252  17.062  0.00  0.00    +0.000 HD
ENDROOT
BRANCH   4  16
ATOM     16  C   UNL     1       2.980   3.559  16.867  0.00  0.00    +0.000 C 
ATOM     17  F   UNL     1       3.068   2.347  17.478  0.00  0.00    +0.000 F 
ATOM     18  F   UNL     1       1.994   4.232  17.522  0.00  0.00    +0.000 F 
ATOM     19  F   UNL     1       2.474   3.308  15.641  0.00  0.00    +0.000 F 
ENDBRANCH   4  16
BRANCH   4  20
ATOM     20  C   UNL     1       4.046   5.764  17.261  0.00  0.00    +0.000 C 
ATOM     21  C   UNL     1       3.674   6.864  17.582  0.00  0.00    +0.000 C 
BRANCH  21  22
ATOM     22  C   UNL     1       3.188   8.112  18.105  0.00  0.00    +0.000 C 
ATOM     23  C   UNL     1       1.842   8.667  17.727  0.00  0.00    +0.000 C 
ATOM     24  C   UNL     1       2.037   8.061  19.084  0.00  0.00    +0.000 C 
ENDBRANCH  21  22
ENDBRANCH   4  20
TORSDOF 3
ENDMDL
MODEL 5
REMARK VINA RESULT:      -6.5      3.459      6.289
REMARK  Name = 
REMARK  4 active torsions:
REMARK  status: ('A' for Active; 'I' for Inactive)
REMARK    1  A    between atoms: C_1  and  C_2
REMARK    2  A    between atoms: C_4  and  C_5
REMARK    3  A    between atoms: C_4  and  C_10
REMARK    4  A    between atoms: C_6  and  C_7
REMARK                            x       y       z     vdW  Elec       q    Type
REMARK                         _______ _______ _______ _____ _____    ______ ____
ROOT
ATOM      1  C   UNL     1       1.101  12.665  19.567  0.00  0.00    +0.000 C 
ATOM      2  C   UNL     1      -0.146  13.234  18.897  0.00  0.00    +0.000 C 
ATOM      3  O   UNL     1      -0.830  12.300  18.070  0.00  0.00    +0.000 OA
ATOM      4  C   UNL     1      -1.724  11.256  18.570  0.00  0.00    +0.000 C 
ATOM      5  C   UNL     1      -3.003  11.928  19.163  0.00  0.00    +0.000 A 
ATOM      6  C   UNL     1      -4.302  11.739  18.653  0.00  0.00    +0.000 A 
ATOM      7  C   UNL     1      -5.430  12.335  19.230  0.00  0.00    +0.000 A 
ATOM      8  F   UNL     1      -6.634  12.100  18.693  0.00  0.00    +0.000 F 
ATOM      9  C   UNL     1      -5.326  13.161  20.331  0.00  0.00    +0.000 A 
ATOM     10  C   UNL     1      -4.064  13.421  20.842  0.00  0.00    +0.000 A 
ATOM     11  C   UNL     1      -2.930  12.824  20.264  0.00  0.00    +0.000 A 
ATOM     12  N   UNL     1      -1.692  13.245  20.798  0.00  0.00    +0.000 N 
ATOM     13  C   UNL     1      -0.981  14.036  19.910  0.00  0.00    +0.000 C 
ATOM     14  O   UNL     1      -1.025  15.266  19.918  0.00  0.00    +0.000 OA
ATOM     15  H   UNL     1      -1.137  12.429  21.033  0.00  0.00    +0.000 HD
ENDROOT
BRANCH   4  16
ATOM     16  C   UNL     1      -1.930  10.249  17.319  0.00  0.00    +0.000 C 
ATOM     17  F   UNL     1      -0.803   9.529  17.066  0.00  0.00    +0.000 F 
ATOM     18  F   UNL     1      -2.909   9.332  17.549  0.00  0.00    +0.000 F 
ATOM     19  F   UNL     1      -2.260  10.823  16.143  0.00  0.00    +0.000 F 
ENDBRANCH   4  16
BRANCH   4  20
ATOM     20  C   UNL     1      -1.019  10.446  19.618  0.00  0.00    +0.000 C 
ATOM     21  C   UNL     1      -0.543   9.800  20.515  0.00  0.00    +0.000 C 
BRANCH  21  22
ATOM     22  C   UNL     1      -0.108   8.938  21.582  0.00  0.00    +0.000 C 
ATOM     23  C   UNL     1       1.169   9.186  22.338  0.00  0.00    +0.000 C 
ATOM     24  C   UNL     1      -0.146   9.490  22.989  0.00  0.00    +0.000 C 
ENDBRANCH  21  22
ENDBRANCH   4  20
TORSDOF 3
ENDMDL
MODEL 6
REMARK VINA RESULT:      -6.2      3.293      5.664
REMARK  Name = 
REMARK  4 active torsions:
REMARK  status: ('A' for Active; 'I' for Inactive)
REMARK    1  A    between atoms: C_1  and  C_2
REMARK    2  A    between atoms: C_4  and  C_5
REMARK    3  A    between atoms: C_4  and  C_10
REMARK    4  A    between atoms: C_6  and  C_7
REMARK                            x       y       z     vdW  Elec       q    Type
REMARK                         _______ _______ _______ _____ _____    ______ ____
ROOT
ATOM      1  C   UNL     1       0.624   8.501  20.908  0.00  0.00    +0.000 C 
ATOM      2  C   UNL     1       1.074   9.665  21.787  0.00  0.00    +0.000 C 
ATOM      3  O   UNL     1       1.565  10.781  21.055  0.00  0.00    +0.000 OA
ATOM      4  C   UNL     1       0.716  11.771  20.392  0.00  0.00    +0.000 C 
ATOM      5  C   UNL     1      -0.040  12.598  21.480  0.00  0.00    +0.000 A 
ATOM      6  C   UNL     1       0.125  13.983  21.673  0.00  0.00    +0.000 A 
ATOM      7  C   UNL     1      -0.593  14.698  22.640  0.00  0.00    +0.000 A 
ATOM      8  F   UNL     1      -0.388  16.016  22.757  0.00  0.00    +0.000 F 
ATOM      9  C   UNL     1      -1.497  14.073  23.475  0.00  0.00    +0.000 A 
ATOM     10  C   UNL     1      -1.658  12.702  23.362  0.00  0.00    +0.000 A 
ATOM     11  C   UNL     1      -0.939  11.982  22.392  0.00  0.00    +0.000 A 
ATOM     12  N   UNL     1      -1.104  10.580  22.439  0.00  0.00    +0.000 N 
ATOM     13  C   UNL     1       0.036   9.935  22.891  0.00  0.00    +0.000 C 
ATOM     14  O   UNL     1       0.213   9.621  24.068  0.00  0.00    +0.000 OA
ATOM     15  H   UNL     1      -1.331  10.241  21.512  0.00  0.00    +0.000 HD
ENDROOT
BRANCH   4  16
ATOM     16  C   UNL     1       1.712  12.581  19.405  0.00  0.00    +0.000 C 
ATOM     17  F   UNL     1       1.049  13.541  18.705  0.00  0.00    +0.000 F 
ATOM     18  F   UNL     1       2.695  13.233  20.084  0.00  0.00    +0.000 F 
ATOM     19  F   UNL     1       2.360  11.842  18.479  0.00  0.00    +0.000 F 
ENDBRANCH   4  16
BRANCH   4  20
ATOM     20  C   UNL     1      -0.258  11.076  19.487  0.00  0.00    +0.000 C 
ATOM     21  C   UNL     1      -1.004  10.580  18.682  0.00  0.00    +0.000 C 
BRANCH  21  22
ATOM     22  C   UNL     1      -1.767   9.973  17.625  0.00  0.00    +0.000 C 
ATOM     23  C   UNL     1      -3.272   9.983  17.618  0.00  0.00    +0.000 C 
ATOM     24  C   UNL     1      -2.522  10.890  16.690  0.00  0.00    +0.000 C 
ENDBRANCH  21  22
ENDBRANCH   4  20
TORSDOF 3
ENDMDL
MODEL 7
REMARK VINA RESULT:      -6.1      1.943      2.389
REMARK  Name = 
REMARK  4 active torsions:
REMARK  status: ('A' for Active; 'I' for Inactive)
REMARK    1  A    between atoms: C_1  and  C_2
REMARK    2  A    between atoms: C_4  and  C_5
REMARK    3  A    between atoms: C_4  and  C_10
REMARK    4  A    between atoms: C_6  and  C_7
REMARK                            x       y       z     vdW  Elec       q    Type
REMARK                         _______ _______ _______ _____ _____    ______ ____
ROOT
ATOM      1  C   UNL     1       0.259  14.173  20.736  0.00  0.00    +0.000 C 
ATOM      2  C   UNL     1       1.356  13.115  20.817  0.00  0.00    +0.000 C 
ATOM      3  O   UNL     1       1.020  12.002  21.637  0.00  0.00    +0.000 OA
ATOM      4  C   UNL     1       0.157  10.898  21.216  0.00  0.00    +0.000 C 
ATOM      5  C   UNL     1       0.890  10.079  20.106  0.00  0.00    +0.000 A 
ATOM      6  C   UNL     1       1.270   8.730  20.243  0.00  0.00    +0.000 A 
ATOM      7  C   UNL     1       1.898   8.019  19.214  0.00  0.00    +0.000 A 
ATOM      8  F   UNL     1       2.221   6.734  19.416  0.00  0.00    +0.000 F 
ATOM      9  C   UNL     1       2.197   8.613  18.004  0.00  0.00    +0.000 A 
ATOM     10  C   UNL     1       1.890   9.954  17.836  0.00  0.00    +0.000 A 
ATOM     11  C   UNL     1       1.259  10.670  18.868  0.00  0.00    +0.000 A 
ATOM     12  N   UNL     1       1.093  12.052  18.625  0.00  0.00    +0.000 N 
ATOM     13  C   UNL     1       1.926  12.825  19.417  0.00  0.00    +0.000 C 
ATOM     14  O   UNL     1       3.027  13.231  19.045  0.00  0.00    +0.000 OA
ATOM     15  H   UNL     1       0.130  12.307  18.808  0.00  0.00    +0.000 HD
ENDROOT
BRANCH   4  16
ATOM     16  C   UNL     1      -0.219  10.119  22.585  0.00  0.00    +0.000 C 
ATOM     17  F   UNL     1      -0.939   8.991  22.335  0.00  0.00    +0.000 F 
ATOM     18  F   UNL     1       0.885   9.708  23.267  0.00  0.00    +0.000 F 
ATOM     19  F   UNL     1      -0.944  10.816  23.484  0.00  0.00    +0.000 F 
ENDBRANCH   4  16
BRANCH   4  20
ATOM     20  C   UNL     1      -1.142  11.441  20.700  0.00  0.00    +0.000 C 
ATOM     21  C   UNL     1      -2.212  11.897  20.386  0.00  0.00    +0.000 C 
BRANCH  21  22
ATOM     22  C   UNL     1      -3.454  12.565  20.108  0.00  0.00    +0.000 C 
ATOM     23  C   UNL     1      -4.517  12.747  21.157  0.00  0.00    +0.000 C 
ATOM     24  C   UNL     1      -3.680  13.919  20.741  0.00  0.00    +0.000 C 
ENDBRANCH  21  22
ENDBRANCH   4  20
TORSDOF 3
ENDMDL
MODEL 8
REMARK VINA RESULT:      -6.1      4.952      7.514
REMARK  Name = 
REMARK  4 active torsions:
REMARK  status: ('A' for Active; 'I' for Inactive)
REMARK    1  A    between atoms: C_1  and  C_2
REMARK    2  A    between atoms: C_4  and  C_5
REMARK    3  A    between atoms: C_4  and  C_10
REMARK    4  A    between atoms: C_6  and  C_7
REMARK                            x       y       z     vdW  Elec       q    Type
REMARK                         _______ _______ _______ _____ _____    ______ ____
ROOT
ATOM      1  C   UNL     1       6.890   5.549  18.641  0.00  0.00    +0.000 C 
ATOM      2  C   UNL     1       5.718   5.131  19.525  0.00  0.00    +0.000 C 
ATOM      3  O   UNL     1       4.548   5.917  19.334  0.00  0.00    +0.000 OA
ATOM      4  C   UNL     1       3.612   5.747  18.223  0.00  0.00    +0.000 C 
ATOM      5  C   UNL     1       2.875   4.380  18.388  0.00  0.00    +0.000 A 
ATOM      6  C   UNL     1       1.487   4.250  18.584  0.00  0.00    +0.000 A 
ATOM      7  C   UNL     1       0.857   3.005  18.698  0.00  0.00    +0.000 A 
ATOM      8  F   UNL     1      -0.470   2.963  18.874  0.00  0.00    +0.000 F 
ATOM      9  C   UNL     1       1.573   1.827  18.639  0.00  0.00    +0.000 A 
ATOM     10  C   UNL     1       2.949   1.899  18.499  0.00  0.00    +0.000 A 
ATOM     11  C   UNL     1       3.584   3.148  18.385  0.00  0.00    +0.000 A 
ATOM     12  N   UNL     1       4.996   3.104  18.354  0.00  0.00    +0.000 N 
ATOM     13  C   UNL     1       5.560   3.601  19.518  0.00  0.00    +0.000 C 
ATOM     14  O   UNL     1       5.889   2.889  20.466  0.00  0.00    +0.000 OA
ATOM     15  H   UNL     1       5.328   3.647  17.566  0.00  0.00    +0.000 HD
ENDROOT
BRANCH   4  16
ATOM     16  C   UNL     1       2.700   7.085  18.237  0.00  0.00    +0.000 C 
ATOM     17  F   UNL     1       2.253   7.372  19.490  0.00  0.00    +0.000 F 
ATOM     18  F   UNL     1       3.390   8.186  17.831  0.00  0.00    +0.000 F 
ATOM     19  F   UNL     1       1.597   7.060  17.459  0.00  0.00    +0.000 F 
ENDBRANCH   4  16
BRANCH   4  20
ATOM     20  C   UNL     1       4.358   5.791  16.922  0.00  0.00    +0.000 C 
ATOM     21  C   UNL     1       5.003   5.735  15.907  0.00  0.00    +0.000 C 
BRANCH  21  22
ATOM     22  C   UNL     1       5.727   5.517  14.684  0.00  0.00    +0.000 C 
ATOM     23  C   UNL     1       7.057   4.816  14.656  0.00  0.00    +0.000 C 
ATOM     24  C   UNL     1       5.833   4.097  14.176  0.00  0.00    +0.000 C 
ENDBRANCH  21  22
ENDBRANCH   4  20
TORSDOF 3
ENDMDL
MODEL 9
REMARK VINA RESULT:      -6.0      3.304      5.745
REMARK  Name = 
REMARK  4 active torsions:
REMARK  status: ('A' for Active; 'I' for Inactive)
REMARK    1  A    between atoms: C_1  and  C_2
REMARK    2  A    between atoms: C_4  and  C_5
REMARK    3  A    between atoms: C_4  and  C_10
REMARK    4  A    between atoms: C_6  and  C_7
REMARK                            x       y       z     vdW  Elec       q    Type
REMARK                         _______ _______ _______ _____ _____    ______ ____
ROOT
ATOM      1  C   UNL     1       0.979   8.948  20.506  0.00  0.00    +0.000 C 
ATOM      2  C   UNL     1       1.125  10.135  21.454  0.00  0.00    +0.000 C 
ATOM      3  O   UNL     1       1.286  11.383  20.790  0.00  0.00    +0.000 OA
ATOM      4  C   UNL     1       0.190  12.149  20.197  0.00  0.00    +0.000 C 
ATOM      5  C   UNL     1      -0.732  12.680  21.341  0.00  0.00    +0.000 A 
ATOM      6  C   UNL     1      -0.935  14.046  21.619  0.00  0.00    +0.000 A 
ATOM      7  C   UNL     1      -1.793  14.485  22.635  0.00  0.00    +0.000 A 
ATOM      8  F   UNL     1      -1.941  15.802  22.834  0.00  0.00    +0.000 F 
ATOM      9  C   UNL     1      -2.479  13.595  23.435  0.00  0.00    +0.000 A 
ATOM     10  C   UNL     1      -2.275  12.239  23.236  0.00  0.00    +0.000 A 
ATOM     11  C   UNL     1      -1.414  11.795  22.218  0.00  0.00    +0.000 A 
ATOM     12  N   UNL     1      -1.201  10.399  22.178  0.00  0.00    +0.000 N 
ATOM     13  C   UNL     1       0.079  10.054  22.580  0.00  0.00    +0.000 C 
ATOM     14  O   UNL     1       0.361   9.729  23.733  0.00  0.00    +0.000 OA
ATOM     15  H   UNL     1      -1.353  10.067  21.232  0.00  0.00    +0.000 HD
ENDROOT
BRANCH   4  16
ATOM     16  C   UNL     1       0.913  13.251  19.257  0.00  0.00    +0.000 C 
ATOM     17  F   UNL     1       1.757  14.042  19.973  0.00  0.00    +0.000 F 
ATOM     18  F   UNL     1       1.677  12.681  18.285  0.00  0.00    +0.000 F 
ATOM     19  F   UNL     1       0.094  14.101  18.601  0.00  0.00    +0.000 F 
ENDBRANCH   4  16
BRANCH   4  20
ATOM     20  C   UNL     1      -0.587  11.275  19.257  0.00  0.00    +0.000 C 
ATOM     21  C   UNL     1      -1.207  10.654  18.433  0.00  0.00    +0.000 C 
BRANCH  21  22
ATOM     22  C   UNL     1      -1.836   9.957  17.344  0.00  0.00    +0.000 C 
ATOM     23  C   UNL     1      -3.331   9.828  17.234  0.00  0.00    +0.000 C 
ATOM     24  C   UNL     1      -2.603  10.780  16.334  0.00  0.00    +0.000 C 
ENDBRANCH  21  22
ENDBRANCH   4  20
TORSDOF 3
ENDMDL
