MODEL 1
REMARK VINA RESULT:      -8.4      0.000      0.000
REMARK  Name = 
REMARK  7 active torsions:
REMARK  status: ('A' for Active; 'I' for Inactive)
REMARK    1  A    between atoms: C_2  and  C_3
REMARK    2  A    between atoms: C_7  and  C_8
REMARK    3  A    between atoms: C_8  and  N_9
REMARK    4  A    between atoms: C_11  and  N_12
REMARK    5  A    between atoms: C_14  and  C_15
REMARK    6  A    between atoms: N_17  and  C_18
REMARK    7  A    between atoms: C_18  and  C_19
REMARK                            x       y       z     vdW  Elec       q    Type
REMARK                         _______ _______ _______ _____ _____    ______ ____
ROOT
ATOM      1  N   UNL     1       4.137   5.188  17.977  0.00  0.00    +0.000 NA
ATOM      2  C   UNL     1       5.438   5.850  18.226  0.00  0.00    +0.000 C 
ATOM      3  C   UNL     1       6.169   4.567  17.758  0.00  0.00    +0.000 C 
ATOM      4  C   UNL     1       4.810   3.872  18.019  0.00  0.00    +0.000 C 
ENDROOT
BRANCH   3   5
ATOM      5  N   UNL     1       6.547   4.644  16.370  0.00  0.00    +0.000 N 
ATOM      6  C   UNL     1       6.035   3.918  15.339  0.00  0.00    +0.000 A 
ATOM      7  C   UNL     1       6.656   4.419  14.218  0.00  0.00    +0.000 A 
ATOM      8  N   UNL     1       7.542   5.398  14.601  0.00  0.00    +0.000 NA
ATOM      9  N   UNL     1       7.476   5.519  15.926  0.00  0.00    +0.000 NA
BRANCH   7  10
ATOM     10  C   UNL     1       6.401   3.990  12.856  0.00  0.00    +0.000 C 
ATOM     11  O   UNL     1       7.213   4.172  11.951  0.00  0.00    +0.000 OA
ATOM     12  N   UNL     1       5.193   3.364  12.659  0.00  0.00    +0.000 N 
ATOM     13  H   UNL     1       4.543   3.299  13.433  0.00  0.00    +0.000 HD
BRANCH  12  14
ATOM     14  C   UNL     1       4.830   2.923  11.340  0.00  0.00    +0.000 C 
BRANCH  14  15
ATOM     15  C   UNL     1       3.449   3.363  10.989  0.00  0.00    +0.000 C 
ATOM     16  C   UNL     1       3.163   4.245   9.798  0.00  0.00    +0.000 C 
ATOM     17  C   UNL     1       2.788   2.790   9.758  0.00  0.00    +0.000 C 
ENDBRANCH  14  15
ENDBRANCH  12  14
ENDBRANCH   7  10
ENDBRANCH   3   5
BRANCH   1  18
ATOM     18  C   UNL     1       3.238   5.386  19.118  0.00  0.00    +0.000 C 
BRANCH  18  23
ATOM     19  C   UNL     1       1.479   8.555  20.340  0.00  0.00    +0.000 A 
ATOM     20  C   UNL     1       1.365   9.294  19.157  0.00  0.00    +0.000 A 
ATOM     21  C   UNL     1       1.787   8.735  17.949  0.00  0.00    +0.000 A 
ATOM     22  C   UNL     1       2.347   7.453  17.922  0.00  0.00    +0.000 A 
ATOM     23  C   UNL     1       2.484   6.703  19.100  0.00  0.00    +0.000 A 
ATOM     24  C   UNL     1       2.021   7.264  20.304  0.00  0.00    +0.000 A 
BRANCH  19  26
ATOM     25  N   UNL     1       0.773   9.623  22.597  0.00  0.00    +0.000 NA
ATOM     26  C   UNL     1       1.095   9.134  21.597  0.00  0.00    +0.000 C 
ENDBRANCH  19  26
ENDBRANCH  18  23
ENDBRANCH   1  18
TORSDOF 7
ENDMDL
MODEL 2
REMARK VINA RESULT:      -7.5      1.278      1.576
REMARK  Name = 
REMARK  7 active torsions:
REMARK  status: ('A' for Active; 'I' for Inactive)
REMARK    1  A    between atoms: C_2  and  C_3
REMARK    2  A    between atoms: C_7  and  C_8
REMARK    3  A    between atoms: C_8  and  N_9
REMARK    4  A    between atoms: C_11  and  N_12
REMARK    5  A    between atoms: C_14  and  C_15
REMARK    6  A    between atoms: N_17  and  C_18
REMARK    7  A    between atoms: C_18  and  C_19
REMARK                            x       y       z     vdW  Elec       q    Type
REMARK                         _______ _______ _______ _____ _____    ______ ____
ROOT
ATOM      1  N   UNL     1       3.574   5.354  18.920  0.00  0.00    +0.000 NA
ATOM      2  C   UNL     1       4.794   6.018  19.433  0.00  0.00    +0.000 C 
ATOM      3  C   UNL     1       5.548   4.667  19.362  0.00  0.00    +0.000 C 
ATOM      4  C   UNL     1       4.130   4.044  19.322  0.00  0.00    +0.000 C 
ENDROOT
BRANCH   3   5
ATOM      5  N   UNL     1       6.295   4.536  18.138  0.00  0.00    +0.000 N 
ATOM      6  C   UNL     1       5.810   4.604  16.868  0.00  0.00    +0.000 A 
ATOM      7  C   UNL     1       6.923   4.509  16.064  0.00  0.00    +0.000 A 
ATOM      8  N   UNL     1       8.033   4.352  16.859  0.00  0.00    +0.000 NA
ATOM      9  N   UNL     1       7.635   4.358  18.130  0.00  0.00    +0.000 NA
BRANCH   7  10
ATOM     10  C   UNL     1       6.918   4.578  14.616  0.00  0.00    +0.000 C 
ATOM     11  O   UNL     1       7.582   5.408  13.999  0.00  0.00    +0.000 OA
ATOM     12  N   UNL     1       6.122   3.646  13.990  0.00  0.00    +0.000 N 
ATOM     13  H   UNL     1       5.553   3.029  14.557  0.00  0.00    +0.000 HD
BRANCH  12  14
ATOM     14  C   UNL     1       6.025   3.646  12.556  0.00  0.00    +0.000 C 
BRANCH  14  15
ATOM     15  C   UNL     1       4.673   3.205  12.111  0.00  0.00    +0.000 C 
ATOM     16  C   UNL     1       3.995   3.790  10.896  0.00  0.00    +0.000 C 
ATOM     17  C   UNL     1       4.546   2.393  10.844  0.00  0.00    +0.000 C 
ENDBRANCH  14  15
ENDBRANCH  12  14
ENDBRANCH   7  10
ENDBRANCH   3   5
BRANCH   1  18
ATOM     18  C   UNL     1       2.410   5.731  19.728  0.00  0.00    +0.000 C 
BRANCH  18  23
ATOM     19  C   UNL     1       1.099   9.270  20.350  0.00  0.00    +0.000 A 
ATOM     20  C   UNL     1       1.229   9.850  19.084  0.00  0.00    +0.000 A 
ATOM     21  C   UNL     1       1.667   9.075  18.008  0.00  0.00    +0.000 A 
ATOM     22  C   UNL     1       2.003   7.730  18.199  0.00  0.00    +0.000 A 
ATOM     23  C   UNL     1       1.894   7.135  19.465  0.00  0.00    +0.000 A 
ATOM     24  C   UNL     1       1.416   7.918  20.531  0.00  0.00    +0.000 A 
BRANCH  19  26
ATOM     25  N   UNL     1       0.376  10.733  22.367  0.00  0.00    +0.000 NA
ATOM     26  C   UNL     1       0.697  10.066  21.475  0.00  0.00    +0.000 C 
ENDBRANCH  19  26
ENDBRANCH  18  23
ENDBRANCH   1  18
TORSDOF 7
ENDMDL
MODEL 3
REMARK VINA RESULT:      -7.3      4.997      7.380
REMARK  Name = 
REMARK  7 active torsions:
REMARK  status: ('A' for Active; 'I' for Inactive)
REMARK    1  A    between atoms: C_2  and  C_3
REMARK    2  A    between atoms: C_7  and  C_8
REMARK    3  A    between atoms: C_8  and  N_9
REMARK    4  A    between atoms: C_11  and  N_12
REMARK    5  A    between atoms: C_14  and  C_15
REMARK    6  A    between atoms: N_17  and  C_18
REMARK    7  A    between atoms: C_18  and  C_19
REMARK                            x       y       z     vdW  Elec       q    Type
REMARK                         _______ _______ _______ _____ _____    ______ ____
ROOT
ATOM      1  N   UNL     1       5.504   5.002  18.386  0.00  0.00    +0.000 NA
ATOM      2  C   UNL     1       6.679   5.044  19.286  0.00  0.00    +0.000 C 
ATOM      3  C   UNL     1       7.569   5.455  18.087  0.00  0.00    +0.000 C 
ATOM      4  C   UNL     1       6.410   4.900  17.223  0.00  0.00    +0.000 C 
ENDROOT
BRANCH   3   5
ATOM      5  N   UNL     1       7.741   6.883  18.014  0.00  0.00    +0.000 N 
ATOM      6  C   UNL     1       8.475   7.665  18.852  0.00  0.00    +0.000 A 
ATOM      7  C   UNL     1       8.394   8.928  18.311  0.00  0.00    +0.000 A 
ATOM      8  N   UNL     1       7.594   8.881  17.194  0.00  0.00    +0.000 NA
ATOM      9  N   UNL     1       7.189   7.623  17.028  0.00  0.00    +0.000 NA
BRANCH   7  10
ATOM     10  C   UNL     1       9.059  10.107  18.831  0.00  0.00    +0.000 C 
ATOM     11  O   UNL     1       9.295  10.248  20.029  0.00  0.00    +0.000 OA
ATOM     12  N   UNL     1       9.406  11.044  17.887  0.00  0.00    +0.000 N 
ATOM     13  H   UNL     1       9.130  10.895  16.924  0.00  0.00    +0.000 HD
BRANCH  12  14
ATOM     14  C   UNL     1      10.046  12.263  18.300  0.00  0.00    +0.000 C 
BRANCH  14  15
ATOM     15  C   UNL     1      11.373  12.424  17.638  0.00  0.00    +0.000 C 
ATOM     16  C   UNL     1      11.608  13.433  16.541  0.00  0.00    +0.000 C 
ATOM     17  C   UNL     1      12.182  13.668  17.909  0.00  0.00    +0.000 C 
ENDBRANCH  14  15
ENDBRANCH  12  14
ENDBRANCH   7  10
ENDBRANCH   3   5
BRANCH   1  18
ATOM     18  C   UNL     1       4.740   3.769  18.602  0.00  0.00    +0.000 C 
BRANCH  18  23
ATOM     19  C   UNL     1       1.841   5.473  20.422  0.00  0.00    +0.000 A 
ATOM     20  C   UNL     1       0.929   4.421  20.558  0.00  0.00    +0.000 A 
ATOM     21  C   UNL     1       1.283   3.139  20.131  0.00  0.00    +0.000 A 
ATOM     22  C   UNL     1       2.532   2.911  19.543  0.00  0.00    +0.000 A 
ATOM     23  C   UNL     1       3.453   3.958  19.385  0.00  0.00    +0.000 A 
ATOM     24  C   UNL     1       3.098   5.235  19.854  0.00  0.00    +0.000 A 
BRANCH  19  26
ATOM     25  N   UNL     1       1.150   7.876  21.117  0.00  0.00    +0.000 NA
ATOM     26  C   UNL     1       1.473   6.806  20.812  0.00  0.00    +0.000 C 
ENDBRANCH  19  26
ENDBRANCH  18  23
ENDBRANCH   1  18
TORSDOF 7
ENDMDL
MODEL 4
REMARK VINA RESULT:      -7.2      2.629      3.020
REMARK  Name = 
REMARK  7 active torsions:
REMARK  status: ('A' for Active; 'I' for Inactive)
REMARK    1  A    between atoms: C_2  and  C_3
REMARK    2  A    between atoms: C_7  and  C_8
REMARK    3  A    between atoms: C_8  and  N_9
REMARK    4  A    between atoms: C_11  and  N_12
REMARK    5  A    between atoms: C_14  and  C_15
REMARK    6  A    between atoms: N_17  and  C_18
REMARK    7  A    between atoms: C_18  and  C_19
REMARK                            x       y       z     vdW  Elec       q    Type
REMARK                         _______ _______ _______ _____ _____    ______ ____
ROOT
ATOM      1  N   UNL     1       4.921   5.283  17.719  0.00  0.00    +0.000 NA
ATOM      2  C   UNL     1       6.020   6.272  17.635  0.00  0.00    +0.000 C 
ATOM      3  C   UNL     1       7.004   5.132  17.273  0.00  0.00    +0.000 C 
ATOM      4  C   UNL     1       5.918   4.201  17.867  0.00  0.00    +0.000 C 
ENDROOT
BRANCH   3   5
ATOM      5  N   UNL     1       7.182   5.013  15.849  0.00  0.00    +0.000 N 
ATOM      6  C   UNL     1       6.572   4.125  15.017  0.00  0.00    +0.000 A 
ATOM      7  C   UNL     1       7.004   4.473  13.757  0.00  0.00    +0.000 A 
ATOM      8  N   UNL     1       7.881   5.526  13.865  0.00  0.00    +0.000 NA
ATOM      9  N   UNL     1       7.992   5.842  15.154  0.00  0.00    +0.000 NA
BRANCH   7  10
ATOM     10  C   UNL     1       6.587   3.838  12.523  0.00  0.00    +0.000 C 
ATOM     11  O   UNL     1       7.379   3.589  11.616  0.00  0.00    +0.000 OA
ATOM     12  N   UNL     1       5.248   3.533  12.448  0.00  0.00    +0.000 N 
ATOM     13  H   UNL     1       4.638   3.818  13.204  0.00  0.00    +0.000 HD
BRANCH  12  14
ATOM     14  C   UNL     1       4.726   2.925  11.255  0.00  0.00    +0.000 C 
BRANCH  14  15
ATOM     15  C   UNL     1       3.390   3.489  10.906  0.00  0.00    +0.000 C 
ATOM     16  C   UNL     1       3.105   4.111   9.561  0.00  0.00    +0.000 C 
ATOM     17  C   UNL     1       2.528   2.765   9.900  0.00  0.00    +0.000 C 
ENDBRANCH  14  15
ENDBRANCH  12  14
ENDBRANCH   7  10
ENDBRANCH   3   5
BRANCH   1  18
ATOM     18  C   UNL     1       4.143   5.489  18.945  0.00  0.00    +0.000 C 
BRANCH  18  23
ATOM     19  C   UNL     1       1.530   3.188  20.528  0.00  0.00    +0.000 A 
ATOM     20  C   UNL     1       0.571   3.101  19.512  0.00  0.00    +0.000 A 
ATOM     21  C   UNL     1       0.806   3.722  18.284  0.00  0.00    +0.000 A 
ATOM     22  C   UNL     1       1.981   4.454  18.076  0.00  0.00    +0.000 A 
ATOM     23  C   UNL     1       2.946   4.566  19.089  0.00  0.00    +0.000 A 
ATOM     24  C   UNL     1       2.713   3.904  20.308  0.00  0.00    +0.000 A 
BRANCH  19  26
ATOM     25  N   UNL     1       1.080   2.144  22.861  0.00  0.00    +0.000 NA
ATOM     26  C   UNL     1       1.281   2.596  21.812  0.00  0.00    +0.000 C 
ENDBRANCH  19  26
ENDBRANCH  18  23
ENDBRANCH   1  18
TORSDOF 7
ENDMDL
MODEL 5
REMARK VINA RESULT:      -7.0      1.372      1.839
REMARK  Name = 
REMARK  7 active torsions:
REMARK  status: ('A' for Active; 'I' for Inactive)
REMARK    1  A    between atoms: C_2  and  C_3
REMARK    2  A    between atoms: C_7  and  C_8
REMARK    3  A    between atoms: C_8  and  N_9
REMARK    4  A    between atoms: C_11  and  N_12
REMARK    5  A    between atoms: C_14  and  C_15
REMARK    6  A    between atoms: N_17  and  C_18
REMARK    7  A    between atoms: C_18  and  C_19
REMARK                            x       y       z     vdW  Elec       q    Type
REMARK                         _______ _______ _______ _____ _____    ______ ____
ROOT
ATOM      1  N   UNL     1       3.459   4.656  18.214  0.00  0.00    +0.000 NA
ATOM      2  C   UNL     1       4.657   5.363  18.723  0.00  0.00    +0.000 C 
ATOM      3  C   UNL     1       5.522   4.127  18.376  0.00  0.00    +0.000 C 
ATOM      4  C   UNL     1       4.172   3.368  18.355  0.00  0.00    +0.000 C 
ENDROOT
BRANCH   3   5
ATOM      5  N   UNL     1       6.154   4.261  17.089  0.00  0.00    +0.000 N 
ATOM      6  C   UNL     1       5.642   3.900  15.882  0.00  0.00    +0.000 A 
ATOM      7  C   UNL     1       6.584   4.310  14.966  0.00  0.00    +0.000 A 
ATOM      8  N   UNL     1       7.643   4.870  15.640  0.00  0.00    +0.000 NA
ATOM      9  N   UNL     1       7.375   4.824  16.944  0.00  0.00    +0.000 NA
BRANCH   7  10
ATOM     10  C   UNL     1       6.465   4.184  13.527  0.00  0.00    +0.000 C 
ATOM     11  O   UNL     1       7.252   4.728  12.755  0.00  0.00    +0.000 OA
ATOM     12  N   UNL     1       5.414   3.409  13.095  0.00  0.00    +0.000 N 
ATOM     13  H   UNL     1       4.766   3.038  13.779  0.00  0.00    +0.000 HD
BRANCH  12  14
ATOM     14  C   UNL     1       5.190   3.240  11.685  0.00  0.00    +0.000 C 
BRANCH  14  15
ATOM     15  C   UNL     1       3.770   3.526  11.330  0.00  0.00    +0.000 C 
ATOM     16  C   UNL     1       3.379   4.141  10.009  0.00  0.00    +0.000 C 
ATOM     17  C   UNL     1       3.096   2.689  10.270  0.00  0.00    +0.000 C 
ENDBRANCH  14  15
ENDBRANCH  12  14
ENDBRANCH   7  10
ENDBRANCH   3   5
BRANCH   1  18
ATOM     18  C   UNL     1       2.350   4.782  19.165  0.00  0.00    +0.000 C 
BRANCH  18  23
ATOM     19  C   UNL     1       1.869   8.575  19.089  0.00  0.00    +0.000 A 
ATOM     20  C   UNL     1       1.297   8.817  20.342  0.00  0.00    +0.000 A 
ATOM     21  C   UNL     1       1.138   7.763  21.245  0.00  0.00    +0.000 A 
ATOM     22  C   UNL     1       1.522   6.465  20.890  0.00  0.00    +0.000 A 
ATOM     23  C   UNL     1       2.083   6.202  19.631  0.00  0.00    +0.000 A 
ATOM     24  C   UNL     1       2.272   7.278  18.746  0.00  0.00    +0.000 A 
BRANCH  19  26
ATOM     25  N   UNL     1       2.123  10.502  17.369  0.00  0.00    +0.000 NA
ATOM     26  C   UNL     1       1.995   9.638  18.132  0.00  0.00    +0.000 C 
ENDBRANCH  19  26
ENDBRANCH  18  23
ENDBRANCH   1  18
TORSDOF 7
ENDMDL
MODEL 6
REMARK VINA RESULT:      -7.0      4.844      8.000
REMARK  Name = 
REMARK  7 active torsions:
REMARK  status: ('A' for Active; 'I' for Inactive)
REMARK    1  A    between atoms: C_2  and  C_3
REMARK    2  A    between atoms: C_7  and  C_8
REMARK    3  A    between atoms: C_8  and  N_9
REMARK    4  A    between atoms: C_11  and  N_12
REMARK    5  A    between atoms: C_14  and  C_15
REMARK    6  A    between atoms: N_17  and  C_18
REMARK    7  A    between atoms: C_18  and  C_19
REMARK                            x       y       z     vdW  Elec       q    Type
REMARK                         _______ _______ _______ _____ _____    ______ ____
ROOT
ATOM      1  N   UNL     1       5.870   4.836  17.195  0.00  0.00    +0.000 NA
ATOM      2  C   UNL     1       6.080   5.136  18.630  0.00  0.00    +0.000 C 
ATOM      3  C   UNL     1       7.554   5.500  18.327  0.00  0.00    +0.000 C 
ATOM      4  C   UNL     1       7.331   4.702  17.019  0.00  0.00    +0.000 C 
ENDROOT
BRANCH   3   5
ATOM      5  N   UNL     1       7.728   6.918  18.142  0.00  0.00    +0.000 N 
ATOM      6  C   UNL     1       8.507   7.753  18.883  0.00  0.00    +0.000 A 
ATOM      7  C   UNL     1       8.402   8.974  18.258  0.00  0.00    +0.000 A 
ATOM      8  N   UNL     1       7.545   8.854  17.190  0.00  0.00    +0.000 NA
ATOM      9  N   UNL     1       7.127   7.590  17.136  0.00  0.00    +0.000 NA
BRANCH   7  10
ATOM     10  C   UNL     1       9.097  10.182  18.657  0.00  0.00    +0.000 C 
ATOM     11  O   UNL     1       9.428  11.044  17.845  0.00  0.00    +0.000 OA
ATOM     12  N   UNL     1       9.352  10.290  20.004  0.00  0.00    +0.000 N 
ATOM     13  H   UNL     1       9.108   9.517  20.612  0.00  0.00    +0.000 HD
BRANCH  12  14
ATOM     14  C   UNL     1      10.060  11.437  20.501  0.00  0.00    +0.000 C 
BRANCH  14  15
ATOM     15  C   UNL     1       9.162  12.317  21.303  0.00  0.00    +0.000 C 
ATOM     16  C   UNL     1       9.635  13.616  21.907  0.00  0.00    +0.000 C 
ATOM     17  C   UNL     1       8.715  13.635  20.719  0.00  0.00    +0.000 C 
ENDBRANCH  14  15
ENDBRANCH  12  14
ENDBRANCH   7  10
ENDBRANCH   3   5
BRANCH   1  18
ATOM     18  C   UNL     1       5.174   3.554  17.039  0.00  0.00    +0.000 C 
BRANCH  18  23
ATOM     19  C   UNL     1       2.474   3.176  19.721  0.00  0.00    +0.000 A 
ATOM     20  C   UNL     1       1.347   3.684  19.067  0.00  0.00    +0.000 A 
ATOM     21  C   UNL     1       1.441   4.078  17.731  0.00  0.00    +0.000 A 
ATOM     22  C   UNL     1       2.663   3.992  17.054  0.00  0.00    +0.000 A 
ATOM     23  C   UNL     1       3.808   3.499  17.699  0.00  0.00    +0.000 A 
ATOM     24  C   UNL     1       3.689   3.072  19.033  0.00  0.00    +0.000 A 
BRANCH  19  26
ATOM     25  N   UNL     1       2.322   2.512  22.225  0.00  0.00    +0.000 NA
ATOM     26  C   UNL     1       2.405   2.812  21.109  0.00  0.00    +0.000 C 
ENDBRANCH  19  26
ENDBRANCH  18  23
ENDBRANCH   1  18
TORSDOF 7
ENDMDL
MODEL 7
REMARK VINA RESULT:      -7.0      5.053      7.645
REMARK  Name = 
REMARK  7 active torsions:
REMARK  status: ('A' for Active; 'I' for Inactive)
REMARK    1  A    between atoms: C_2  and  C_3
REMARK    2  A    between atoms: C_7  and  C_8
REMARK    3  A    between atoms: C_8  and  N_9
REMARK    4  A    between atoms: C_11  and  N_12
REMARK    5  A    between atoms: C_14  and  C_15
REMARK    6  A    between atoms: N_17  and  C_18
REMARK    7  A    between atoms: C_18  and  C_19
REMARK                            x       y       z     vdW  Elec       q    Type
REMARK                         _______ _______ _______ _____ _____    ______ ____
ROOT
ATOM      1  N   UNL     1       4.116   6.544  17.971  0.00  0.00    +0.000 NA
ATOM      2  C   UNL     1       5.136   5.508  17.690  0.00  0.00    +0.000 C 
ATOM      3  C   UNL     1       5.905   6.519  16.804  0.00  0.00    +0.000 C 
ATOM      4  C   UNL     1       4.565   7.295  16.779  0.00  0.00    +0.000 C 
ENDROOT
BRANCH   3   5
ATOM      5  N   UNL     1       6.962   7.171  17.533  0.00  0.00    +0.000 N 
ATOM      6  C   UNL     1       7.302   8.488  17.483  0.00  0.00    +0.000 A 
ATOM      7  C   UNL     1       8.304   8.626  18.416  0.00  0.00    +0.000 A 
ATOM      8  N   UNL     1       8.563   7.396  18.973  0.00  0.00    +0.000 NA
ATOM      9  N   UNL     1       7.742   6.507  18.415  0.00  0.00    +0.000 NA
BRANCH   7  10
ATOM     10  C   UNL     1       8.963   9.870  18.762  0.00  0.00    +0.000 C 
ATOM     11  O   UNL     1       9.358  10.106  19.901  0.00  0.00    +0.000 OA
ATOM     12  N   UNL     1       9.113  10.757  17.722  0.00  0.00    +0.000 N 
ATOM     13  H   UNL     1       8.711  10.529  16.821  0.00  0.00    +0.000 HD
BRANCH  12  14
ATOM     14  C   UNL     1       9.730  12.033  17.963  0.00  0.00    +0.000 C 
BRANCH  14  15
ATOM     15  C   UNL     1      11.191  11.986  17.671  0.00  0.00    +0.000 C 
ATOM     16  C   UNL     1      11.936  13.166  17.095  0.00  0.00    +0.000 C 
ATOM     17  C   UNL     1      12.138  12.785  18.534  0.00  0.00    +0.000 C 
ENDBRANCH  14  15
ENDBRANCH  12  14
ENDBRANCH   7  10
ENDBRANCH   3   5
BRANCH   1  18
ATOM     18  C   UNL     1       2.768   5.992  17.802  0.00  0.00    +0.000 C 
BRANCH  18  23
ATOM     19  C   UNL     1       2.011   2.932  19.967  0.00  0.00    +0.000 A 
ATOM     20  C   UNL     1       2.033   1.900  19.022  0.00  0.00    +0.000 A 
ATOM     21  C   UNL     1       2.370   2.182  17.697  0.00  0.00    +0.000 A 
ATOM     22  C   UNL     1       2.658   3.495  17.306  0.00  0.00    +0.000 A 
ATOM     23  C   UNL     1       2.625   4.545  18.236  0.00  0.00    +0.000 A 
ATOM     24  C   UNL     1       2.321   4.240  19.575  0.00  0.00    +0.000 A 
BRANCH  19  26
ATOM     25  N   UNL     1       1.286   2.475  22.416  0.00  0.00    +0.000 NA
ATOM     26  C   UNL     1       1.619   2.666  21.323  0.00  0.00    +0.000 C 
ENDBRANCH  19  26
ENDBRANCH  18  23
ENDBRANCH   1  18
TORSDOF 7
ENDMDL
MODEL 8
REMARK VINA RESULT:      -6.8      5.578      8.147
REMARK  Name = 
REMARK  7 active torsions:
REMARK  status: ('A' for Active; 'I' for Inactive)
REMARK    1  A    between atoms: C_2  and  C_3
REMARK    2  A    between atoms: C_7  and  C_8
REMARK    3  A    between atoms: C_8  and  N_9
REMARK    4  A    between atoms: C_11  and  N_12
REMARK    5  A    between atoms: C_14  and  C_15
REMARK    6  A    between atoms: N_17  and  C_18
REMARK    7  A    between atoms: C_18  and  C_19
REMARK                            x       y       z     vdW  Elec       q    Type
REMARK                         _______ _______ _______ _____ _____    ______ ____
ROOT
ATOM      1  N   UNL     1      -0.817  10.711  19.418  0.00  0.00    +0.000 NA
ATOM      2  C   UNL     1       0.563  11.234  19.292  0.00  0.00    +0.000 C 
ATOM      3  C   UNL     1       1.006  10.318  20.459  0.00  0.00    +0.000 C 
ATOM      4  C   UNL     1      -0.506  10.249  20.788  0.00  0.00    +0.000 C 
ENDROOT
BRANCH   3   5
ATOM      5  N   UNL     1       1.574   9.083  19.984  0.00  0.00    +0.000 N 
ATOM      6  C   UNL     1       1.768   7.941  20.698  0.00  0.00    +0.000 A 
ATOM      7  C   UNL     1       2.249   7.034  19.782  0.00  0.00    +0.000 A 
ATOM      8  N   UNL     1       2.363   7.655  18.561  0.00  0.00    +0.000 NA
ATOM      9  N   UNL     1       1.958   8.916  18.699  0.00  0.00    +0.000 NA
BRANCH   7  10
ATOM     10  C   UNL     1       2.566   5.647  20.062  0.00  0.00    +0.000 C 
ATOM     11  O   UNL     1       3.650   5.151  19.762  0.00  0.00    +0.000 OA
ATOM     12  N   UNL     1       1.569   4.937  20.690  0.00  0.00    +0.000 N 
ATOM     13  H   UNL     1       0.677   5.387  20.856  0.00  0.00    +0.000 HD
BRANCH  12  14
ATOM     14  C   UNL     1       1.771   3.546  20.989  0.00  0.00    +0.000 C 
BRANCH  14  15
ATOM     15  C   UNL     1       1.025   2.678  20.034  0.00  0.00    +0.000 C 
ATOM     16  C   UNL     1       0.973   2.968  18.554  0.00  0.00    +0.000 C 
ATOM     17  C   UNL     1       1.800   1.821  19.062  0.00  0.00    +0.000 C 
ENDBRANCH  14  15
ENDBRANCH  12  14
ENDBRANCH   7  10
ENDBRANCH   3   5
BRANCH   1  18
ATOM     18  C   UNL     1      -1.783  11.814  19.412  0.00  0.00    +0.000 C 
BRANCH  18  23
ATOM     19  C   UNL     1      -3.489  10.979  16.093  0.00  0.00    +0.000 A 
ATOM     20  C   UNL     1      -4.837  11.187  16.403  0.00  0.00    +0.000 A 
ATOM     21  C   UNL     1      -5.191  11.673  17.664  0.00  0.00    +0.000 A 
ATOM     22  C   UNL     1      -4.204  11.926  18.624  0.00  0.00    +0.000 A 
ATOM     23  C   UNL     1      -2.849  11.708  18.336  0.00  0.00    +0.000 A 
ATOM     24  C   UNL     1      -2.505  11.253  17.050  0.00  0.00    +0.000 A 
BRANCH  19  26
ATOM     25  N   UNL     1      -2.835   9.977  13.790  0.00  0.00    +0.000 NA
ATOM     26  C   UNL     1      -3.114  10.433  14.818  0.00  0.00    +0.000 C 
ENDBRANCH  19  26
ENDBRANCH  18  23
ENDBRANCH   1  18
TORSDOF 7
ENDMDL
MODEL 9
REMARK VINA RESULT:      -6.8      1.679      2.600
REMARK  Name = 
REMARK  7 active torsions:
REMARK  status: ('A' for Active; 'I' for Inactive)
REMARK    1  A    between atoms: C_2  and  C_3
REMARK    2  A    between atoms: C_7  and  C_8
REMARK    3  A    between atoms: C_8  and  N_9
REMARK    4  A    between atoms: C_11  and  N_12
REMARK    5  A    between atoms: C_14  and  C_15
REMARK    6  A    between atoms: N_17  and  C_18
REMARK    7  A    between atoms: C_18  and  C_19
REMARK                            x       y       z     vdW  Elec       q    Type
REMARK                         _______ _______ _______ _____ _____    ______ ____
ROOT
ATOM      1  N   UNL     1       5.319   3.396  18.668  0.00  0.00    +0.000 NA
ATOM      2  C   UNL     1       4.332   4.133  17.846  0.00  0.00    +0.000 C 
ATOM      3  C   UNL     1       5.358   5.278  17.660  0.00  0.00    +0.000 C 
ATOM      4  C   UNL     1       6.059   4.656  18.893  0.00  0.00    +0.000 C 
ENDROOT
BRANCH   3   5
ATOM      5  N   UNL     1       6.088   5.146  16.426  0.00  0.00    +0.000 N 
ATOM      6  C   UNL     1       5.732   4.413  15.336  0.00  0.00    +0.000 A 
ATOM      7  C   UNL     1       6.703   4.685  14.400  0.00  0.00    +0.000 A 
ATOM      8  N   UNL     1       7.627   5.538  14.955  0.00  0.00    +0.000 NA
ATOM      9  N   UNL     1       7.247   5.805  16.203  0.00  0.00    +0.000 NA
BRANCH   7  10
ATOM     10  C   UNL     1       6.731   4.166  13.046  0.00  0.00    +0.000 C 
ATOM     11  O   UNL     1       7.406   4.687  12.160  0.00  0.00    +0.000 OA
ATOM     12  N   UNL     1       5.954   3.051  12.834  0.00  0.00    +0.000 N 
ATOM     13  H   UNL     1       5.375   2.706  13.590  0.00  0.00    +0.000 HD
BRANCH  12  14
ATOM     14  C   UNL     1       5.890   2.472  11.520  0.00  0.00    +0.000 C 
BRANCH  14  15
ATOM     15  C   UNL     1       4.491   2.461  11.006  0.00  0.00    +0.000 C 
ATOM     16  C   UNL     1       3.421   3.369  11.562  0.00  0.00    +0.000 C 
ATOM     17  C   UNL     1       3.996   3.638  10.200  0.00  0.00    +0.000 C 
ENDBRANCH  14  15
ENDBRANCH  12  14
ENDBRANCH   7  10
ENDBRANCH   3   5
BRANCH   1  18
ATOM     18  C   UNL     1       4.690   2.897  19.896  0.00  0.00    +0.000 C 
BRANCH  18  23
ATOM     19  C   UNL     1       1.726   5.235  20.507  0.00  0.00    +0.000 A 
ATOM     20  C   UNL     1       0.639   4.407  20.205  0.00  0.00    +0.000 A 
ATOM     21  C   UNL     1       0.861   3.067  19.880  0.00  0.00    +0.000 A 
ATOM     22  C   UNL     1       2.164   2.560  19.826  0.00  0.00    +0.000 A 
ATOM     23  C   UNL     1       3.266   3.380  20.110  0.00  0.00    +0.000 A 
ATOM     24  C   UNL     1       3.026   4.718  20.473  0.00  0.00    +0.000 A 
BRANCH  19  26
ATOM     25  N   UNL     1       1.347   7.743  21.057  0.00  0.00    +0.000 NA
ATOM     26  C   UNL     1       1.518   6.627  20.796  0.00  0.00    +0.000 C 
ENDBRANCH  19  26
ENDBRANCH  18  23
ENDBRANCH   1  18
TORSDOF 7
ENDMDL
