MODEL 1
REMARK VINA RESULT:      -7.0      0.000      0.000
REMARK  Name = 
REMARK  12 active torsions:
REMARK  status: ('A' for Active; 'I' for Inactive)
REMARK    1  A    between atoms: C_1  and  C_2
REMARK    2  A    between atoms: C_2  and  C_3
REMARK    3  A    between atoms: C_3  and  C_4
REMARK    4  A    between atoms: C_3  and  C_5
REMARK    5  A    between atoms: C_3  and  N_6
REMARK    6  A    between atoms: C_7  and  C_9
REMARK    7  A    between atoms: C_9  and  N_10
REMARK    8  A    between atoms: C_11  and  C_12
REMARK    9  A    between atoms: C_15  and  N_16
REMARK   10  A    between atoms: N_16  and  S_17
REMARK   11  A    between atoms: S_17  and  C_20
REMARK   12  A    between atoms: C_23  and  C_24
REMARK                            x       y       z     vdW  Elec       q    Type
REMARK                         _______ _______ _______ _____ _____    ______ ____
ROOT
ATOM      1  N   UNL     1       2.447   6.052  19.060  0.00  0.00    +0.000 N 
ATOM      2  C   UNL     1       1.959   5.574  20.287  0.00  0.00    +0.000 A 
ATOM      3  C   UNL     1       2.094   4.124  20.666  0.00  0.00    +0.000 C 
ATOM      4  C   UNL     1       1.377   6.426  21.155  0.00  0.00    +0.000 A 
ATOM      5  C   UNL     1       1.285   7.834  20.881  0.00  0.00    +0.000 A 
ATOM      6  C   UNL     1       1.730   8.315  19.717  0.00  0.00    +0.000 A 
ATOM      7  C   UNL     1       2.376   7.410  18.709  0.00  0.00    +0.000 A 
ATOM      8  O   UNL     1       2.872   7.866  17.680  0.00  0.00    +0.000 OA
ENDROOT
BRANCH   6   9
ATOM      9  N   UNL     1       1.734   9.728  19.557  0.00  0.00    +0.000 N 
ATOM     10  H   UNL     1       2.044  10.277  20.356  0.00  0.00    +0.000 HD
BRANCH   9  11
ATOM     11  S   UNL     1       0.263  10.387  19.025  0.00  0.00    +0.000 S 
ATOM     12  O   UNL     1      -0.067   9.836  17.727  0.00  0.00    +0.000 OA
ATOM     13  O   UNL     1      -0.648  10.247  20.143  0.00  0.00    +0.000 OA
BRANCH  11  14
ATOM     14  C   UNL     1       0.628  12.105  18.849  0.00  0.00    +0.000 A 
ATOM     15  C   UNL     1       1.957  12.533  18.879  0.00  0.00    +0.000 A 
ATOM     16  C   UNL     1       2.238  13.899  18.841  0.00  0.00    +0.000 A 
ATOM     17  C   UNL     1       1.197  14.833  18.776  0.00  0.00    +0.000 A 
ATOM     18  C   UNL     1       1.482  16.305  18.828  0.00  0.00    +0.000 C 
ATOM     19  C   UNL     1      -0.130  14.385  18.686  0.00  0.00    +0.000 A 
ATOM     20  C   UNL     1      -0.418  13.020  18.721  0.00  0.00    +0.000 A 
ENDBRANCH  11  14
ENDBRANCH   9  11
ENDBRANCH   6   9
BRANCH   1  21
ATOM     21  C   UNL     1       3.067   5.152  18.079  0.00  0.00    +0.000 C 
BRANCH  21  23
ATOM     22  N   UNL     1       5.408   5.918  17.883  0.00  0.00    +0.000 N 
ATOM     23  C   UNL     1       4.563   4.910  18.318  0.00  0.00    +0.000 C 
ATOM     24  O   UNL     1       4.960   3.856  18.809  0.00  0.00    +0.000 OA
ATOM     25  H   UNL     1       4.968   6.702  17.409  0.00  0.00    +0.000 HD
BRANCH  22  26
ATOM     26  C   UNL     1       6.879   5.885  17.985  0.00  0.00    +0.000 C 
ATOM     27  C   UNL     1       7.338   5.707  19.444  0.00  0.00    +0.000 C 
ATOM     28  C   UNL     1       7.473   7.197  17.429  0.00  0.00    +0.000 C 
BRANCH  26  30
ATOM     29  C   UNL     1       7.026   4.745  15.644  0.00  0.00    +0.000 C 
ATOM     30  C   UNL     1       7.440   4.726  17.112  0.00  0.00    +0.000 C 
ENDBRANCH  26  30
ENDBRANCH  22  26
ENDBRANCH  21  23
ENDBRANCH   1  21
TORSDOF 7
ENDMDL
MODEL 2
REMARK VINA RESULT:      -6.8      2.709      8.382
REMARK  Name = 
REMARK  12 active torsions:
REMARK  status: ('A' for Active; 'I' for Inactive)
REMARK    1  A    between atoms: C_1  and  C_2
REMARK    2  A    between atoms: C_2  and  C_3
REMARK    3  A    between atoms: C_3  and  C_4
REMARK    4  A    between atoms: C_3  and  C_5
REMARK    5  A    between atoms: C_3  and  N_6
REMARK    6  A    between atoms: C_7  and  C_9
REMARK    7  A    between atoms: C_9  and  N_10
REMARK    8  A    between atoms: C_11  and  C_12
REMARK    9  A    between atoms: C_15  and  N_16
REMARK   10  A    between atoms: N_16  and  S_17
REMARK   11  A    between atoms: S_17  and  C_20
REMARK   12  A    between atoms: C_23  and  C_24
REMARK                            x       y       z     vdW  Elec       q    Type
REMARK                         _______ _______ _______ _____ _____    ______ ____
ROOT
ATOM      1  N   UNL     1       0.797  10.217  20.087  0.00  0.00    +0.000 N 
ATOM      2  C   UNL     1       0.470   9.508  21.254  0.00  0.00    +0.000 A 
ATOM      3  C   UNL     1      -0.313  10.155  22.365  0.00  0.00    +0.000 C 
ATOM      4  C   UNL     1       0.842   8.218  21.382  0.00  0.00    +0.000 A 
ATOM      5  C   UNL     1       1.527   7.523  20.326  0.00  0.00    +0.000 A 
ATOM      6  C   UNL     1       1.861   8.176  19.209  0.00  0.00    +0.000 A 
ATOM      7  C   UNL     1       1.483   9.616  19.019  0.00  0.00    +0.000 A 
ATOM      8  O   UNL     1       1.705  10.191  17.954  0.00  0.00    +0.000 OA
ENDROOT
BRANCH   6   9
ATOM      9  N   UNL     1       2.417   7.408  18.150  0.00  0.00    +0.000 N 
ATOM     10  H   UNL     1       1.842   7.294  17.317  0.00  0.00    +0.000 HD
BRANCH   9  11
ATOM     11  S   UNL     1       2.969   5.867  18.602  0.00  0.00    +0.000 S 
ATOM     12  O   UNL     1       3.697   5.967  19.851  0.00  0.00    +0.000 OA
ATOM     13  O   UNL     1       1.818   4.996  18.482  0.00  0.00    +0.000 OA
BRANCH  11  14
ATOM     14  C   UNL     1       4.094   5.444  17.309  0.00  0.00    +0.000 A 
ATOM     15  C   UNL     1       4.649   6.454  16.521  0.00  0.00    +0.000 A 
ATOM     16  C   UNL     1       5.458   6.111  15.438  0.00  0.00    +0.000 A 
ATOM     17  C   UNL     1       5.708   4.766  15.141  0.00  0.00    +0.000 A 
ATOM     18  C   UNL     1       6.499   4.383  13.924  0.00  0.00    +0.000 C 
ATOM     19  C   UNL     1       5.192   3.765  15.977  0.00  0.00    +0.000 A 
ATOM     20  C   UNL     1       4.384   4.101  17.064  0.00  0.00    +0.000 A 
ENDBRANCH  11  14
ENDBRANCH   9  11
ENDBRANCH   6   9
BRANCH   1  21
ATOM     21  C   UNL     1       0.429  11.629  19.921  0.00  0.00    +0.000 C 
BRANCH  21  23
ATOM     22  N   UNL     1      -1.570  10.758  18.757  0.00  0.00    +0.000 N 
ATOM     23  C   UNL     1      -0.749  11.854  18.964  0.00  0.00    +0.000 C 
ATOM     24  O   UNL     1      -0.892  12.929  18.385  0.00  0.00    +0.000 OA
ATOM     25  H   UNL     1      -1.296   9.896  19.223  0.00  0.00    +0.000 HD
BRANCH  22  26
ATOM     26  C   UNL     1      -2.739  10.739  17.861  0.00  0.00    +0.000 C 
ATOM     27  C   UNL     1      -3.804  11.761  18.301  0.00  0.00    +0.000 C 
ATOM     28  C   UNL     1      -3.371   9.331  17.851  0.00  0.00    +0.000 C 
BRANCH  26  30
ATOM     29  C   UNL     1      -3.093  10.358  15.305  0.00  0.00    +0.000 C 
ATOM     30  C   UNL     1      -2.288  11.046  16.403  0.00  0.00    +0.000 C 
ENDBRANCH  26  30
ENDBRANCH  22  26
ENDBRANCH  21  23
ENDBRANCH   1  21
TORSDOF 7
ENDMDL
MODEL 3
REMARK VINA RESULT:      -6.8      2.609      8.375
REMARK  Name = 
REMARK  12 active torsions:
REMARK  status: ('A' for Active; 'I' for Inactive)
REMARK    1  A    between atoms: C_1  and  C_2
REMARK    2  A    between atoms: C_2  and  C_3
REMARK    3  A    between atoms: C_3  and  C_4
REMARK    4  A    between atoms: C_3  and  C_5
REMARK    5  A    between atoms: C_3  and  N_6
REMARK    6  A    between atoms: C_7  and  C_9
REMARK    7  A    between atoms: C_9  and  N_10
REMARK    8  A    between atoms: C_11  and  C_12
REMARK    9  A    between atoms: C_15  and  N_16
REMARK   10  A    between atoms: N_16  and  S_17
REMARK   11  A    between atoms: S_17  and  C_20
REMARK   12  A    between atoms: C_23  and  C_24
REMARK                            x       y       z     vdW  Elec       q    Type
REMARK                         _______ _______ _______ _____ _____    ______ ____
ROOT
ATOM      1  N   UNL     1       1.862   8.158  19.649  0.00  0.00    +0.000 N 
ATOM      2  C   UNL     1       1.270   7.695  20.835  0.00  0.00    +0.000 A 
ATOM      3  C   UNL     1       0.486   8.620  21.727  0.00  0.00    +0.000 C 
ATOM      4  C   UNL     1       1.383   6.396  21.178  0.00  0.00    +0.000 A 
ATOM      5  C   UNL     1       2.056   5.449  20.331  0.00  0.00    +0.000 A 
ATOM      6  C   UNL     1       2.638   5.863  19.202  0.00  0.00    +0.000 A 
ATOM      7  C   UNL     1       2.554   7.301  18.778  0.00  0.00    +0.000 A 
ATOM      8  O   UNL     1       3.007   7.665  17.694  0.00  0.00    +0.000 OA
ENDROOT
BRANCH   6   9
ATOM      9  N   UNL     1       3.172   4.865  18.343  0.00  0.00    +0.000 N 
ATOM     10  H   UNL     1       2.615   4.023  18.219  0.00  0.00    +0.000 HD
BRANCH   9  11
ATOM     11  S   UNL     1       4.756   4.378  18.716  0.00  0.00    +0.000 S 
ATOM     12  O   UNL     1       5.364   5.358  19.592  0.00  0.00    +0.000 OA
ATOM     13  O   UNL     1       4.646   2.991  19.117  0.00  0.00    +0.000 OA
BRANCH  11  14
ATOM     14  C   UNL     1       5.571   4.415  17.150  0.00  0.00    +0.000 A 
ATOM     15  C   UNL     1       6.909   4.808  17.080  0.00  0.00    +0.000 A 
ATOM     16  C   UNL     1       7.521   4.933  15.833  0.00  0.00    +0.000 A 
ATOM     17  C   UNL     1       6.800   4.671  14.662  0.00  0.00    +0.000 A 
ATOM     18  C   UNL     1       7.420   4.892  13.313  0.00  0.00    +0.000 C 
ATOM     19  C   UNL     1       5.475   4.220  14.753  0.00  0.00    +0.000 A 
ATOM     20  C   UNL     1       4.856   4.090  15.996  0.00  0.00    +0.000 A 
ENDBRANCH  11  14
ENDBRANCH   9  11
ENDBRANCH   6   9
BRANCH   1  21
ATOM     21  C   UNL     1       1.780   9.570  19.252  0.00  0.00    +0.000 C 
BRANCH  21  23
ATOM     22  N   UNL     1      -0.357  10.808  19.164  0.00  0.00    +0.000 N 
ATOM     23  C   UNL     1       0.489   9.931  18.506  0.00  0.00    +0.000 C 
ATOM     24  O   UNL     1       0.221   9.411  17.425  0.00  0.00    +0.000 OA
ATOM     25  H   UNL     1      -0.069  11.100  20.095  0.00  0.00    +0.000 HD
BRANCH  22  26
ATOM     26  C   UNL     1      -1.659  11.269  18.648  0.00  0.00    +0.000 C 
ATOM     27  C   UNL     1      -1.488  12.158  17.402  0.00  0.00    +0.000 C 
ATOM     28  C   UNL     1      -2.402  12.071  19.737  0.00  0.00    +0.000 C 
BRANCH  26  30
ATOM     29  C   UNL     1      -3.154  10.041  16.899  0.00  0.00    +0.000 C 
ATOM     30  C   UNL     1      -2.549  10.041  18.300  0.00  0.00    +0.000 C 
ENDBRANCH  26  30
ENDBRANCH  22  26
ENDBRANCH  21  23
ENDBRANCH   1  21
TORSDOF 7
ENDMDL
MODEL 4
REMARK VINA RESULT:      -6.8      4.172      9.713
REMARK  Name = 
REMARK  12 active torsions:
REMARK  status: ('A' for Active; 'I' for Inactive)
REMARK    1  A    between atoms: C_1  and  C_2
REMARK    2  A    between atoms: C_2  and  C_3
REMARK    3  A    between atoms: C_3  and  C_4
REMARK    4  A    between atoms: C_3  and  C_5
REMARK    5  A    between atoms: C_3  and  N_6
REMARK    6  A    between atoms: C_7  and  C_9
REMARK    7  A    between atoms: C_9  and  N_10
REMARK    8  A    between atoms: C_11  and  C_12
REMARK    9  A    between atoms: C_15  and  N_16
REMARK   10  A    between atoms: N_16  and  S_17
REMARK   11  A    between atoms: S_17  and  C_20
REMARK   12  A    between atoms: C_23  and  C_24
REMARK                            x       y       z     vdW  Elec       q    Type
REMARK                         _______ _______ _______ _____ _____    ______ ____
ROOT
ATOM      1  N   UNL     1      -3.851  11.988  18.903  0.00  0.00    +0.000 N 
ATOM      2  C   UNL     1      -4.489  10.989  18.151  0.00  0.00    +0.000 A 
ATOM      3  C   UNL     1      -5.977  11.014  17.925  0.00  0.00    +0.000 C 
ATOM      4  C   UNL     1      -3.761   9.998  17.599  0.00  0.00    +0.000 A 
ATOM      5  C   UNL     1      -2.329   9.959  17.716  0.00  0.00    +0.000 A 
ATOM      6  C   UNL     1      -1.696  10.890  18.436  0.00  0.00    +0.000 A 
ATOM      7  C   UNL     1      -2.459  12.010  19.082  0.00  0.00    +0.000 A 
ATOM      8  O   UNL     1      -1.870  12.920  19.664  0.00  0.00    +0.000 OA
ENDROOT
BRANCH   6   9
ATOM      9  N   UNL     1      -0.275  10.879  18.408  0.00  0.00    +0.000 N 
ATOM     10  H   UNL     1       0.162  10.387  17.631  0.00  0.00    +0.000 HD
BRANCH   9  11
ATOM     11  S   UNL     1       0.460  10.330  19.837  0.00  0.00    +0.000 S 
ATOM     12  O   UNL     1       1.279  11.388  20.391  0.00  0.00    +0.000 OA
ATOM     13  O   UNL     1      -0.607   9.734  20.614  0.00  0.00    +0.000 OA
BRANCH  11  14
ATOM     14  C   UNL     1       1.505   9.021  19.278  0.00  0.00    +0.000 A 
ATOM     15  C   UNL     1       2.076   9.090  18.006  0.00  0.00    +0.000 A 
ATOM     16  C   UNL     1       2.818   8.011  17.529  0.00  0.00    +0.000 A 
ATOM     17  C   UNL     1       2.988   6.866  18.317  0.00  0.00    +0.000 A 
ATOM     18  C   UNL     1       3.706   5.663  17.778  0.00  0.00    +0.000 C 
ATOM     19  C   UNL     1       2.459   6.837  19.616  0.00  0.00    +0.000 A 
ATOM     20  C   UNL     1       1.717   7.913  20.101  0.00  0.00    +0.000 A 
ENDBRANCH  11  14
ENDBRANCH   9  11
ENDBRANCH   6   9
BRANCH   1  21
ATOM     21  C   UNL     1      -4.613  13.072  19.538  0.00  0.00    +0.000 C 
BRANCH  21  23
ATOM     22  N   UNL     1      -4.058  13.683  21.867  0.00  0.00    +0.000 N 
ATOM     23  C   UNL     1      -4.829  12.879  21.045  0.00  0.00    +0.000 C 
ATOM     24  O   UNL     1      -5.597  12.016  21.464  0.00  0.00    +0.000 OA
ATOM     25  H   UNL     1      -3.392  14.296  21.403  0.00  0.00    +0.000 HD
BRANCH  22  26
ATOM     26  C   UNL     1      -4.081  13.648  23.341  0.00  0.00    +0.000 C 
ATOM     27  C   UNL     1      -3.541  12.310  23.881  0.00  0.00    +0.000 C 
ATOM     28  C   UNL     1      -5.525  13.846  23.848  0.00  0.00    +0.000 C 
BRANCH  26  30
ATOM     29  C   UNL     1      -2.766  15.853  22.884  0.00  0.00    +0.000 C 
ATOM     30  C   UNL     1      -3.234  14.823  23.908  0.00  0.00    +0.000 C 
ENDBRANCH  26  30
ENDBRANCH  22  26
ENDBRANCH  21  23
ENDBRANCH   1  21
TORSDOF 7
ENDMDL
MODEL 5
REMARK VINA RESULT:      -6.7      3.201      4.742
REMARK  Name = 
REMARK  12 active torsions:
REMARK  status: ('A' for Active; 'I' for Inactive)
REMARK    1  A    between atoms: C_1  and  C_2
REMARK    2  A    between atoms: C_2  and  C_3
REMARK    3  A    between atoms: C_3  and  C_4
REMARK    4  A    between atoms: C_3  and  C_5
REMARK    5  A    between atoms: C_3  and  N_6
REMARK    6  A    between atoms: C_7  and  C_9
REMARK    7  A    between atoms: C_9  and  N_10
REMARK    8  A    between atoms: C_11  and  C_12
REMARK    9  A    between atoms: C_15  and  N_16
REMARK   10  A    between atoms: N_16  and  S_17
REMARK   11  A    between atoms: S_17  and  C_20
REMARK   12  A    between atoms: C_23  and  C_24
REMARK                            x       y       z     vdW  Elec       q    Type
REMARK                         _______ _______ _______ _____ _____    ______ ____
ROOT
ATOM      1  N   UNL     1       2.062   7.872  19.635  0.00  0.00    +0.000 N 
ATOM      2  C   UNL     1       2.439   8.173  18.316  0.00  0.00    +0.000 A 
ATOM      3  C   UNL     1       3.499   7.372  17.608  0.00  0.00    +0.000 C 
ATOM      4  C   UNL     1       1.833   9.181  17.658  0.00  0.00    +0.000 A 
ATOM      5  C   UNL     1       0.764   9.935  18.254  0.00  0.00    +0.000 A 
ATOM      6  C   UNL     1       0.391   9.678  19.511  0.00  0.00    +0.000 A 
ATOM      7  C   UNL     1       1.040   8.575  20.295  0.00  0.00    +0.000 A 
ATOM      8  O   UNL     1       0.634   8.274  21.416  0.00  0.00    +0.000 OA
ENDROOT
BRANCH   6   9
ATOM      9  N   UNL     1      -0.755  10.362  20.001  0.00  0.00    +0.000 N 
ATOM     10  H   UNL     1      -1.498  10.547  19.330  0.00  0.00    +0.000 HD
BRANCH   9  11
ATOM     11  S   UNL     1      -0.423  11.818  20.809  0.00  0.00    +0.000 S 
ATOM     12  O   UNL     1       0.615  11.594  21.793  0.00  0.00    +0.000 OA
ATOM     13  O   UNL     1      -0.255  12.807  19.764  0.00  0.00    +0.000 OA
BRANCH  11  14
ATOM     14  C   UNL     1      -1.940  12.176  21.639  0.00  0.00    +0.000 A 
ATOM     15  C   UNL     1      -2.981  12.788  20.938  0.00  0.00    +0.000 A 
ATOM     16  C   UNL     1      -4.139  13.160  21.619  0.00  0.00    +0.000 A 
ATOM     17  C   UNL     1      -4.257  12.925  22.995  0.00  0.00    +0.000 A 
ATOM     18  C   UNL     1      -5.458  13.404  23.755  0.00  0.00    +0.000 C 
ATOM     19  C   UNL     1      -3.227  12.256  23.672  0.00  0.00    +0.000 A 
ATOM     20  C   UNL     1      -2.066  11.878  22.997  0.00  0.00    +0.000 A 
ENDBRANCH  11  14
ENDBRANCH   9  11
ENDBRANCH   6   9
BRANCH   1  21
ATOM     21  C   UNL     1       2.714   6.795  20.392  0.00  0.00    +0.000 C 
BRANCH  21  23
ATOM     22  N   UNL     1       2.890   4.585  19.302  0.00  0.00    +0.000 N 
ATOM     23  C   UNL     1       2.129   5.404  20.120  0.00  0.00    +0.000 C 
ATOM     24  O   UNL     1       1.027   5.087  20.561  0.00  0.00    +0.000 OA
ATOM     25  H   UNL     1       3.742   4.992  18.924  0.00  0.00    +0.000 HD
BRANCH  22  26
ATOM     26  C   UNL     1       2.510   3.222  18.887  0.00  0.00    +0.000 C 
ATOM     27  C   UNL     1       1.170   3.218  18.127  0.00  0.00    +0.000 C 
ATOM     28  C   UNL     1       2.386   2.311  20.127  0.00  0.00    +0.000 C 
BRANCH  26  30
ATOM     29  C   UNL     1       4.312   3.596  17.039  0.00  0.00    +0.000 C 
ATOM     30  C   UNL     1       3.626   2.617  17.988  0.00  0.00    +0.000 C 
ENDBRANCH  26  30
ENDBRANCH  22  26
ENDBRANCH  21  23
ENDBRANCH   1  21
TORSDOF 7
ENDMDL
MODEL 6
REMARK VINA RESULT:      -6.6      0.410      1.131
REMARK  Name = 
REMARK  12 active torsions:
REMARK  status: ('A' for Active; 'I' for Inactive)
REMARK    1  A    between atoms: C_1  and  C_2
REMARK    2  A    between atoms: C_2  and  C_3
REMARK    3  A    between atoms: C_3  and  C_4
REMARK    4  A    between atoms: C_3  and  C_5
REMARK    5  A    between atoms: C_3  and  N_6
REMARK    6  A    between atoms: C_7  and  C_9
REMARK    7  A    between atoms: C_9  and  N_10
REMARK    8  A    between atoms: C_11  and  C_12
REMARK    9  A    between atoms: C_15  and  N_16
REMARK   10  A    between atoms: N_16  and  S_17
REMARK   11  A    between atoms: S_17  and  C_20
REMARK   12  A    between atoms: C_23  and  C_24
REMARK                            x       y       z     vdW  Elec       q    Type
REMARK                         _______ _______ _______ _____ _____    ______ ____
ROOT
ATOM      1  N   UNL     1       2.568   5.952  18.963  0.00  0.00    +0.000 N 
ATOM      2  C   UNL     1       2.049   5.407  20.147  0.00  0.00    +0.000 A 
ATOM      3  C   UNL     1       2.197   3.941  20.460  0.00  0.00    +0.000 C 
ATOM      4  C   UNL     1       1.423   6.205  21.036  0.00  0.00    +0.000 A 
ATOM      5  C   UNL     1       1.315   7.623  20.828  0.00  0.00    +0.000 A 
ATOM      6  C   UNL     1       1.790   8.168  19.705  0.00  0.00    +0.000 A 
ATOM      7  C   UNL     1       2.485   7.325  18.676  0.00  0.00    +0.000 A 
ATOM      8  O   UNL     1       3.007   7.839  17.688  0.00  0.00    +0.000 OA
ENDROOT
BRANCH   6   9
ATOM      9  N   UNL     1       1.773   9.587  19.615  0.00  0.00    +0.000 N 
ATOM     10  H   UNL     1       2.011  10.102  20.460  0.00  0.00    +0.000 HD
BRANCH   9  11
ATOM     11  S   UNL     1       0.330  10.244  19.007  0.00  0.00    +0.000 S 
ATOM     12  O   UNL     1       0.045   9.659  17.714  0.00  0.00    +0.000 OA
ATOM     13  O   UNL     1      -0.623  10.145  20.093  0.00  0.00    +0.000 OA
BRANCH  11  14
ATOM     14  C   UNL     1       0.721  11.953  18.796  0.00  0.00    +0.000 A 
ATOM     15  C   UNL     1       2.049  12.338  18.610  0.00  0.00    +0.000 A 
ATOM     16  C   UNL     1       2.367  13.695  18.544  0.00  0.00    +0.000 A 
ATOM     17  C   UNL     1       1.362  14.662  18.667  0.00  0.00    +0.000 A 
ATOM     18  C   UNL     1       1.703  16.124  18.691  0.00  0.00    +0.000 C 
ATOM     19  C   UNL     1       0.025  14.258  18.794  0.00  0.00    +0.000 A 
ATOM     20  C   UNL     1      -0.301  12.903  18.858  0.00  0.00    +0.000 A 
ENDBRANCH  11  14
ENDBRANCH   9  11
ENDBRANCH   6   9
BRANCH   1  21
ATOM     21  C   UNL     1       3.237   5.112  17.960  0.00  0.00    +0.000 C 
BRANCH  21  23
ATOM     22  N   UNL     1       5.602   5.818  17.858  0.00  0.00    +0.000 N 
ATOM     23  C   UNL     1       4.714   4.837  18.267  0.00  0.00    +0.000 C 
ATOM     24  O   UNL     1       5.063   3.780  18.787  0.00  0.00    +0.000 OA
ATOM     25  H   UNL     1       5.203   6.608  17.357  0.00  0.00    +0.000 HD
BRANCH  22  26
ATOM     26  C   UNL     1       7.066   5.752  18.025  0.00  0.00    +0.000 C 
ATOM     27  C   UNL     1       7.658   4.518  17.317  0.00  0.00    +0.000 C 
ATOM     28  C   UNL     1       7.421   5.686  19.526  0.00  0.00    +0.000 C 
BRANCH  26  30
ATOM     29  C   UNL     1       6.861   8.306  17.540  0.00  0.00    +0.000 C 
ATOM     30  C   UNL     1       7.718   7.046  17.459  0.00  0.00    +0.000 C 
ENDBRANCH  26  30
ENDBRANCH  22  26
ENDBRANCH  21  23
ENDBRANCH   1  21
TORSDOF 7
ENDMDL
MODEL 7
REMARK VINA RESULT:      -6.6      4.173      9.895
REMARK  Name = 
REMARK  12 active torsions:
REMARK  status: ('A' for Active; 'I' for Inactive)
REMARK    1  A    between atoms: C_1  and  C_2
REMARK    2  A    between atoms: C_2  and  C_3
REMARK    3  A    between atoms: C_3  and  C_4
REMARK    4  A    between atoms: C_3  and  C_5
REMARK    5  A    between atoms: C_3  and  N_6
REMARK    6  A    between atoms: C_7  and  C_9
REMARK    7  A    between atoms: C_9  and  N_10
REMARK    8  A    between atoms: C_11  and  C_12
REMARK    9  A    between atoms: C_15  and  N_16
REMARK   10  A    between atoms: N_16  and  S_17
REMARK   11  A    between atoms: S_17  and  C_20
REMARK   12  A    between atoms: C_23  and  C_24
REMARK                            x       y       z     vdW  Elec       q    Type
REMARK                         _______ _______ _______ _____ _____    ______ ____
ROOT
ATOM      1  N   UNL     1      -2.629  12.152  19.530  0.00  0.00    +0.000 N 
ATOM      2  C   UNL     1      -3.036  11.338  18.461  0.00  0.00    +0.000 A 
ATOM      3  C   UNL     1      -4.306  11.625  17.704  0.00  0.00    +0.000 C 
ATOM      4  C   UNL     1      -2.273  10.292  18.086  0.00  0.00    +0.000 A 
ATOM      5  C   UNL     1      -1.015  10.012  18.722  0.00  0.00    +0.000 A 
ATOM      6  C   UNL     1      -0.607  10.762  19.749  0.00  0.00    +0.000 A 
ATOM      7  C   UNL     1      -1.423  11.932  20.216  0.00  0.00    +0.000 A 
ATOM      8  O   UNL     1      -1.004  12.681  21.097  0.00  0.00    +0.000 OA
ENDROOT
BRANCH   6   9
ATOM      9  N   UNL     1       0.701  10.521  20.250  0.00  0.00    +0.000 N 
ATOM     10  H   UNL     1       1.451  10.471  19.564  0.00  0.00    +0.000 HD
BRANCH   9  11
ATOM     11  S   UNL     1       0.838   9.160  21.255  0.00  0.00    +0.000 S 
ATOM     12  O   UNL     1       1.737   9.461  22.350  0.00  0.00    +0.000 OA
ATOM     13  O   UNL     1      -0.522   8.731  21.509  0.00  0.00    +0.000 OA
BRANCH  11  14
ATOM     14  C   UNL     1       1.587   7.954  20.205  0.00  0.00    +0.000 A 
ATOM     15  C   UNL     1       1.721   6.639  20.653  0.00  0.00    +0.000 A 
ATOM     16  C   UNL     1       2.403   5.713  19.864  0.00  0.00    +0.000 A 
ATOM     17  C   UNL     1       2.950   6.099  18.635  0.00  0.00    +0.000 A 
ATOM     18  C   UNL     1       3.765   5.137  17.821  0.00  0.00    +0.000 C 
ATOM     19  C   UNL     1       2.755   7.409  18.172  0.00  0.00    +0.000 A 
ATOM     20  C   UNL     1       2.073   8.340  18.955  0.00  0.00    +0.000 A 
ENDBRANCH  11  14
ENDBRANCH   9  11
ENDBRANCH   6   9
BRANCH   1  21
ATOM     21  C   UNL     1      -3.444  13.288  19.982  0.00  0.00    +0.000 C 
BRANCH  21  23
ATOM     22  N   UNL     1      -3.791  13.815  22.371  0.00  0.00    +0.000 N 
ATOM     23  C   UNL     1      -4.187  13.032  21.300  0.00  0.00    +0.000 C 
ATOM     24  O   UNL     1      -5.031  12.143  21.384  0.00  0.00    +0.000 OA
ATOM     25  H   UNL     1      -3.019  14.455  22.201  0.00  0.00    +0.000 HD
BRANCH  22  26
ATOM     26  C   UNL     1      -4.347  13.721  23.733  0.00  0.00    +0.000 C 
ATOM     27  C   UNL     1      -3.681  14.733  24.685  0.00  0.00    +0.000 C 
ATOM     28  C   UNL     1      -4.137  12.297  24.290  0.00  0.00    +0.000 C 
BRANCH  26  30
ATOM     29  C   UNL     1      -6.750  12.844  24.242  0.00  0.00    +0.000 C 
ATOM     30  C   UNL     1      -5.882  13.972  23.692  0.00  0.00    +0.000 C 
ENDBRANCH  26  30
ENDBRANCH  22  26
ENDBRANCH  21  23
ENDBRANCH   1  21
TORSDOF 7
ENDMDL
MODEL 8
REMARK VINA RESULT:      -6.6      3.251      8.398
REMARK  Name = 
REMARK  12 active torsions:
REMARK  status: ('A' for Active; 'I' for Inactive)
REMARK    1  A    between atoms: C_1  and  C_2
REMARK    2  A    between atoms: C_2  and  C_3
REMARK    3  A    between atoms: C_3  and  C_4
REMARK    4  A    between atoms: C_3  and  C_5
REMARK    5  A    between atoms: C_3  and  N_6
REMARK    6  A    between atoms: C_7  and  C_9
REMARK    7  A    between atoms: C_9  and  N_10
REMARK    8  A    between atoms: C_11  and  C_12
REMARK    9  A    between atoms: C_15  and  N_16
REMARK   10  A    between atoms: N_16  and  S_17
REMARK   11  A    between atoms: S_17  and  C_20
REMARK   12  A    between atoms: C_23  and  C_24
REMARK                            x       y       z     vdW  Elec       q    Type
REMARK                         _______ _______ _______ _____ _____    ______ ____
ROOT
ATOM      1  N   UNL     1       3.108   4.417  19.430  0.00  0.00    +0.000 N 
ATOM      2  C   UNL     1       2.349   3.524  18.656  0.00  0.00    +0.000 A 
ATOM      3  C   UNL     1       0.902   3.254  18.974  0.00  0.00    +0.000 C 
ATOM      4  C   UNL     1       2.911   2.911  17.595  0.00  0.00    +0.000 A 
ATOM      5  C   UNL     1       4.265   3.184  17.197  0.00  0.00    +0.000 A 
ATOM      6  C   UNL     1       5.014   4.019  17.921  0.00  0.00    +0.000 A 
ATOM      7  C   UNL     1       4.443   4.721  19.119  0.00  0.00    +0.000 A 
ATOM      8  O   UNL     1       5.101   5.563  19.729  0.00  0.00    +0.000 OA
ENDROOT
BRANCH   6   9
ATOM      9  N   UNL     1       6.297   4.352  17.407  0.00  0.00    +0.000 N 
ATOM     10  H   UNL     1       7.037   4.504  18.089  0.00  0.00    +0.000 HD
BRANCH   9  11
ATOM     11  S   UNL     1       6.314   5.668  16.334  0.00  0.00    +0.000 S 
ATOM     12  O   UNL     1       5.013   6.304  16.335  0.00  0.00    +0.000 OA
ATOM     13  O   UNL     1       7.507   6.419  16.665  0.00  0.00    +0.000 OA
BRANCH  11  14
ATOM     14  C   UNL     1       6.585   4.906  14.764  0.00  0.00    +0.000 A 
ATOM     15  C   UNL     1       7.624   5.359  13.949  0.00  0.00    +0.000 A 
ATOM     16  C   UNL     1       7.774   4.825  12.669  0.00  0.00    +0.000 A 
ATOM     17  C   UNL     1       6.888   3.846  12.204  0.00  0.00    +0.000 A 
ATOM     18  C   UNL     1       6.981   3.332  10.798  0.00  0.00    +0.000 C 
ATOM     19  C   UNL     1       5.885   3.360  13.057  0.00  0.00    +0.000 A 
ATOM     20  C   UNL     1       5.731   3.887  14.339  0.00  0.00    +0.000 A 
ENDBRANCH  11  14
ENDBRANCH   9  11
ENDBRANCH   6   9
BRANCH   1  21
ATOM     21  C   UNL     1       2.538   5.088  20.606  0.00  0.00    +0.000 C 
BRANCH  21  23
ATOM     22  N   UNL     1       1.445   7.158  21.396  0.00  0.00    +0.000 N 
ATOM     23  C   UNL     1       2.055   6.518  20.331  0.00  0.00    +0.000 C 
ATOM     24  O   UNL     1       2.163   7.013  19.211  0.00  0.00    +0.000 OA
ATOM     25  H   UNL     1       1.333   6.612  22.247  0.00  0.00    +0.000 HD
BRANCH  22  26
ATOM     26  C   UNL     1       0.883   8.520  21.350  0.00  0.00    +0.000 C 
ATOM     27  C   UNL     1       1.537   9.436  22.402  0.00  0.00    +0.000 C 
ATOM     28  C   UNL     1      -0.638   8.470  21.606  0.00  0.00    +0.000 C 
BRANCH  26  30
ATOM     29  C   UNL     1       0.092  10.207  19.525  0.00  0.00    +0.000 C 
ATOM     30  C   UNL     1       1.086   9.123  19.930  0.00  0.00    +0.000 C 
ENDBRANCH  26  30
ENDBRANCH  22  26
ENDBRANCH  21  23
ENDBRANCH   1  21
TORSDOF 7
ENDMDL
MODEL 9
REMARK VINA RESULT:      -6.6      3.348      4.955
REMARK  Name = 
REMARK  12 active torsions:
REMARK  status: ('A' for Active; 'I' for Inactive)
REMARK    1  A    between atoms: C_1  and  C_2
REMARK    2  A    between atoms: C_2  and  C_3
REMARK    3  A    between atoms: C_3  and  C_4
REMARK    4  A    between atoms: C_3  and  C_5
REMARK    5  A    between atoms: C_3  and  N_6
REMARK    6  A    between atoms: C_7  and  C_9
REMARK    7  A    between atoms: C_9  and  N_10
REMARK    8  A    between atoms: C_11  and  C_12
REMARK    9  A    between atoms: C_15  and  N_16
REMARK   10  A    between atoms: N_16  and  S_17
REMARK   11  A    between atoms: S_17  and  C_20
REMARK   12  A    between atoms: C_23  and  C_24
REMARK                            x       y       z     vdW  Elec       q    Type
REMARK                         _______ _______ _______ _____ _____    ______ ____
ROOT
ATOM      1  N   UNL     1       2.021   7.813  19.644  0.00  0.00    +0.000 N 
ATOM      2  C   UNL     1       2.457   8.093  18.338  0.00  0.00    +0.000 A 
ATOM      3  C   UNL     1       3.511   7.250  17.672  0.00  0.00    +0.000 C 
ATOM      4  C   UNL     1       1.912   9.119  17.655  0.00  0.00    +0.000 A 
ATOM      5  C   UNL     1       0.851   9.915  18.210  0.00  0.00    +0.000 A 
ATOM      6  C   UNL     1       0.424   9.679  19.453  0.00  0.00    +0.000 A 
ATOM      7  C   UNL     1       1.003   8.556  20.264  0.00  0.00    +0.000 A 
ATOM      8  O   UNL     1       0.546   8.277  21.371  0.00  0.00    +0.000 OA
ENDROOT
BRANCH   6   9
ATOM      9  N   UNL     1      -0.713  10.407  19.899  0.00  0.00    +0.000 N 
ATOM     10  H   UNL     1      -1.410  10.641  19.195  0.00  0.00    +0.000 HD
BRANCH   9  11
ATOM     11  S   UNL     1      -0.355  11.829  20.754  0.00  0.00    +0.000 S 
ATOM     12  O   UNL     1       0.691  11.559  21.718  0.00  0.00    +0.000 OA
ATOM     13  O   UNL     1      -0.188  12.853  19.744  0.00  0.00    +0.000 OA
BRANCH  11  14
ATOM     14  C   UNL     1      -1.859  12.173  21.615  0.00  0.00    +0.000 A 
ATOM     15  C   UNL     1      -2.906  12.810  20.945  0.00  0.00    +0.000 A 
ATOM     16  C   UNL     1      -4.052  13.170  21.652  0.00  0.00    +0.000 A 
ATOM     17  C   UNL     1      -4.153  12.899  23.022  0.00  0.00    +0.000 A 
ATOM     18  C   UNL     1      -5.341  13.364  23.811  0.00  0.00    +0.000 C 
ATOM     19  C   UNL     1      -3.117  12.205  23.667  0.00  0.00    +0.000 A 
ATOM     20  C   UNL     1      -1.968  11.840  22.966  0.00  0.00    +0.000 A 
ENDBRANCH  11  14
ENDBRANCH   9  11
ENDBRANCH   6   9
BRANCH   1  21
ATOM     21  C   UNL     1       2.605   6.717  20.428  0.00  0.00    +0.000 C 
BRANCH  21  23
ATOM     22  N   UNL     1       2.897   4.380  19.681  0.00  0.00    +0.000 N 
ATOM     23  C   UNL     1       2.001   5.341  20.117  0.00  0.00    +0.000 C 
ATOM     24  O   UNL     1       0.789   5.153  20.201  0.00  0.00    +0.000 OA
ATOM     25  H   UNL     1       3.861   4.681  19.565  0.00  0.00    +0.000 HD
BRANCH  22  26
ATOM     26  C   UNL     1       2.534   3.002  19.301  0.00  0.00    +0.000 C 
ATOM     27  C   UNL     1       3.784   2.128  19.090  0.00  0.00    +0.000 C 
ATOM     28  C   UNL     1       1.708   3.017  17.997  0.00  0.00    +0.000 C 
BRANCH  26  30
ATOM     29  C   UNL     1       2.175   2.461  21.826  0.00  0.00    +0.000 C 
ATOM     30  C   UNL     1       1.633   2.374  20.403  0.00  0.00    +0.000 C 
ENDBRANCH  26  30
ENDBRANCH  22  26
ENDBRANCH  21  23
ENDBRANCH   1  21
TORSDOF 7
ENDMDL
