MODEL 1
REMARK VINA RESULT:      -8.8      0.000      0.000
REMARK  Name = 
REMARK  4 active torsions:
REMARK  status: ('A' for Active; 'I' for Inactive)
REMARK    1  A    between atoms: C_2  and  C_3
REMARK    2  A    between atoms: C_2  and  C_12
REMARK    3  A    between atoms: C_4  and  C_5
REMARK    4  A    between atoms: C_21  and  O_22
REMARK                            x       y       z     vdW  Elec       q    Type
REMARK                         _______ _______ _______ _____ _____    ______ ____
ROOT
ATOM      1  C   UNL     1       5.887   6.155  17.650  0.00  0.00    +0.000 A 
ATOM      2  C   UNL     1       4.768   6.952  17.389  0.00  0.00    +0.000 A 
ATOM      3  C   UNL     1       3.497   6.522  17.775  0.00  0.00    +0.000 A 
ATOM      4  C   UNL     1       3.314   5.290  18.418  0.00  0.00    +0.000 A 
ATOM      5  C   UNL     1       2.028   4.877  18.805  0.00  0.00    +0.000 A 
ATOM      6  C   UNL     1       1.827   3.654  19.443  0.00  0.00    +0.000 A 
ATOM      7  C   UNL     1       2.910   2.828  19.712  0.00  0.00    +0.000 A 
ATOM      8  C   UNL     1       4.195   3.225  19.340  0.00  0.00    +0.000 A 
ATOM      9  C   UNL     1       4.430   4.455  18.677  0.00  0.00    +0.000 A 
ATOM     10  C   UNL     1       5.712   4.903  18.266  0.00  0.00    +0.000 A 
ENDROOT
BRANCH   1  12
ATOM     11  O   UNL     1       7.712   6.255  16.156  0.00  0.00    +0.000 OA
ATOM     12  C   UNL     1       7.209   6.665  17.196  0.00  0.00    +0.000 C 
BRANCH  12  13
ATOM     13  C   UNL     1       7.851   7.728  18.013  0.00  0.00    +0.000 C 
ATOM     14  C   UNL     1       7.923   8.988  17.562  0.00  0.00    +0.000 C 
BRANCH  14  15
ATOM     15  C   UNL     1       8.585  10.071  18.304  0.00  0.00    +0.000 A 
ATOM     16  C   UNL     1       9.189   9.866  19.555  0.00  0.00    +0.000 A 
ATOM     17  C   UNL     1       9.801  10.925  20.231  0.00  0.00    +0.000 A 
ATOM     18  C   UNL     1       9.823  12.185  19.647  0.00  0.00    +0.000 A 
ATOM     19  F   UNL     1      10.399  13.203  20.300  0.00  0.00    +0.000 F 
ATOM     20  C   UNL     1       9.260  12.404  18.396  0.00  0.00    +0.000 A 
ATOM     21  C   UNL     1       8.648  11.344  17.722  0.00  0.00    +0.000 A 
ENDBRANCH  14  15
ENDBRANCH  12  13
ENDBRANCH   1  12
BRANCH  10  22
ATOM     22  O   UNL     1       6.814   4.099  18.440  0.00  0.00    +0.000 OA
ATOM     23  H   UNL     1       6.517   3.202  18.662  0.00  0.00    +0.000 HD
ENDBRANCH  10  22
TORSDOF 4
ENDMDL
MODEL 2
REMARK VINA RESULT:      -8.8      0.079      1.033
REMARK  Name = 
REMARK  4 active torsions:
REMARK  status: ('A' for Active; 'I' for Inactive)
REMARK    1  A    between atoms: C_2  and  C_3
REMARK    2  A    between atoms: C_2  and  C_12
REMARK    3  A    between atoms: C_4  and  C_5
REMARK    4  A    between atoms: C_21  and  O_22
REMARK                            x       y       z     vdW  Elec       q    Type
REMARK                         _______ _______ _______ _____ _____    ______ ____
ROOT
ATOM      1  C   UNL     1       5.885   6.135  17.672  0.00  0.00    +0.000 A 
ATOM      2  C   UNL     1       4.752   6.919  17.435  0.00  0.00    +0.000 A 
ATOM      3  C   UNL     1       3.492   6.466  17.827  0.00  0.00    +0.000 A 
ATOM      4  C   UNL     1       3.333   5.223  18.455  0.00  0.00    +0.000 A 
ATOM      5  C   UNL     1       2.057   4.787  18.850  0.00  0.00    +0.000 A 
ATOM      6  C   UNL     1       1.880   3.552  19.473  0.00  0.00    +0.000 A 
ATOM      7  C   UNL     1       2.978   2.738  19.718  0.00  0.00    +0.000 A 
ATOM      8  C   UNL     1       4.253   3.158  19.338  0.00  0.00    +0.000 A 
ATOM      9  C   UNL     1       4.463   4.400  18.691  0.00  0.00    +0.000 A 
ATOM     10  C   UNL     1       5.734   4.872  18.272  0.00  0.00    +0.000 A 
ENDROOT
BRANCH   1  12
ATOM     11  O   UNL     1       7.705   6.262  16.173  0.00  0.00    +0.000 OA
ATOM     12  C   UNL     1       7.195   6.670  17.211  0.00  0.00    +0.000 C 
BRANCH  12  13
ATOM     13  C   UNL     1       7.814   7.753  18.018  0.00  0.00    +0.000 C 
ATOM     14  C   UNL     1       7.952   8.988  17.514  0.00  0.00    +0.000 C 
BRANCH  14  15
ATOM     15  C   UNL     1       8.598  10.087  18.247  0.00  0.00    +0.000 A 
ATOM     16  C   UNL     1       8.632  11.402  17.754  0.00  0.00    +0.000 A 
ATOM     17  C   UNL     1       9.263  12.417  18.478  0.00  0.00    +0.000 A 
ATOM     18  C   UNL     1       9.847  12.120  19.703  0.00  0.00    +0.000 A 
ATOM     19  F   UNL     1      10.463  13.089  20.391  0.00  0.00    +0.000 F 
ATOM     20  C   UNL     1       9.797  10.833  20.225  0.00  0.00    +0.000 A 
ATOM     21  C   UNL     1       9.165   9.819  19.500  0.00  0.00    +0.000 A 
ENDBRANCH  14  15
ENDBRANCH  12  13
ENDBRANCH   1  12
BRANCH  10  22
ATOM     22  O   UNL     1       6.849   4.081  18.423  0.00  0.00    +0.000 OA
ATOM     23  H   UNL     1       7.020   3.955  19.370  0.00  0.00    +0.000 HD
ENDBRANCH  10  22
TORSDOF 4
ENDMDL
MODEL 3
REMARK VINA RESULT:      -8.2      5.888      8.724
REMARK  Name = 
REMARK  4 active torsions:
REMARK  status: ('A' for Active; 'I' for Inactive)
REMARK    1  A    between atoms: C_2  and  C_3
REMARK    2  A    between atoms: C_2  and  C_12
REMARK    3  A    between atoms: C_4  and  C_5
REMARK    4  A    between atoms: C_21  and  O_22
REMARK                            x       y       z     vdW  Elec       q    Type
REMARK                         _______ _______ _______ _____ _____    ______ ____
ROOT
ATOM      1  C   UNL     1       1.292   8.990  19.514  0.00  0.00    +0.000 A 
ATOM      2  C   UNL     1       1.481   8.318  20.725  0.00  0.00    +0.000 A 
ATOM      3  C   UNL     1       0.826   8.754  21.877  0.00  0.00    +0.000 A 
ATOM      4  C   UNL     1      -0.023   9.870  21.849  0.00  0.00    +0.000 A 
ATOM      5  C   UNL     1      -0.679  10.289  23.018  0.00  0.00    +0.000 A 
ATOM      6  C   UNL     1      -1.525  11.398  23.009  0.00  0.00    +0.000 A 
ATOM      7  C   UNL     1      -1.733  12.099  21.830  0.00  0.00    +0.000 A 
ATOM      8  C   UNL     1      -1.094  11.692  20.658  0.00  0.00    +0.000 A 
ATOM      9  C   UNL     1      -0.218  10.579  20.638  0.00  0.00    +0.000 A 
ATOM     10  C   UNL     1       0.468  10.129  19.480  0.00  0.00    +0.000 A 
ENDROOT
BRANCH   1  12
ATOM     11  O   UNL     1       2.207   9.200  17.347  0.00  0.00    +0.000 OA
ATOM     12  C   UNL     1       2.035   8.483  18.328  0.00  0.00    +0.000 C 
BRANCH  12  13
ATOM     13  C   UNL     1       2.609   7.116  18.412  0.00  0.00    +0.000 C 
ATOM     14  C   UNL     1       1.967   6.070  17.873  0.00  0.00    +0.000 C 
BRANCH  14  15
ATOM     15  C   UNL     1       2.462   4.689  17.964  0.00  0.00    +0.000 A 
ATOM     16  C   UNL     1       3.726   4.308  17.484  0.00  0.00    +0.000 A 
ATOM     17  C   UNL     1       4.155   2.983  17.583  0.00  0.00    +0.000 A 
ATOM     18  C   UNL     1       3.326   2.040  18.177  0.00  0.00    +0.000 A 
ATOM     19  F   UNL     1       3.731   0.766  18.260  0.00  0.00    +0.000 F 
ATOM     20  C   UNL     1       2.085   2.399  18.687  0.00  0.00    +0.000 A 
ATOM     21  C   UNL     1       1.657   3.725  18.587  0.00  0.00    +0.000 A 
ENDBRANCH  14  15
ENDBRANCH  12  13
ENDBRANCH   1  12
BRANCH  10  22
ATOM     22  O   UNL     1       0.358  10.824  18.298  0.00  0.00    +0.000 OA
ATOM     23  H   UNL     1       1.239  10.911  17.901  0.00  0.00    +0.000 HD
ENDBRANCH  10  22
TORSDOF 4
ENDMDL
MODEL 4
REMARK VINA RESULT:      -8.1      1.009      1.441
REMARK  Name = 
REMARK  4 active torsions:
REMARK  status: ('A' for Active; 'I' for Inactive)
REMARK    1  A    between atoms: C_2  and  C_3
REMARK    2  A    between atoms: C_2  and  C_12
REMARK    3  A    between atoms: C_4  and  C_5
REMARK    4  A    between atoms: C_21  and  O_22
REMARK                            x       y       z     vdW  Elec       q    Type
REMARK                         _______ _______ _______ _____ _____    ______ ____
ROOT
ATOM      1  C   UNL     1       5.614   5.896  17.369  0.00  0.00    +0.000 A 
ATOM      2  C   UNL     1       4.706   6.871  17.790  0.00  0.00    +0.000 A 
ATOM      3  C   UNL     1       3.404   6.510  18.141  0.00  0.00    +0.000 A 
ATOM      4  C   UNL     1       2.979   5.176  18.071  0.00  0.00    +0.000 A 
ATOM      5  C   UNL     1       1.667   4.831  18.435  0.00  0.00    +0.000 A 
ATOM      6  C   UNL     1       1.226   3.510  18.370  0.00  0.00    +0.000 A 
ATOM      7  C   UNL     1       2.093   2.513  17.947  0.00  0.00    +0.000 A 
ATOM      8  C   UNL     1       3.402   2.836  17.587  0.00  0.00    +0.000 A 
ATOM      9  C   UNL     1       3.875   4.171  17.629  0.00  0.00    +0.000 A 
ATOM     10  C   UNL     1       5.190   4.559  17.264  0.00  0.00    +0.000 A 
ENDROOT
BRANCH   1  12
ATOM     11  O   UNL     1       7.770   5.580  16.460  0.00  0.00    +0.000 OA
ATOM     12  C   UNL     1       6.980   6.352  16.992  0.00  0.00    +0.000 C 
BRANCH  12  13
ATOM     13  C   UNL     1       7.314   7.780  17.226  0.00  0.00    +0.000 C 
ATOM     14  C   UNL     1       8.270   8.125  18.100  0.00  0.00    +0.000 C 
BRANCH  14  15
ATOM     15  C   UNL     1       8.613   9.521  18.408  0.00  0.00    +0.000 A 
ATOM     16  C   UNL     1       8.320  10.579  17.531  0.00  0.00    +0.000 A 
ATOM     17  C   UNL     1       8.670  11.891  17.858  0.00  0.00    +0.000 A 
ATOM     18  C   UNL     1       9.300  12.148  19.069  0.00  0.00    +0.000 A 
ATOM     19  F   UNL     1       9.647  13.405  19.377  0.00  0.00    +0.000 F 
ATOM     20  C   UNL     1       9.571  11.122  19.965  0.00  0.00    +0.000 A 
ATOM     21  C   UNL     1       9.220   9.810  19.638  0.00  0.00    +0.000 A 
ENDBRANCH  14  15
ENDBRANCH  12  13
ENDBRANCH   1  12
BRANCH  10  22
ATOM     22  O   UNL     1       6.073   3.628  16.770  0.00  0.00    +0.000 OA
ATOM     23  H   UNL     1       6.943   3.772  17.176  0.00  0.00    +0.000 HD
ENDBRANCH  10  22
TORSDOF 4
ENDMDL
MODEL 5
REMARK VINA RESULT:      -8.1      4.742      5.934
REMARK  Name = 
REMARK  4 active torsions:
REMARK  status: ('A' for Active; 'I' for Inactive)
REMARK    1  A    between atoms: C_2  and  C_3
REMARK    2  A    between atoms: C_2  and  C_12
REMARK    3  A    between atoms: C_4  and  C_5
REMARK    4  A    between atoms: C_21  and  O_22
REMARK                            x       y       z     vdW  Elec       q    Type
REMARK                         _______ _______ _______ _____ _____    ______ ____
ROOT
ATOM      1  C   UNL     1       5.282   5.026  18.936  0.00  0.00    +0.000 A 
ATOM      2  C   UNL     1       4.480   6.160  18.787  0.00  0.00    +0.000 A 
ATOM      3  C   UNL     1       3.132   6.117  19.146  0.00  0.00    +0.000 A 
ATOM      4  C   UNL     1       2.554   4.944  19.652  0.00  0.00    +0.000 A 
ATOM      5  C   UNL     1       1.198   4.922  20.014  0.00  0.00    +0.000 A 
ATOM      6  C   UNL     1       0.606   3.763  20.516  0.00  0.00    +0.000 A 
ATOM      7  C   UNL     1       1.365   2.611  20.670  0.00  0.00    +0.000 A 
ATOM      8  C   UNL     1       2.716   2.617  20.321  0.00  0.00    +0.000 A 
ATOM      9  C   UNL     1       3.342   3.774  19.795  0.00  0.00    +0.000 A 
ATOM     10  C   UNL     1       4.707   3.834  19.413  0.00  0.00    +0.000 A 
ENDROOT
BRANCH   1  12
ATOM     11  O   UNL     1       7.605   5.110  19.352  0.00  0.00    +0.000 OA
ATOM     12  C   UNL     1       6.706   5.135  18.518  0.00  0.00    +0.000 C 
BRANCH  12  13
ATOM     13  C   UNL     1       6.988   5.207  17.061  0.00  0.00    +0.000 C 
ATOM     14  C   UNL     1       6.326   4.424  16.197  0.00  0.00    +0.000 C 
BRANCH  14  15
ATOM     15  C   UNL     1       6.593   4.417  14.751  0.00  0.00    +0.000 A 
ATOM     16  C   UNL     1       5.879   3.602  13.857  0.00  0.00    +0.000 A 
ATOM     17  C   UNL     1       6.170   3.620  12.491  0.00  0.00    +0.000 A 
ATOM     18  C   UNL     1       7.164   4.465  12.016  0.00  0.00    +0.000 A 
ATOM     19  F   UNL     1       7.452   4.473  10.708  0.00  0.00    +0.000 F 
ATOM     20  C   UNL     1       7.862   5.304  12.877  0.00  0.00    +0.000 A 
ATOM     21  C   UNL     1       7.570   5.285  14.243  0.00  0.00    +0.000 A 
ENDBRANCH  14  15
ENDBRANCH  12  13
ENDBRANCH   1  12
BRANCH  10  22
ATOM     22  O   UNL     1       5.492   2.706  19.476  0.00  0.00    +0.000 OA
ATOM     23  H   UNL     1       4.924   1.923  19.410  0.00  0.00    +0.000 HD
ENDBRANCH  10  22
TORSDOF 4
ENDMDL
MODEL 6
REMARK VINA RESULT:      -8.0      4.733      5.920
REMARK  Name = 
REMARK  4 active torsions:
REMARK  status: ('A' for Active; 'I' for Inactive)
REMARK    1  A    between atoms: C_2  and  C_3
REMARK    2  A    between atoms: C_2  and  C_12
REMARK    3  A    between atoms: C_4  and  C_5
REMARK    4  A    between atoms: C_21  and  O_22
REMARK                            x       y       z     vdW  Elec       q    Type
REMARK                         _______ _______ _______ _____ _____    ______ ____
ROOT
ATOM      1  C   UNL     1       5.283   5.046  19.059  0.00  0.00    +0.000 A 
ATOM      2  C   UNL     1       4.474   6.180  18.943  0.00  0.00    +0.000 A 
ATOM      3  C   UNL     1       3.116   6.106  19.256  0.00  0.00    +0.000 A 
ATOM      4  C   UNL     1       2.535   4.903  19.682  0.00  0.00    +0.000 A 
ATOM      5  C   UNL     1       1.168   4.850  19.999  0.00  0.00    +0.000 A 
ATOM      6  C   UNL     1       0.573   3.662  20.422  0.00  0.00    +0.000 A 
ATOM      7  C   UNL     1       1.339   2.510  20.541  0.00  0.00    +0.000 A 
ATOM      8  C   UNL     1       2.700   2.546  20.235  0.00  0.00    +0.000 A 
ATOM      9  C   UNL     1       3.330   3.734  19.790  0.00  0.00    +0.000 A 
ATOM     10  C   UNL     1       4.705   3.826  19.455  0.00  0.00    +0.000 A 
ENDROOT
BRANCH   1  12
ATOM     11  O   UNL     1       7.582   5.238  19.561  0.00  0.00    +0.000 OA
ATOM     12  C   UNL     1       6.718   5.190  18.692  0.00  0.00    +0.000 C 
BRANCH  12  13
ATOM     13  C   UNL     1       7.057   5.203  17.246  0.00  0.00    +0.000 C 
ATOM     14  C   UNL     1       6.259   4.603  16.351  0.00  0.00    +0.000 C 
BRANCH  14  15
ATOM     15  C   UNL     1       6.565   4.543  14.914  0.00  0.00    +0.000 A 
ATOM     16  C   UNL     1       7.595   5.299  14.331  0.00  0.00    +0.000 A 
ATOM     17  C   UNL     1       7.848   5.219  12.960  0.00  0.00    +0.000 A 
ATOM     18  C   UNL     1       7.081   4.370  12.173  0.00  0.00    +0.000 A 
ATOM     19  F   UNL     1       7.315   4.302  10.856  0.00  0.00    +0.000 F 
ATOM     20  C   UNL     1       6.078   3.588  12.733  0.00  0.00    +0.000 A 
ATOM     21  C   UNL     1       5.826   3.669  14.104  0.00  0.00    +0.000 A 
ENDBRANCH  14  15
ENDBRANCH  12  13
ENDBRANCH   1  12
BRANCH  10  22
ATOM     22  O   UNL     1       5.500   2.704  19.484  0.00  0.00    +0.000 OA
ATOM     23  H   UNL     1       6.380   2.932  19.145  0.00  0.00    +0.000 HD
ENDBRANCH  10  22
TORSDOF 4
ENDMDL
MODEL 7
REMARK VINA RESULT:      -8.0      0.968      1.985
REMARK  Name = 
REMARK  4 active torsions:
REMARK  status: ('A' for Active; 'I' for Inactive)
REMARK    1  A    between atoms: C_2  and  C_3
REMARK    2  A    between atoms: C_2  and  C_12
REMARK    3  A    between atoms: C_4  and  C_5
REMARK    4  A    between atoms: C_21  and  O_22
REMARK                            x       y       z     vdW  Elec       q    Type
REMARK                         _______ _______ _______ _____ _____    ______ ____
ROOT
ATOM      1  C   UNL     1       6.193   5.967  17.930  0.00  0.00    +0.000 A 
ATOM      2  C   UNL     1       6.497   5.232  19.079  0.00  0.00    +0.000 A 
ATOM      3  C   UNL     1       5.511   4.470  19.705  0.00  0.00    +0.000 A 
ATOM      4  C   UNL     1       4.201   4.430  19.206  0.00  0.00    +0.000 A 
ATOM      5  C   UNL     1       3.223   3.652  19.847  0.00  0.00    +0.000 A 
ATOM      6  C   UNL     1       1.914   3.603  19.366  0.00  0.00    +0.000 A 
ATOM      7  C   UNL     1       1.567   4.326  18.233  0.00  0.00    +0.000 A 
ATOM      8  C   UNL     1       2.528   5.100  17.581  0.00  0.00    +0.000 A 
ATOM      9  C   UNL     1       3.861   5.181  18.053  0.00  0.00    +0.000 A 
ATOM     10  C   UNL     1       4.875   5.960  17.438  0.00  0.00    +0.000 A 
ENDROOT
BRANCH   1  12
ATOM     11  O   UNL     1       7.671   6.541  16.181  0.00  0.00    +0.000 OA
ATOM     12  C   UNL     1       7.287   6.772  17.322  0.00  0.00    +0.000 C 
BRANCH  12  13
ATOM     13  C   UNL     1       7.838   7.895  18.125  0.00  0.00    +0.000 C 
ATOM     14  C   UNL     1       8.110   9.076  17.552  0.00  0.00    +0.000 C 
BRANCH  14  15
ATOM     15  C   UNL     1       8.698  10.207  18.283  0.00  0.00    +0.000 A 
ATOM     16  C   UNL     1       8.663  11.523  17.791  0.00  0.00    +0.000 A 
ATOM     17  C   UNL     1       9.241  12.569  18.513  0.00  0.00    +0.000 A 
ATOM     18  C   UNL     1       9.841  12.302  19.738  0.00  0.00    +0.000 A 
ATOM     19  F   UNL     1      10.406  13.303  20.425  0.00  0.00    +0.000 F 
ATOM     20  C   UNL     1       9.860  11.015  20.259  0.00  0.00    +0.000 A 
ATOM     21  C   UNL     1       9.281   9.970  19.536  0.00  0.00    +0.000 A 
ENDBRANCH  14  15
ENDBRANCH  12  13
ENDBRANCH   1  12
BRANCH  10  22
ATOM     22  O   UNL     1       4.575   6.753  16.355  0.00  0.00    +0.000 OA
ATOM     23  H   UNL     1       4.482   6.191  15.570  0.00  0.00    +0.000 HD
ENDBRANCH  10  22
TORSDOF 4
ENDMDL
MODEL 8
REMARK VINA RESULT:      -8.0      1.086      1.789
REMARK  Name = 
REMARK  4 active torsions:
REMARK  status: ('A' for Active; 'I' for Inactive)
REMARK    1  A    between atoms: C_2  and  C_3
REMARK    2  A    between atoms: C_2  and  C_12
REMARK    3  A    between atoms: C_4  and  C_5
REMARK    4  A    between atoms: C_21  and  O_22
REMARK                            x       y       z     vdW  Elec       q    Type
REMARK                         _______ _______ _______ _____ _____    ______ ____
ROOT
ATOM      1  C   UNL     1       6.252   6.091  17.961  0.00  0.00    +0.000 A 
ATOM      2  C   UNL     1       6.539   5.317  19.089  0.00  0.00    +0.000 A 
ATOM      3  C   UNL     1       5.522   4.610  19.731  0.00  0.00    +0.000 A 
ATOM      4  C   UNL     1       4.199   4.666  19.270  0.00  0.00    +0.000 A 
ATOM      5  C   UNL     1       3.190   3.943  19.925  0.00  0.00    +0.000 A 
ATOM      6  C   UNL     1       1.868   3.988  19.482  0.00  0.00    +0.000 A 
ATOM      7  C   UNL     1       1.538   4.753  18.371  0.00  0.00    +0.000 A 
ATOM      8  C   UNL     1       2.530   5.474  17.704  0.00  0.00    +0.000 A 
ATOM      9  C   UNL     1       3.878   5.459  18.139  0.00  0.00    +0.000 A 
ATOM     10  C   UNL     1       4.924   6.180  17.508  0.00  0.00    +0.000 A 
ENDROOT
BRANCH   1  12
ATOM     11  O   UNL     1       7.661   6.662  16.154  0.00  0.00    +0.000 OA
ATOM     12  C   UNL     1       7.381   6.833  17.336  0.00  0.00    +0.000 C 
BRANCH  12  13
ATOM     13  C   UNL     1       8.098   7.825  18.178  0.00  0.00    +0.000 C 
ATOM     14  C   UNL     1       8.237   9.095  17.770  0.00  0.00    +0.000 C 
BRANCH  14  15
ATOM     15  C   UNL     1       8.975  10.109  18.537  0.00  0.00    +0.000 A 
ATOM     16  C   UNL     1       8.983  10.133  19.941  0.00  0.00    +0.000 A 
ATOM     17  C   UNL     1       9.691  11.119  20.632  0.00  0.00    +0.000 A 
ATOM     18  C   UNL     1      10.405  12.073  19.917  0.00  0.00    +0.000 A 
ATOM     19  F   UNL     1      11.074  13.027  20.579  0.00  0.00    +0.000 F 
ATOM     20  C   UNL     1      10.437  12.051  18.529  0.00  0.00    +0.000 A 
ATOM     21  C   UNL     1       9.729  11.064  17.839  0.00  0.00    +0.000 A 
ENDBRANCH  14  15
ENDBRANCH  12  13
ENDBRANCH   1  12
BRANCH  10  22
ATOM     22  O   UNL     1       4.648   7.011  16.447  0.00  0.00    +0.000 OA
ATOM     23  H   UNL     1       4.640   6.487  15.630  0.00  0.00    +0.000 HD
ENDBRANCH  10  22
TORSDOF 4
ENDMDL
MODEL 9
REMARK VINA RESULT:      -7.9      0.987      1.096
REMARK  Name = 
REMARK  4 active torsions:
REMARK  status: ('A' for Active; 'I' for Inactive)
REMARK    1  A    between atoms: C_2  and  C_3
REMARK    2  A    between atoms: C_2  and  C_12
REMARK    3  A    between atoms: C_4  and  C_5
REMARK    4  A    between atoms: C_21  and  O_22
REMARK                            x       y       z     vdW  Elec       q    Type
REMARK                         _______ _______ _______ _____ _____    ______ ____
ROOT
ATOM      1  C   UNL     1       5.906   6.028  17.908  0.00  0.00    +0.000 A 
ATOM      2  C   UNL     1       4.957   6.996  17.570  0.00  0.00    +0.000 A 
ATOM      3  C   UNL     1       3.598   6.676  17.575  0.00  0.00    +0.000 A 
ATOM      4  C   UNL     1       3.159   5.387  17.909  0.00  0.00    +0.000 A 
ATOM      5  C   UNL     1       1.787   5.087  17.916  0.00  0.00    +0.000 A 
ATOM      6  C   UNL     1       1.332   3.810  18.244  0.00  0.00    +0.000 A 
ATOM      7  C   UNL     1       2.242   2.817  18.576  0.00  0.00    +0.000 A 
ATOM      8  C   UNL     1       3.609   3.099  18.581  0.00  0.00    +0.000 A 
ATOM      9  C   UNL     1       4.103   4.382  18.239  0.00  0.00    +0.000 A 
ATOM     10  C   UNL     1       5.480   4.723  18.215  0.00  0.00    +0.000 A 
ENDROOT
BRANCH   1  12
ATOM     11  O   UNL     1       8.225   5.583  17.897  0.00  0.00    +0.000 OA
ATOM     12  C   UNL     1       7.339   6.430  17.865  0.00  0.00    +0.000 C 
BRANCH  12  13
ATOM     13  C   UNL     1       7.639   7.877  17.713  0.00  0.00    +0.000 C 
ATOM     14  C   UNL     1       8.485   8.491  18.552  0.00  0.00    +0.000 C 
BRANCH  14  15
ATOM     15  C   UNL     1       8.786   9.929  18.481  0.00  0.00    +0.000 A 
ATOM     16  C   UNL     1       9.836  10.515  19.207  0.00  0.00    +0.000 A 
ATOM     17  C   UNL     1      10.083  11.887  19.117  0.00  0.00    +0.000 A 
ATOM     18  C   UNL     1       9.290  12.671  18.288  0.00  0.00    +0.000 A 
ATOM     19  F   UNL     1       9.519  13.988  18.211  0.00  0.00    +0.000 F 
ATOM     20  C   UNL     1       8.266  12.107  17.537  0.00  0.00    +0.000 A 
ATOM     21  C   UNL     1       8.020  10.735  17.627  0.00  0.00    +0.000 A 
ENDBRANCH  14  15
ENDBRANCH  12  13
ENDBRANCH   1  12
BRANCH  10  22
ATOM     22  O   UNL     1       6.433   3.764  18.466  0.00  0.00    +0.000 OA
ATOM     23  H   UNL     1       7.247   3.996  17.992  0.00  0.00    +0.000 HD
ENDBRANCH  10  22
TORSDOF 4
ENDMDL
