MODEL 1
REMARK VINA RESULT:      -8.3      0.000      0.000
REMARK  Name = 
REMARK  7 active torsions:
REMARK  status: ('A' for Active; 'I' for Inactive)
REMARK    1  A    between atoms: C_1  and  C_2
REMARK    2  A    between atoms: C_2  and  N_3
REMARK    3  A    between atoms: N_6  and  S_7
REMARK    4  A    between atoms: S_7  and  C_10
REMARK    5  A    between atoms: C_15  and  C_16
REMARK    6  A    between atoms: N_18  and  C_19
REMARK    7  A    between atoms: C_24  and  N_25
REMARK                            x       y       z     vdW  Elec       q    Type
REMARK                         _______ _______ _______ _____ _____    ______ ____
ROOT
ATOM      1  C   UNL     1       0.383  10.474  20.168  0.00  0.00    +0.000 A 
ATOM      2  C   UNL     1      -0.008   9.805  21.326  0.00  0.00    +0.000 A 
ATOM      3  C   UNL     1       0.474   8.517  21.581  0.00  0.00    +0.000 A 
ATOM      4  C   UNL     1       1.280   7.855  20.643  0.00  0.00    +0.000 A 
ATOM      5 CL   UNL     1       1.850   6.290  21.110  0.00  0.00    +0.000 Cl
ATOM      6  C   UNL     1       1.591   8.478  19.423  0.00  0.00    +0.000 A 
ATOM      7  C   UNL     1       1.144   9.799  19.201  0.00  0.00    +0.000 A 
ENDROOT
BRANCH   6   8
ATOM      8  C   UNL     1       2.407   7.858  18.334  0.00  0.00    +0.000 C 
ATOM      9  O   UNL     1       2.389   8.386  17.221  0.00  0.00    +0.000 OA
ATOM     10  N   UNL     1       3.093   6.705  18.647  0.00  0.00    +0.000 N 
ATOM     11  H   UNL     1       2.726   6.164  19.414  0.00  0.00    +0.000 HD
BRANCH  10  12
ATOM     12  C   UNL     1       3.823   5.986  17.676  0.00  0.00    +0.000 A 
ATOM     13  C   UNL     1       4.623   6.766  16.828  0.00  0.00    +0.000 A 
ATOM     14  C   UNL     1       5.408   6.170  15.847  0.00  0.00    +0.000 A 
ATOM     15  C   UNL     1       5.396   4.792  15.703  0.00  0.00    +0.000 A 
ATOM     16  C   UNL     1       4.601   4.016  16.548  0.00  0.00    +0.000 A 
ATOM     17  C   UNL     1       3.789   4.577  17.562  0.00  0.00    +0.000 A 
BRANCH  17  18
ATOM     18  N   UNL     1       3.053   3.730  18.368  0.00  0.00    +0.000 N 
ATOM     19  C   UNL     1       1.657   3.380  18.137  0.00  0.00    +0.000 C 
ATOM     20  C   UNL     1       0.919   3.310  19.480  0.00  0.00    +0.000 C 
ATOM     21  O   UNL     1       1.568   2.433  20.412  0.00  0.00    +0.000 OA
ATOM     22  C   UNL     1       2.929   2.845  20.632  0.00  0.00    +0.000 C 
ATOM     23  C   UNL     1       3.733   2.840  19.326  0.00  0.00    +0.000 C 
ENDBRANCH  17  18
ENDBRANCH  10  12
ENDBRANCH   6   8
BRANCH   1  24
ATOM     24  S   UNL     1      -0.238  12.127  19.814  0.00  0.00    +0.000 S 
ATOM     25  O   UNL     1      -1.500  12.253  20.529  0.00  0.00    +0.000 OA
ATOM     26  O   UNL     1      -0.193  12.280  18.390  0.00  0.00    +0.000 OA
BRANCH  24  30
ATOM     27  N   UNL     1       1.701  15.362  18.633  0.00  0.00    +0.000 NA
ATOM     28  C   UNL     1       2.229  13.981  18.569  0.00  0.00    +0.000 C 
ATOM     29  C   UNL     1       2.246  13.207  19.908  0.00  0.00    +0.000 C 
ATOM     30  N   UNL     1       0.898  13.192  20.559  0.00  0.00    +0.000 NA
ATOM     31  C   UNL     1       0.459  14.635  20.723  0.00  0.00    +0.000 C 
ATOM     32  C   UNL     1       0.407  15.367  19.365  0.00  0.00    +0.000 C 
BRANCH  27  34
ATOM     33  C   UNL     1       3.920  16.489  18.399  0.00  0.00    +0.000 C 
ATOM     34  C   UNL     1       2.644  16.326  19.215  0.00  0.00    +0.000 C 
ENDBRANCH  27  34
ENDBRANCH  24  30
ENDBRANCH   1  24
TORSDOF 6
ENDMDL
MODEL 2
REMARK VINA RESULT:      -8.3      0.925      1.374
REMARK  Name = 
REMARK  7 active torsions:
REMARK  status: ('A' for Active; 'I' for Inactive)
REMARK    1  A    between atoms: C_1  and  C_2
REMARK    2  A    between atoms: C_2  and  N_3
REMARK    3  A    between atoms: N_6  and  S_7
REMARK    4  A    between atoms: S_7  and  C_10
REMARK    5  A    between atoms: C_15  and  C_16
REMARK    6  A    between atoms: N_18  and  C_19
REMARK    7  A    between atoms: C_24  and  N_25
REMARK                            x       y       z     vdW  Elec       q    Type
REMARK                         _______ _______ _______ _____ _____    ______ ____
ROOT
ATOM      1  C   UNL     1       0.925  10.541  20.579  0.00  0.00    +0.000 A 
ATOM      2  C   UNL     1       0.441   9.875  21.703  0.00  0.00    +0.000 A 
ATOM      3  C   UNL     1       0.637   8.496  21.832  0.00  0.00    +0.000 A 
ATOM      4  C   UNL     1       1.242   7.758  20.803  0.00  0.00    +0.000 A 
ATOM      5 CL   UNL     1       1.471   6.073  21.116  0.00  0.00    +0.000 Cl
ATOM      6  C   UNL     1       1.634   8.403  19.617  0.00  0.00    +0.000 A 
ATOM      7  C   UNL     1       1.480   9.803  19.522  0.00  0.00    +0.000 A 
ENDROOT
BRANCH   6   8
ATOM      8  C   UNL     1       2.251   7.718  18.440  0.00  0.00    +0.000 C 
ATOM      9  O   UNL     1       1.688   7.816  17.348  0.00  0.00    +0.000 OA
ATOM     10  N   UNL     1       3.393   6.984  18.672  0.00  0.00    +0.000 N 
ATOM     11  H   UNL     1       3.521   6.647  19.614  0.00  0.00    +0.000 HD
BRANCH  10  12
ATOM     12  C   UNL     1       4.010   6.225  17.655  0.00  0.00    +0.000 A 
ATOM     13  C   UNL     1       4.802   6.955  16.758  0.00  0.00    +0.000 A 
ATOM     14  C   UNL     1       5.481   6.315  15.726  0.00  0.00    +0.000 A 
ATOM     15  C   UNL     1       5.370   4.942  15.582  0.00  0.00    +0.000 A 
ATOM     16  C   UNL     1       4.583   4.214  16.476  0.00  0.00    +0.000 A 
ATOM     17  C   UNL     1       3.877   4.821  17.542  0.00  0.00    +0.000 A 
BRANCH  17  18
ATOM     18  N   UNL     1       3.142   4.019  18.393  0.00  0.00    +0.000 N 
ATOM     19  C   UNL     1       3.632   3.503  19.666  0.00  0.00    +0.000 C 
ATOM     20  C   UNL     1       3.132   2.065  19.859  0.00  0.00    +0.000 C 
ATOM     21  O   UNL     1       1.708   1.961  19.725  0.00  0.00    +0.000 OA
ATOM     22  C   UNL     1       1.283   2.449  18.440  0.00  0.00    +0.000 C 
ATOM     23  C   UNL     1       1.680   3.917  18.238  0.00  0.00    +0.000 C 
ENDBRANCH  17  18
ENDBRANCH  10  12
ENDBRANCH   6   8
BRANCH   1  24
ATOM     24  S   UNL     1       0.669  12.313  20.388  0.00  0.00    +0.000 S 
ATOM     25  O   UNL     1       0.605  12.866  21.733  0.00  0.00    +0.000 OA
ATOM     26  O   UNL     1      -0.435  12.468  19.487  0.00  0.00    +0.000 OA
BRANCH  24  30
ATOM     27  N   UNL     1       2.020  15.885  19.370  0.00  0.00    +0.000 NA
ATOM     28  C   UNL     1       1.296  14.960  18.471  0.00  0.00    +0.000 C 
ATOM     29  C   UNL     1       1.913  13.549  18.321  0.00  0.00    +0.000 C 
ATOM     30  N   UNL     1       2.119  12.890  19.650  0.00  0.00    +0.000 NA
ATOM     31  C   UNL     1       2.977  13.818  20.488  0.00  0.00    +0.000 C 
ATOM     32  C   UNL     1       2.313  15.200  20.658  0.00  0.00    +0.000 C 
BRANCH  27  34
ATOM     33  C   UNL     1       3.074  16.845  17.316  0.00  0.00    +0.000 C 
ATOM     34  C   UNL     1       3.240  16.447  18.778  0.00  0.00    +0.000 C 
ENDBRANCH  27  34
ENDBRANCH  24  30
ENDBRANCH   1  24
TORSDOF 6
ENDMDL
MODEL 3
REMARK VINA RESULT:      -8.1      2.380      2.894
REMARK  Name = 
REMARK  7 active torsions:
REMARK  status: ('A' for Active; 'I' for Inactive)
REMARK    1  A    between atoms: C_1  and  C_2
REMARK    2  A    between atoms: C_2  and  N_3
REMARK    3  A    between atoms: N_6  and  S_7
REMARK    4  A    between atoms: S_7  and  C_10
REMARK    5  A    between atoms: C_15  and  C_16
REMARK    6  A    between atoms: N_18  and  C_19
REMARK    7  A    between atoms: C_24  and  N_25
REMARK                            x       y       z     vdW  Elec       q    Type
REMARK                         _______ _______ _______ _____ _____    ______ ____
ROOT
ATOM      1  C   UNL     1       0.971   9.589  20.430  0.00  0.00    +0.000 A 
ATOM      2  C   UNL     1       0.447   8.794  21.448  0.00  0.00    +0.000 A 
ATOM      3  C   UNL     1       0.825   7.451  21.544  0.00  0.00    +0.000 A 
ATOM      4  C   UNL     1       1.661   6.870  20.579  0.00  0.00    +0.000 A 
ATOM      5 CL   UNL     1       2.093   5.217  20.850  0.00  0.00    +0.000 Cl
ATOM      6  C   UNL     1       2.107   7.635  19.487  0.00  0.00    +0.000 A 
ATOM      7  C   UNL     1       1.763   9.003  19.431  0.00  0.00    +0.000 A 
ENDROOT
BRANCH   6   8
ATOM      8  C   UNL     1       2.967   7.116  18.380  0.00  0.00    +0.000 C 
ATOM      9  O   UNL     1       2.693   7.450  17.226  0.00  0.00    +0.000 OA
ATOM     10  N   UNL     1       3.988   6.261  18.730  0.00  0.00    +0.000 N 
ATOM     11  H   UNL     1       3.868   5.756  19.594  0.00  0.00    +0.000 HD
BRANCH  10  12
ATOM     12  C   UNL     1       4.807   5.642  17.761  0.00  0.00    +0.000 A 
ATOM     13  C   UNL     1       5.931   6.380  17.365  0.00  0.00    +0.000 A 
ATOM     14  C   UNL     1       6.827   5.866  16.434  0.00  0.00    +0.000 A 
ATOM     15  C   UNL     1       6.602   4.612  15.888  0.00  0.00    +0.000 A 
ATOM     16  C   UNL     1       5.483   3.876  16.282  0.00  0.00    +0.000 A 
ATOM     17  C   UNL     1       4.548   4.357  17.229  0.00  0.00    +0.000 A 
BRANCH  17  18
ATOM     18  N   UNL     1       3.483   3.550  17.579  0.00  0.00    +0.000 N 
ATOM     19  C   UNL     1       2.112   3.752  17.124  0.00  0.00    +0.000 C 
ATOM     20  C   UNL     1       1.142   3.441  18.271  0.00  0.00    +0.000 C 
ATOM     21  O   UNL     1       1.360   2.137  18.830  0.00  0.00    +0.000 OA
ATOM     22  C   UNL     1       2.714   2.006  19.296  0.00  0.00    +0.000 C 
ATOM     23  C   UNL     1       3.722   2.216  18.159  0.00  0.00    +0.000 C 
ENDBRANCH  17  18
ENDBRANCH  10  12
ENDBRANCH   6   8
BRANCH   1  24
ATOM     24  S   UNL     1       0.485  11.316  20.280  0.00  0.00    +0.000 S 
ATOM     25  O   UNL     1       0.376  11.590  18.855  0.00  0.00    +0.000 OA
ATOM     26  O   UNL     1       1.397  12.066  21.094  0.00  0.00    +0.000 OA
BRANCH  24  30
ATOM     27  N   UNL     1      -1.725  14.193  21.849  0.00  0.00    +0.000 NA
ATOM     28  C   UNL     1      -0.862  13.267  22.616  0.00  0.00    +0.000 C 
ATOM     29  C   UNL     1      -1.140  11.760  22.403  0.00  0.00    +0.000 C 
ATOM     30  N   UNL     1      -1.103  11.387  20.954  0.00  0.00    +0.000 NA
ATOM     31  C   UNL     1      -2.100  12.273  20.233  0.00  0.00    +0.000 C 
ATOM     32  C   UNL     1      -1.769  13.769  20.425  0.00  0.00    +0.000 C 
BRANCH  27  34
ATOM     33  C   UNL     1      -3.091  14.591  23.906  0.00  0.00    +0.000 C 
ATOM     34  C   UNL     1      -3.078  14.332  22.404  0.00  0.00    +0.000 C 
ENDBRANCH  27  34
ENDBRANCH  24  30
ENDBRANCH   1  24
TORSDOF 6
ENDMDL
MODEL 4
REMARK VINA RESULT:      -8.1      3.046      8.683
REMARK  Name = 
REMARK  7 active torsions:
REMARK  status: ('A' for Active; 'I' for Inactive)
REMARK    1  A    between atoms: C_1  and  C_2
REMARK    2  A    between atoms: C_2  and  N_3
REMARK    3  A    between atoms: N_6  and  S_7
REMARK    4  A    between atoms: S_7  and  C_10
REMARK    5  A    between atoms: C_15  and  C_16
REMARK    6  A    between atoms: N_18  and  C_19
REMARK    7  A    between atoms: C_24  and  N_25
REMARK                            x       y       z     vdW  Elec       q    Type
REMARK                         _______ _______ _______ _____ _____    ______ ____
ROOT
ATOM      1  C   UNL     1       3.122   5.971  19.362  0.00  0.00    +0.000 A 
ATOM      2  C   UNL     1       2.447   5.480  20.477  0.00  0.00    +0.000 A 
ATOM      3  C   UNL     1       1.418   6.231  21.054  0.00  0.00    +0.000 A 
ATOM      4  C   UNL     1       1.111   7.514  20.575  0.00  0.00    +0.000 A 
ATOM      5 CL   UNL     1      -0.218   8.309  21.343  0.00  0.00    +0.000 Cl
ATOM      6  C   UNL     1       1.860   8.064  19.521  0.00  0.00    +0.000 A 
ATOM      7  C   UNL     1       2.859   7.275  18.912  0.00  0.00    +0.000 A 
ENDROOT
BRANCH   6   8
ATOM      8  C   UNL     1       1.652   9.432  18.953  0.00  0.00    +0.000 C 
ATOM      9  O   UNL     1       2.123   9.678  17.841  0.00  0.00    +0.000 OA
ATOM     10  N   UNL     1       0.978  10.339  19.740  0.00  0.00    +0.000 N 
ATOM     11  H   UNL     1       1.006  10.172  20.734  0.00  0.00    +0.000 HD
BRANCH  10  12
ATOM     12  C   UNL     1       0.802  11.683  19.344  0.00  0.00    +0.000 A 
ATOM     13  C   UNL     1       1.875  12.538  19.631  0.00  0.00    +0.000 A 
ATOM     14  C   UNL     1       1.830  13.880  19.267  0.00  0.00    +0.000 A 
ATOM     15  C   UNL     1       0.710  14.377  18.619  0.00  0.00    +0.000 A 
ATOM     16  C   UNL     1      -0.358  13.525  18.333  0.00  0.00    +0.000 A 
ATOM     17  C   UNL     1      -0.355  12.153  18.680  0.00  0.00    +0.000 A 
BRANCH  17  18
ATOM     18  N   UNL     1      -1.446  11.379  18.335  0.00  0.00    +0.000 N 
ATOM     19  C   UNL     1      -1.373  10.166  17.530  0.00  0.00    +0.000 C 
ATOM     20  C   UNL     1      -2.578  10.110  16.581  0.00  0.00    +0.000 C 
ATOM     21  O   UNL     1      -3.825  10.245  17.277  0.00  0.00    +0.000 OA
ATOM     22  C   UNL     1      -3.858  11.474  18.024  0.00  0.00    +0.000 C 
ATOM     23  C   UNL     1      -2.723  11.534  19.054  0.00  0.00    +0.000 C 
ENDBRANCH  17  18
ENDBRANCH  10  12
ENDBRANCH   6   8
BRANCH   1  24
ATOM     24  S   UNL     1       4.459   5.026  18.615  0.00  0.00    +0.000 S 
ATOM     25  O   UNL     1       4.032   3.634  18.620  0.00  0.00    +0.000 OA
ATOM     26  O   UNL     1       5.660   5.418  19.292  0.00  0.00    +0.000 OA
BRANCH  24  30
ATOM     27  N   UNL     1       7.054   4.629  15.659  0.00  0.00    +0.000 NA
ATOM     28  C   UNL     1       6.990   5.780  16.588  0.00  0.00    +0.000 C 
ATOM     29  C   UNL     1       5.625   6.504  16.665  0.00  0.00    +0.000 C 
ATOM     30  N   UNL     1       4.509   5.555  16.972  0.00  0.00    +0.000 NA
ATOM     31  C   UNL     1       4.535   4.468  15.916  0.00  0.00    +0.000 C 
ATOM     32  C   UNL     1       5.892   3.732  15.896  0.00  0.00    +0.000 C 
BRANCH  27  34
ATOM     33  C   UNL     1       6.607   3.959  13.293  0.00  0.00    +0.000 C 
ATOM     34  C   UNL     1       7.146   5.018  14.247  0.00  0.00    +0.000 C 
ENDBRANCH  27  34
ENDBRANCH  24  30
ENDBRANCH   1  24
TORSDOF 6
ENDMDL
MODEL 5
REMARK VINA RESULT:      -8.1      0.843      1.036
REMARK  Name = 
REMARK  7 active torsions:
REMARK  status: ('A' for Active; 'I' for Inactive)
REMARK    1  A    between atoms: C_1  and  C_2
REMARK    2  A    between atoms: C_2  and  N_3
REMARK    3  A    between atoms: N_6  and  S_7
REMARK    4  A    between atoms: S_7  and  C_10
REMARK    5  A    between atoms: C_15  and  C_16
REMARK    6  A    between atoms: N_18  and  C_19
REMARK    7  A    between atoms: C_24  and  N_25
REMARK                            x       y       z     vdW  Elec       q    Type
REMARK                         _______ _______ _______ _____ _____    ______ ____
ROOT
ATOM      1  C   UNL     1       0.483  10.134  20.083  0.00  0.00    +0.000 A 
ATOM      2  C   UNL     1       0.106   9.425  21.222  0.00  0.00    +0.000 A 
ATOM      3  C   UNL     1       0.626   8.146  21.449  0.00  0.00    +0.000 A 
ATOM      4  C   UNL     1       1.459   7.532  20.501  0.00  0.00    +0.000 A 
ATOM      5 CL   UNL     1       2.075   5.975  20.933  0.00  0.00    +0.000 Cl
ATOM      6  C   UNL     1       1.757   8.195  19.298  0.00  0.00    +0.000 A 
ATOM      7  C   UNL     1       1.270   9.506  19.105  0.00  0.00    +0.000 A 
ENDROOT
BRANCH   6   8
ATOM      8  C   UNL     1       2.599   7.627  18.200  0.00  0.00    +0.000 C 
ATOM      9  O   UNL     1       2.584   8.191  17.105  0.00  0.00    +0.000 OA
ATOM     10  N   UNL     1       3.304   6.479  18.484  0.00  0.00    +0.000 N 
ATOM     11  H   UNL     1       2.938   5.905  19.228  0.00  0.00    +0.000 HD
BRANCH  10  12
ATOM     12  C   UNL     1       4.061   5.807  17.500  0.00  0.00    +0.000 A 
ATOM     13  C   UNL     1       4.850   6.630  16.685  0.00  0.00    +0.000 A 
ATOM     14  C   UNL     1       5.659   6.083  15.694  0.00  0.00    +0.000 A 
ATOM     15  C   UNL     1       5.680   4.710  15.508  0.00  0.00    +0.000 A 
ATOM     16  C   UNL     1       4.894   3.890  16.320  0.00  0.00    +0.000 A 
ATOM     17  C   UNL     1       4.060   4.402  17.342  0.00  0.00    +0.000 A 
BRANCH  17  18
ATOM     18  N   UNL     1       3.336   3.514  18.114  0.00  0.00    +0.000 N 
ATOM     19  C   UNL     1       1.969   3.096  17.825  0.00  0.00    +0.000 C 
ATOM     20  C   UNL     1       1.182   2.980  19.137  0.00  0.00    +0.000 C 
ATOM     21  O   UNL     1       1.836   2.131  20.090  0.00  0.00    +0.000 OA
ATOM     22  C   UNL     1       3.165   2.609  20.366  0.00  0.00    +0.000 C 
ATOM     23  C   UNL     1       4.021   2.652  19.094  0.00  0.00    +0.000 C 
ENDBRANCH  17  18
ENDBRANCH  10  12
ENDBRANCH   6   8
BRANCH   1  24
ATOM     24  S   UNL     1      -0.187  11.774  19.766  0.00  0.00    +0.000 S 
ATOM     25  O   UNL     1      -0.939  12.148  20.956  0.00  0.00    +0.000 OA
ATOM     26  O   UNL     1      -0.836  11.707  18.490  0.00  0.00    +0.000 OA
BRANCH  24  30
ATOM     27  N   UNL     1       0.403  15.657  20.209  0.00  0.00    +0.000 NA
ATOM     28  C   UNL     1       0.158  14.974  18.919  0.00  0.00    +0.000 C 
ATOM     29  C   UNL     1       1.130  13.822  18.575  0.00  0.00    +0.000 C 
ATOM     30  N   UNL     1       1.195  12.804  19.671  0.00  0.00    +0.000 NA
ATOM     31  C   UNL     1       1.579  13.533  20.945  0.00  0.00    +0.000 C 
ATOM     32  C   UNL     1       0.565  14.645  21.286  0.00  0.00    +0.000 C 
BRANCH  27  34
ATOM     33  C   UNL     1       1.482  17.570  19.016  0.00  0.00    +0.000 C 
ATOM     34  C   UNL     1       1.540  16.585  20.177  0.00  0.00    +0.000 C 
ENDBRANCH  27  34
ENDBRANCH  24  30
ENDBRANCH   1  24
TORSDOF 6
ENDMDL
MODEL 6
REMARK VINA RESULT:      -8.0      1.473      2.144
REMARK  Name = 
REMARK  7 active torsions:
REMARK  status: ('A' for Active; 'I' for Inactive)
REMARK    1  A    between atoms: C_1  and  C_2
REMARK    2  A    between atoms: C_2  and  N_3
REMARK    3  A    between atoms: N_6  and  S_7
REMARK    4  A    between atoms: S_7  and  C_10
REMARK    5  A    between atoms: C_15  and  C_16
REMARK    6  A    between atoms: N_18  and  C_19
REMARK    7  A    between atoms: C_24  and  N_25
REMARK                            x       y       z     vdW  Elec       q    Type
REMARK                         _______ _______ _______ _____ _____    ______ ____
ROOT
ATOM      1  C   UNL     1       0.679  10.254  20.247  0.00  0.00    +0.000 A 
ATOM      2  C   UNL     1       0.250   9.522  21.353  0.00  0.00    +0.000 A 
ATOM      3  C   UNL     1       0.675   8.200  21.518  0.00  0.00    +0.000 A 
ATOM      4  C   UNL     1       1.460   7.571  20.540  0.00  0.00    +0.000 A 
ATOM      5 CL   UNL     1       1.960   5.954  20.897  0.00  0.00    +0.000 Cl
ATOM      6  C   UNL     1       1.806   8.265  19.368  0.00  0.00    +0.000 A 
ATOM      7  C   UNL     1       1.418   9.616  19.238  0.00  0.00    +0.000 A 
ENDROOT
BRANCH   6   8
ATOM      8  C   UNL     1       2.604   7.689  18.242  0.00  0.00    +0.000 C 
ATOM      9  O   UNL     1       2.547   8.245  17.144  0.00  0.00    +0.000 OA
ATOM     10  N   UNL     1       3.320   6.542  18.507  0.00  0.00    +0.000 N 
ATOM     11  H   UNL     1       2.982   5.974  19.268  0.00  0.00    +0.000 HD
BRANCH  10  12
ATOM     12  C   UNL     1       4.036   5.862  17.499  0.00  0.00    +0.000 A 
ATOM     13  C   UNL     1       4.816   6.676  16.665  0.00  0.00    +0.000 A 
ATOM     14  C   UNL     1       5.588   6.120  15.650  0.00  0.00    +0.000 A 
ATOM     15  C   UNL     1       5.580   4.748  15.457  0.00  0.00    +0.000 A 
ATOM     16  C   UNL     1       4.804   3.937  16.287  0.00  0.00    +0.000 A 
ATOM     17  C   UNL     1       4.008   4.458  17.335  0.00  0.00    +0.000 A 
BRANCH  17  18
ATOM     18  N   UNL     1       3.291   3.578  18.123  0.00  0.00    +0.000 N 
ATOM     19  C   UNL     1       1.941   3.116  17.822  0.00  0.00    +0.000 C 
ATOM     20  C   UNL     1       1.131   3.025  19.122  0.00  0.00    +0.000 C 
ATOM     21  O   UNL     1       1.787   2.226  20.117  0.00  0.00    +0.000 OA
ATOM     22  C   UNL     1       3.097   2.747  20.402  0.00  0.00    +0.000 C 
ATOM     23  C   UNL     1       3.977   2.769  19.146  0.00  0.00    +0.000 C 
ENDBRANCH  17  18
ENDBRANCH  10  12
ENDBRANCH   6   8
BRANCH   1  24
ATOM     24  S   UNL     1       0.131  11.952  20.008  0.00  0.00    +0.000 S 
ATOM     25  O   UNL     1      -1.316  11.901  19.862  0.00  0.00    +0.000 OA
ATOM     26  O   UNL     1       0.946  12.497  18.962  0.00  0.00    +0.000 OA
BRANCH  24  30
ATOM     27  N   UNL     1      -1.080  15.306  21.713  0.00  0.00    +0.000 NA
ATOM     28  C   UNL     1       0.140  15.162  20.887  0.00  0.00    +0.000 C 
ATOM     29  C   UNL     1       1.141  14.078  21.352  0.00  0.00    +0.000 C 
ATOM     30  N   UNL     1       0.482  12.742  21.502  0.00  0.00    +0.000 NA
ATOM     31  C   UNL     1      -0.680  12.915  22.461  0.00  0.00    +0.000 C 
ATOM     32  C   UNL     1      -1.684  13.968  21.946  0.00  0.00    +0.000 C 
BRANCH  27  34
ATOM     33  C   UNL     1      -2.100  16.111  23.848  0.00  0.00    +0.000 C 
ATOM     34  C   UNL     1      -0.853  16.015  22.978  0.00  0.00    +0.000 C 
ENDBRANCH  27  34
ENDBRANCH  24  30
ENDBRANCH   1  24
TORSDOF 6
ENDMDL
MODEL 7
REMARK VINA RESULT:      -8.0      0.996      1.317
REMARK  Name = 
REMARK  7 active torsions:
REMARK  status: ('A' for Active; 'I' for Inactive)
REMARK    1  A    between atoms: C_1  and  C_2
REMARK    2  A    between atoms: C_2  and  N_3
REMARK    3  A    between atoms: N_6  and  S_7
REMARK    4  A    between atoms: S_7  and  C_10
REMARK    5  A    between atoms: C_15  and  C_16
REMARK    6  A    between atoms: N_18  and  C_19
REMARK    7  A    between atoms: C_24  and  N_25
REMARK                            x       y       z     vdW  Elec       q    Type
REMARK                         _______ _______ _______ _____ _____    ______ ____
ROOT
ATOM      1  C   UNL     1       0.684  10.935  20.393  0.00  0.00    +0.000 A 
ATOM      2  C   UNL     1       0.147  10.262  21.489  0.00  0.00    +0.000 A 
ATOM      3  C   UNL     1       0.383   8.893  21.649  0.00  0.00    +0.000 A 
ATOM      4  C   UNL     1       1.085   8.168  20.674  0.00  0.00    +0.000 A 
ATOM      5 CL   UNL     1       1.353   6.496  21.025  0.00  0.00    +0.000 Cl
ATOM      6  C   UNL     1       1.536   8.815  19.511  0.00  0.00    +0.000 A 
ATOM      7  C   UNL     1       1.339  10.207  19.387  0.00  0.00    +0.000 A 
ENDROOT
BRANCH   6   8
ATOM      8  C   UNL     1       2.259   8.140  18.389  0.00  0.00    +0.000 C 
ATOM      9  O   UNL     1       2.012   8.502  17.237  0.00  0.00    +0.000 OA
ATOM     10  N   UNL     1       3.127   7.125  18.726  0.00  0.00    +0.000 N 
ATOM     11  H   UNL     1       2.948   6.659  19.602  0.00  0.00    +0.000 HD
BRANCH  10  12
ATOM     12  C   UNL     1       3.795   6.361  17.745  0.00  0.00    +0.000 A 
ATOM     13  C   UNL     1       4.604   7.092  16.863  0.00  0.00    +0.000 A 
ATOM     14  C   UNL     1       5.333   6.448  15.869  0.00  0.00    +0.000 A 
ATOM     15  C   UNL     1       5.254   5.070  15.745  0.00  0.00    +0.000 A 
ATOM     16  C   UNL     1       4.450   4.342  16.623  0.00  0.00    +0.000 A 
ATOM     17  C   UNL     1       3.694   4.954  17.652  0.00  0.00    +0.000 A 
BRANCH  17  18
ATOM     18  N   UNL     1       2.945   4.151  18.491  0.00  0.00    +0.000 N 
ATOM     19  C   UNL     1       3.378   3.708  19.811  0.00  0.00    +0.000 C 
ATOM     20  C   UNL     1       2.932   2.257  20.033  0.00  0.00    +0.000 C 
ATOM     21  O   UNL     1       1.524   2.081  19.819  0.00  0.00    +0.000 OA
ATOM     22  C   UNL     1       1.158   2.499  18.492  0.00  0.00    +0.000 C 
ATOM     23  C   UNL     1       1.501   3.974  18.254  0.00  0.00    +0.000 C 
ENDBRANCH  17  18
ENDBRANCH  10  12
ENDBRANCH   6   8
BRANCH   1  24
ATOM     24  S   UNL     1       0.378  12.693  20.161  0.00  0.00    +0.000 S 
ATOM     25  O   UNL     1      -1.003  12.926  20.559  0.00  0.00    +0.000 OA
ATOM     26  O   UNL     1       0.812  13.008  18.832  0.00  0.00    +0.000 OA
BRANCH  24  30
ATOM     27  N   UNL     1       2.259  16.167  20.286  0.00  0.00    +0.000 NA
ATOM     28  C   UNL     1       2.854  14.893  19.826  0.00  0.00    +0.000 C 
ATOM     29  C   UNL     1       2.794  13.722  20.835  0.00  0.00    +0.000 C 
ATOM     30  N   UNL     1       1.398  13.473  21.315  0.00  0.00    +0.000 NA
ATOM     31  C   UNL     1       0.881  14.775  21.898  0.00  0.00    +0.000 C 
ATOM     32  C   UNL     1       0.909  15.911  20.854  0.00  0.00    +0.000 C 
BRANCH  27  34
ATOM     33  C   UNL     1       4.241  17.666  20.567  0.00  0.00    +0.000 C 
ATOM     34  C   UNL     1       3.105  16.902  21.236  0.00  0.00    +0.000 C 
ENDBRANCH  27  34
ENDBRANCH  24  30
ENDBRANCH   1  24
TORSDOF 6
ENDMDL
MODEL 8
REMARK VINA RESULT:      -8.0      1.115      1.556
REMARK  Name = 
REMARK  7 active torsions:
REMARK  status: ('A' for Active; 'I' for Inactive)
REMARK    1  A    between atoms: C_1  and  C_2
REMARK    2  A    between atoms: C_2  and  N_3
REMARK    3  A    between atoms: N_6  and  S_7
REMARK    4  A    between atoms: S_7  and  C_10
REMARK    5  A    between atoms: C_15  and  C_16
REMARK    6  A    between atoms: N_18  and  C_19
REMARK    7  A    between atoms: C_24  and  N_25
REMARK                            x       y       z     vdW  Elec       q    Type
REMARK                         _______ _______ _______ _____ _____    ______ ____
ROOT
ATOM      1  C   UNL     1       1.158  11.162  19.419  0.00  0.00    +0.000 A 
ATOM      2  C   UNL     1       0.668  10.851  20.686  0.00  0.00    +0.000 A 
ATOM      3  C   UNL     1       0.762   9.541  21.165  0.00  0.00    +0.000 A 
ATOM      4  C   UNL     1       1.268   8.515  20.352  0.00  0.00    +0.000 A 
ATOM      5 CL   UNL     1       1.379   6.954  21.088  0.00  0.00    +0.000 Cl
ATOM      6  C   UNL     1       1.662   8.797  19.033  0.00  0.00    +0.000 A 
ATOM      7  C   UNL     1       1.614  10.133  18.580  0.00  0.00    +0.000 A 
ENDROOT
BRANCH   6   8
ATOM      8  C   UNL     1       2.179   7.782  18.064  0.00  0.00    +0.000 C 
ATOM      9  O   UNL     1       1.455   7.455  17.122  0.00  0.00    +0.000 OA
ATOM     10  N   UNL     1       3.423   7.250  18.321  0.00  0.00    +0.000 N 
ATOM     11  H   UNL     1       3.727   7.274  19.282  0.00  0.00    +0.000 HD
BRANCH  10  12
ATOM     12  C   UNL     1       3.972   6.222  17.524  0.00  0.00    +0.000 A 
ATOM     13  C   UNL     1       4.829   6.649  16.500  0.00  0.00    +0.000 A 
ATOM     14  C   UNL     1       5.451   5.728  15.664  0.00  0.00    +0.000 A 
ATOM     15  C   UNL     1       5.216   4.374  15.841  0.00  0.00    +0.000 A 
ATOM     16  C   UNL     1       4.363   3.948  16.861  0.00  0.00    +0.000 A 
ATOM     17  C   UNL     1       3.713   4.848  17.738  0.00  0.00    +0.000 A 
BRANCH  17  18
ATOM     18  N   UNL     1       2.905   4.336  18.736  0.00  0.00    +0.000 N 
ATOM     19  C   UNL     1       3.284   4.254  20.141  0.00  0.00    +0.000 C 
ATOM     20  C   UNL     1       2.764   2.938  20.734  0.00  0.00    +0.000 C 
ATOM     21  O   UNL     1       1.356   2.765  20.524  0.00  0.00    +0.000 OA
ATOM     22  C   UNL     1       1.043   2.817  19.121  0.00  0.00    +0.000 C 
ATOM     23  C   UNL     1       1.461   4.157  18.502  0.00  0.00    +0.000 C 
ENDBRANCH  17  18
ENDBRANCH  10  12
ENDBRANCH   6   8
BRANCH   1  24
ATOM     24  S   UNL     1       1.032  12.840  18.778  0.00  0.00    +0.000 S 
ATOM     25  O   UNL     1      -0.326  12.988  18.276  0.00  0.00    +0.000 OA
ATOM     26  O   UNL     1       2.153  13.024  17.903  0.00  0.00    +0.000 OA
BRANCH  24  30
ATOM     27  N   UNL     1       2.440  16.483  19.390  0.00  0.00    +0.000 NA
ATOM     28  C   UNL     1       3.214  15.232  19.551  0.00  0.00    +0.000 C 
ATOM     29  C   UNL     1       2.610  14.189  20.521  0.00  0.00    +0.000 C 
ATOM     30  N   UNL     1       1.194  13.854  20.165  0.00  0.00    +0.000 NA
ATOM     31  C   UNL     1       0.413  15.154  20.143  0.00  0.00    +0.000 C 
ATOM     32  C   UNL     1       1.012  16.155  19.132  0.00  0.00    +0.000 C 
BRANCH  27  34
ATOM     33  C   UNL     1       1.669  18.629  20.415  0.00  0.00    +0.000 C 
ATOM     34  C   UNL     1       2.577  17.409  20.521  0.00  0.00    +0.000 C 
ENDBRANCH  27  34
ENDBRANCH  24  30
ENDBRANCH   1  24
TORSDOF 6
ENDMDL
MODEL 9
REMARK VINA RESULT:      -8.0      0.992      1.365
REMARK  Name = 
REMARK  7 active torsions:
REMARK  status: ('A' for Active; 'I' for Inactive)
REMARK    1  A    between atoms: C_1  and  C_2
REMARK    2  A    between atoms: C_2  and  N_3
REMARK    3  A    between atoms: N_6  and  S_7
REMARK    4  A    between atoms: S_7  and  C_10
REMARK    5  A    between atoms: C_15  and  C_16
REMARK    6  A    between atoms: N_18  and  C_19
REMARK    7  A    between atoms: C_24  and  N_25
REMARK                            x       y       z     vdW  Elec       q    Type
REMARK                         _______ _______ _______ _____ _____    ______ ____
ROOT
ATOM      1  C   UNL     1      -0.204  11.129  19.883  0.00  0.00    +0.000 A 
ATOM      2  C   UNL     1      -0.535  10.593  21.127  0.00  0.00    +0.000 A 
ATOM      3  C   UNL     1       0.058   9.398  21.549  0.00  0.00    +0.000 A 
ATOM      4  C   UNL     1       0.920   8.687  20.701  0.00  0.00    +0.000 A 
ATOM      5 CL   UNL     1       1.626   7.256  21.369  0.00  0.00    +0.000 Cl
ATOM      6  C   UNL     1       1.174   9.162  19.403  0.00  0.00    +0.000 A 
ATOM      7  C   UNL     1       0.613  10.396  19.008  0.00  0.00    +0.000 A 
ENDROOT
BRANCH   6   8
ATOM      8  C   UNL     1       2.042   8.472  18.398  0.00  0.00    +0.000 C 
ATOM      9  O   UNL     1       2.078   8.924  17.253  0.00  0.00    +0.000 OA
ATOM     10  N   UNL     1       2.712   7.346  18.822  0.00  0.00    +0.000 N 
ATOM     11  H   UNL     1       2.308   6.856  19.605  0.00  0.00    +0.000 HD
BRANCH  10  12
ATOM     12  C   UNL     1       3.488   6.565  17.938  0.00  0.00    +0.000 A 
ATOM     13  C   UNL     1       4.329   7.288  17.080  0.00  0.00    +0.000 A 
ATOM     14  C   UNL     1       5.161   6.630  16.180  0.00  0.00    +0.000 A 
ATOM     15  C   UNL     1       5.154   5.245  16.128  0.00  0.00    +0.000 A 
ATOM     16  C   UNL     1       4.317   4.525  16.982  0.00  0.00    +0.000 A 
ATOM     17  C   UNL     1       3.458   5.152  17.916  0.00  0.00    +0.000 A 
BRANCH  17  18
ATOM     18  N   UNL     1       2.682   4.359  18.740  0.00  0.00    +0.000 N 
ATOM     19  C   UNL     1       2.947   4.135  20.156  0.00  0.00    +0.000 C 
ATOM     20  C   UNL     1       2.644   2.673  20.508  0.00  0.00    +0.000 C 
ATOM     21  O   UNL     1       1.319   2.284  20.120  0.00  0.00    +0.000 OA
ATOM     22  C   UNL     1       1.124   2.490  18.709  0.00  0.00    +0.000 C 
ATOM     23  C   UNL     1       1.325   3.960  18.324  0.00  0.00    +0.000 C 
ENDBRANCH  17  18
ENDBRANCH  10  12
ENDBRANCH   6   8
BRANCH   1  24
ATOM     24  S   UNL     1      -0.968  12.657  19.316  0.00  0.00    +0.000 S 
ATOM     25  O   UNL     1      -2.389  12.539  19.608  0.00  0.00    +0.000 OA
ATOM     26  O   UNL     1      -0.519  12.858  17.969  0.00  0.00    +0.000 OA
BRANCH  24  30
ATOM     27  N   UNL     1       1.264  15.865  18.723  0.00  0.00    +0.000 NA
ATOM     28  C   UNL     1       1.776  14.528  19.098  0.00  0.00    +0.000 C 
ATOM     29  C   UNL     1       1.178  13.919  20.388  0.00  0.00    +0.000 C 
ATOM     30  N   UNL     1      -0.318  13.882  20.343  0.00  0.00    +0.000 NA
ATOM     31  C   UNL     1      -0.798  15.298  20.088  0.00  0.00    +0.000 C 
ATOM     32  C   UNL     1      -0.222  15.860  18.771  0.00  0.00    +0.000 C 
BRANCH  27  34
ATOM     33  C   UNL     1       1.206  18.315  19.216  0.00  0.00    +0.000 C 
ATOM     34  C   UNL     1       1.819  16.956  19.533  0.00  0.00    +0.000 C 
ENDBRANCH  27  34
ENDBRANCH  24  30
ENDBRANCH   1  24
TORSDOF 6
ENDMDL
