MODEL 1
REMARK VINA RESULT:      -8.7      0.000      0.000
REMARK  Name = 
REMARK  10 active torsions:
REMARK  status: ('A' for Active; 'I' for Inactive)
REMARK    1  A    between atoms: C_1  and  C_2
REMARK    2  A    between atoms: C_5  and  C_6
REMARK    3  A    between atoms: C_6  and  N_7
REMARK    4  A    between atoms: C_8  and  C_10
REMARK    5  A    between atoms: C_10  and  S_11
REMARK    6  A    between atoms: S_11  and  C_13
REMARK    7  A    between atoms: C_13  and  C_14
REMARK    8  A    between atoms: C_16  and  C_17
REMARK    9  A    between atoms: C_22  and  C_23
REMARK   10  A    between atoms: C_25  and  C_26
REMARK                            x       y       z     vdW  Elec       q    Type
REMARK                         _______ _______ _______ _____ _____    ______ ____
ROOT
ATOM      1  S   UNL     1       1.482   4.071  20.851  0.00  0.00    +0.000 S 
ATOM      2  O   UNL     1       2.216   3.375  22.059  0.00  0.00    +0.000 OA
ENDROOT
BRANCH   1   3
ATOM      3  C   UNL     1       1.288   2.822  19.535  0.00  0.00    +0.000 C 
BRANCH   3   5
ATOM      4  N   UNL     1       3.330   2.890  18.168  0.00  0.00    +0.000 N 
ATOM      5  C   UNL     1       1.998   3.219  18.248  0.00  0.00    +0.000 C 
ATOM      6  O   UNL     1       1.421   3.864  17.375  0.00  0.00    +0.000 OA
ATOM      7  H   UNL     1       3.720   2.249  18.859  0.00  0.00    +0.000 HD
BRANCH   4   8
ATOM      8  C   UNL     1       4.133   3.148  16.996  0.00  0.00    +0.000 C 
BRANCH   8  13
ATOM      9  C   UNL     1       7.794   7.614  17.819  0.00  0.00    +0.000 C 
ATOM     10  C   UNL     1       6.878   6.448  17.596  0.00  0.00    +0.000 A 
ATOM     11  C   UNL     1       6.306   6.208  16.343  0.00  0.00    +0.000 A 
ATOM     12  C   UNL     1       5.437   5.129  16.154  0.00  0.00    +0.000 A 
ATOM     13  C   UNL     1       5.126   4.265  17.213  0.00  0.00    +0.000 A 
ATOM     14  C   UNL     1       5.697   4.517  18.470  0.00  0.00    +0.000 A 
ATOM     15  C   UNL     1       6.572   5.591  18.656  0.00  0.00    +0.000 A 
ENDBRANCH   8  13
ENDBRANCH   4   8
ENDBRANCH   3   5
ENDBRANCH   1   3
BRANCH   1  16
ATOM     16  C   UNL     1       2.692   5.136  20.021  0.00  0.00    +0.000 C 
BRANCH  16  17
ATOM     17  C   UNL     1       2.207   6.526  19.934  0.00  0.00    +0.000 A 
ATOM     18  N   UNL     1       1.392   7.035  20.916  0.00  0.00    +0.000 NA
ATOM     19  C   UNL     1       1.153   8.278  20.548  0.00  0.00    +0.000 A 
ATOM     20  O   UNL     1       1.775   8.624  19.373  0.00  0.00    +0.000 OA
ATOM     21  C   UNL     1       2.448   7.503  18.988  0.00  0.00    +0.000 A 
ATOM     22  C   UNL     1       3.233   7.589  17.747  0.00  0.00    +0.000 C 
BRANCH  19  23
ATOM     23  C   UNL     1       0.350   9.319  21.196  0.00  0.00    +0.000 A 
ATOM     24  C   UNL     1       0.214   9.316  22.601  0.00  0.00    +0.000 A 
ATOM     25  C   UNL     1      -0.542  10.287  23.257  0.00  0.00    +0.000 A 
ATOM     26  C   UNL     1      -1.175  11.282  22.525  0.00  0.00    +0.000 A 
ATOM     27  C   UNL     1      -1.056  11.306  21.138  0.00  0.00    +0.000 A 
ATOM     28  C   UNL     1      -0.300  10.336  20.457  0.00  0.00    +0.000 A 
ATOM     29  C   UNL     1      -0.231  10.415  18.953  0.00  0.00    +0.000 C 
ENDBRANCH  19  23
ENDBRANCH  16  17
ENDBRANCH   1  16
TORSDOF 7
ENDMDL
MODEL 2
REMARK VINA RESULT:      -8.7      2.598      6.471
REMARK  Name = 
REMARK  10 active torsions:
REMARK  status: ('A' for Active; 'I' for Inactive)
REMARK    1  A    between atoms: C_1  and  C_2
REMARK    2  A    between atoms: C_5  and  C_6
REMARK    3  A    between atoms: C_6  and  N_7
REMARK    4  A    between atoms: C_8  and  C_10
REMARK    5  A    between atoms: C_10  and  S_11
REMARK    6  A    between atoms: S_11  and  C_13
REMARK    7  A    between atoms: C_13  and  C_14
REMARK    8  A    between atoms: C_16  and  C_17
REMARK    9  A    between atoms: C_22  and  C_23
REMARK   10  A    between atoms: C_25  and  C_26
REMARK                            x       y       z     vdW  Elec       q    Type
REMARK                         _______ _______ _______ _____ _____    ______ ____
ROOT
ATOM      1  S   UNL     1       7.858   5.971  18.697  0.00  0.00    +0.000 S 
ATOM      2  O   UNL     1       6.762   5.868  19.823  0.00  0.00    +0.000 OA
ENDROOT
BRANCH   1   3
ATOM      3  C   UNL     1       7.374   7.335  17.586  0.00  0.00    +0.000 C 
BRANCH   3   5
ATOM      4  N   UNL     1       4.942   7.120  17.877  0.00  0.00    +0.000 N 
ATOM      5  C   UNL     1       5.989   7.133  16.987  0.00  0.00    +0.000 C 
ATOM      6  O   UNL     1       5.840   6.917  15.786  0.00  0.00    +0.000 OA
ATOM      7  H   UNL     1       5.109   7.428  18.835  0.00  0.00    +0.000 HD
BRANCH   4   8
ATOM      8  C   UNL     1       3.564   6.991  17.467  0.00  0.00    +0.000 C 
BRANCH   8  13
ATOM      9  C   UNL     1       0.089   9.871  21.162  0.00  0.00    +0.000 C 
ATOM     10  C   UNL     1       0.957   9.112  20.203  0.00  0.00    +0.000 A 
ATOM     11  C   UNL     1       1.545   7.897  20.567  0.00  0.00    +0.000 A 
ATOM     12  C   UNL     1       2.369   7.210  19.670  0.00  0.00    +0.000 A 
ATOM     13  C   UNL     1       2.618   7.721  18.389  0.00  0.00    +0.000 A 
ATOM     14  C   UNL     1       2.031   8.945  18.034  0.00  0.00    +0.000 A 
ATOM     15  C   UNL     1       1.202   9.628  18.927  0.00  0.00    +0.000 A 
ENDBRANCH   8  13
ENDBRANCH   4   8
ENDBRANCH   3   5
ENDBRANCH   1   3
BRANCH   1  16
ATOM     16  C   UNL     1       7.588   4.594  17.549  0.00  0.00    +0.000 C 
BRANCH  16  17
ATOM     17  C   UNL     1       6.199   4.107  17.618  0.00  0.00    +0.000 A 
ATOM     18  N   UNL     1       5.542   4.062  18.825  0.00  0.00    +0.000 NA
ATOM     19  C   UNL     1       4.343   3.596  18.541  0.00  0.00    +0.000 A 
ATOM     20  O   UNL     1       4.164   3.335  17.204  0.00  0.00    +0.000 OA
ATOM     21  C   UNL     1       5.351   3.666  16.620  0.00  0.00    +0.000 A 
ATOM     22  C   UNL     1       5.446   3.502  15.161  0.00  0.00    +0.000 C 
BRANCH  19  23
ATOM     23  C   UNL     1       3.198   3.331  19.418  0.00  0.00    +0.000 A 
ATOM     24  C   UNL     1       3.420   2.783  20.700  0.00  0.00    +0.000 A 
ATOM     25  C   UNL     1       2.360   2.514  21.565  0.00  0.00    +0.000 A 
ATOM     26  C   UNL     1       1.058   2.789  21.171  0.00  0.00    +0.000 A 
ATOM     27  C   UNL     1       0.814   3.330  19.911  0.00  0.00    +0.000 A 
ATOM     28  C   UNL     1       1.867   3.607  19.023  0.00  0.00    +0.000 A 
ATOM     29  C   UNL     1       1.526   4.175  17.668  0.00  0.00    +0.000 C 
ENDBRANCH  19  23
ENDBRANCH  16  17
ENDBRANCH   1  16
TORSDOF 7
ENDMDL
MODEL 3
REMARK VINA RESULT:      -8.2      1.034      1.593
REMARK  Name = 
REMARK  10 active torsions:
REMARK  status: ('A' for Active; 'I' for Inactive)
REMARK    1  A    between atoms: C_1  and  C_2
REMARK    2  A    between atoms: C_5  and  C_6
REMARK    3  A    between atoms: C_6  and  N_7
REMARK    4  A    between atoms: C_8  and  C_10
REMARK    5  A    between atoms: C_10  and  S_11
REMARK    6  A    between atoms: S_11  and  C_13
REMARK    7  A    between atoms: C_13  and  C_14
REMARK    8  A    between atoms: C_16  and  C_17
REMARK    9  A    between atoms: C_22  and  C_23
REMARK   10  A    between atoms: C_25  and  C_26
REMARK                            x       y       z     vdW  Elec       q    Type
REMARK                         _______ _______ _______ _____ _____    ______ ____
ROOT
ATOM      1  S   UNL     1       1.609   3.642  19.491  0.00  0.00    +0.000 S 
ATOM      2  O   UNL     1       0.769   2.762  20.492  0.00  0.00    +0.000 OA
ENDROOT
BRANCH   1   3
ATOM      3  C   UNL     1       2.974   2.607  18.865  0.00  0.00    +0.000 C 
BRANCH   3   5
ATOM      4  N   UNL     1       5.064   3.481  17.910  0.00  0.00    +0.000 N 
ATOM      5  C   UNL     1       3.721   3.264  17.713  0.00  0.00    +0.000 C 
ATOM      6  O   UNL     1       3.130   3.643  16.704  0.00  0.00    +0.000 OA
ATOM      7  H   UNL     1       5.521   3.034  18.705  0.00  0.00    +0.000 HD
BRANCH   4   8
ATOM      8  C   UNL     1       5.925   4.045  16.898  0.00  0.00    +0.000 C 
BRANCH   8  13
ATOM      9  C   UNL     1       8.696   8.889  18.597  0.00  0.00    +0.000 C 
ATOM     10  C   UNL     1       7.959   7.651  18.181  0.00  0.00    +0.000 A 
ATOM     11  C   UNL     1       8.048   6.472  18.926  0.00  0.00    +0.000 A 
ATOM     12  C   UNL     1       7.373   5.319  18.515  0.00  0.00    +0.000 A 
ATOM     13  C   UNL     1       6.589   5.322  17.353  0.00  0.00    +0.000 A 
ATOM     14  C   UNL     1       6.511   6.508  16.606  0.00  0.00    +0.000 A 
ATOM     15  C   UNL     1       7.180   7.662  17.021  0.00  0.00    +0.000 A 
ENDBRANCH   8  13
ENDBRANCH   4   8
ENDBRANCH   3   5
ENDBRANCH   1   3
BRANCH   1  16
ATOM     16  C   UNL     1       2.594   4.799  20.480  0.00  0.00    +0.000 C 
BRANCH  16  17
ATOM     17  C   UNL     1       2.175   6.193  20.243  0.00  0.00    +0.000 A 
ATOM     18  N   UNL     1       1.371   6.836  21.155  0.00  0.00    +0.000 NA
ATOM     19  C   UNL     1       1.195   8.044  20.658  0.00  0.00    +0.000 A 
ATOM     20  O   UNL     1       1.846   8.240  19.464  0.00  0.00    +0.000 OA
ATOM     21  C   UNL     1       2.473   7.057  19.208  0.00  0.00    +0.000 A 
ATOM     22  C   UNL     1       3.277   6.980  17.978  0.00  0.00    +0.000 C 
BRANCH  19  23
ATOM     23  C   UNL     1       0.432   9.181  21.183  0.00  0.00    +0.000 A 
ATOM     24  C   UNL     1       0.004   9.167  22.528  0.00  0.00    +0.000 A 
ATOM     25  C   UNL     1      -0.725  10.227  23.066  0.00  0.00    +0.000 A 
ATOM     26  C   UNL     1      -1.039  11.322  22.275  0.00  0.00    +0.000 A 
ATOM     27  C   UNL     1      -0.629  11.359  20.945  0.00  0.00    +0.000 A 
ATOM     28  C   UNL     1       0.105  10.301  20.382  0.00  0.00    +0.000 A 
ATOM     29  C   UNL     1       0.500  10.402  18.930  0.00  0.00    +0.000 C 
ENDBRANCH  19  23
ENDBRANCH  16  17
ENDBRANCH   1  16
TORSDOF 7
ENDMDL
MODEL 4
REMARK VINA RESULT:      -8.2      1.569      6.467
REMARK  Name = 
REMARK  10 active torsions:
REMARK  status: ('A' for Active; 'I' for Inactive)
REMARK    1  A    between atoms: C_1  and  C_2
REMARK    2  A    between atoms: C_5  and  C_6
REMARK    3  A    between atoms: C_6  and  N_7
REMARK    4  A    between atoms: C_8  and  C_10
REMARK    5  A    between atoms: C_10  and  S_11
REMARK    6  A    between atoms: S_11  and  C_13
REMARK    7  A    between atoms: C_13  and  C_14
REMARK    8  A    between atoms: C_16  and  C_17
REMARK    9  A    between atoms: C_22  and  C_23
REMARK   10  A    between atoms: C_25  and  C_26
REMARK                            x       y       z     vdW  Elec       q    Type
REMARK                         _______ _______ _______ _____ _____    ______ ____
ROOT
ATOM      1  S   UNL     1       2.156   3.281  21.435  0.00  0.00    +0.000 S 
ATOM      2  O   UNL     1       1.350   2.362  22.428  0.00  0.00    +0.000 OA
ENDROOT
BRANCH   1   3
ATOM      3  C   UNL     1       1.112   3.540  19.961  0.00  0.00    +0.000 C 
BRANCH   3   5
ATOM      4  N   UNL     1       2.080   5.796  19.820  0.00  0.00    +0.000 N 
ATOM      5  C   UNL     1       1.573   4.725  19.123  0.00  0.00    +0.000 C 
ATOM      6  O   UNL     1       1.422   4.739  17.904  0.00  0.00    +0.000 OA
ATOM      7  H   UNL     1       2.298   5.678  20.809  0.00  0.00    +0.000 HD
BRANCH   4   8
ATOM      8  C   UNL     1       2.607   6.973  19.174  0.00  0.00    +0.000 C 
BRANCH   8  13
ATOM      9  C   UNL     1      -0.701  11.665  20.208  0.00  0.00    +0.000 C 
ATOM     10  C   UNL     1       0.177  10.477  19.949  0.00  0.00    +0.000 A 
ATOM     11  C   UNL     1       0.786  10.286  18.706  0.00  0.00    +0.000 A 
ATOM     12  C   UNL     1       1.585   9.163  18.471  0.00  0.00    +0.000 A 
ATOM     13  C   UNL     1       1.795   8.210  19.476  0.00  0.00    +0.000 A 
ATOM     14  C   UNL     1       1.173   8.404  20.720  0.00  0.00    +0.000 A 
ATOM     15  C   UNL     1       0.382   9.530  20.956  0.00  0.00    +0.000 A 
ENDBRANCH   8  13
ENDBRANCH   4   8
ENDBRANCH   3   5
ENDBRANCH   1   3
BRANCH   1  16
ATOM     16  C   UNL     1       3.438   2.255  20.665  0.00  0.00    +0.000 C 
BRANCH  16  17
ATOM     17  C   UNL     1       4.133   2.987  19.591  0.00  0.00    +0.000 A 
ATOM     18  N   UNL     1       4.910   4.081  19.892  0.00  0.00    +0.000 NA
ATOM     19  C   UNL     1       5.385   4.488  18.733  0.00  0.00    +0.000 A 
ATOM     20  O   UNL     1       4.969   3.717  17.674  0.00  0.00    +0.000 OA
ATOM     21  C   UNL     1       4.174   2.759  18.230  0.00  0.00    +0.000 A 
ATOM     22  C   UNL     1       3.592   1.764  17.316  0.00  0.00    +0.000 C 
BRANCH  19  23
ATOM     23  C   UNL     1       6.276   5.609  18.416  0.00  0.00    +0.000 A 
ATOM     24  C   UNL     1       7.443   5.806  19.185  0.00  0.00    +0.000 A 
ATOM     25  C   UNL     1       8.316   6.860  18.919  0.00  0.00    +0.000 A 
ATOM     26  C   UNL     1       8.044   7.738  17.879  0.00  0.00    +0.000 A 
ATOM     27  C   UNL     1       6.898   7.565  17.106  0.00  0.00    +0.000 A 
ATOM     28  C   UNL     1       6.004   6.510  17.359  0.00  0.00    +0.000 A 
ATOM     29  C   UNL     1       4.775   6.396  16.493  0.00  0.00    +0.000 C 
ENDBRANCH  19  23
ENDBRANCH  16  17
ENDBRANCH   1  16
TORSDOF 7
ENDMDL
MODEL 5
REMARK VINA RESULT:      -8.0      1.334      2.142
REMARK  Name = 
REMARK  10 active torsions:
REMARK  status: ('A' for Active; 'I' for Inactive)
REMARK    1  A    between atoms: C_1  and  C_2
REMARK    2  A    between atoms: C_5  and  C_6
REMARK    3  A    between atoms: C_6  and  N_7
REMARK    4  A    between atoms: C_8  and  C_10
REMARK    5  A    between atoms: C_10  and  S_11
REMARK    6  A    between atoms: S_11  and  C_13
REMARK    7  A    between atoms: C_13  and  C_14
REMARK    8  A    between atoms: C_16  and  C_17
REMARK    9  A    between atoms: C_22  and  C_23
REMARK   10  A    between atoms: C_25  and  C_26
REMARK                            x       y       z     vdW  Elec       q    Type
REMARK                         _______ _______ _______ _____ _____    ______ ____
ROOT
ATOM      1  S   UNL     1       1.774   4.485  19.287  0.00  0.00    +0.000 S 
ATOM      2  O   UNL     1       0.620   3.636  19.942  0.00  0.00    +0.000 OA
ENDROOT
BRANCH   1   3
ATOM      3  C   UNL     1       3.265   3.436  19.239  0.00  0.00    +0.000 C 
BRANCH   3   5
ATOM      4  N   UNL     1       5.575   3.754  18.462  0.00  0.00    +0.000 N 
ATOM      5  C   UNL     1       4.241   3.861  18.151  0.00  0.00    +0.000 C 
ATOM      6  O   UNL     1       3.844   4.343  17.092  0.00  0.00    +0.000 OA
ATOM      7  H   UNL     1       5.844   3.233  19.297  0.00  0.00    +0.000 HD
BRANCH   4   8
ATOM      8  C   UNL     1       6.627   4.066  17.524  0.00  0.00    +0.000 C 
BRANCH   8  13
ATOM      9  C   UNL     1       8.539   9.520  18.318  0.00  0.00    +0.000 C 
ATOM     10  C   UNL     1       8.074   8.112  18.095  0.00  0.00    +0.000 A 
ATOM     11  C   UNL     1       7.351   7.762  16.951  0.00  0.00    +0.000 A 
ATOM     12  C   UNL     1       6.905   6.450  16.766  0.00  0.00    +0.000 A 
ATOM     13  C   UNL     1       7.178   5.459  17.718  0.00  0.00    +0.000 A 
ATOM     14  C   UNL     1       7.897   5.819  18.868  0.00  0.00    +0.000 A 
ATOM     15  C   UNL     1       8.349   7.128  19.050  0.00  0.00    +0.000 A 
ENDBRANCH   8  13
ENDBRANCH   4   8
ENDBRANCH   3   5
ENDBRANCH   1   3
BRANCH   1  16
ATOM     16  C   UNL     1       2.339   5.681  20.527  0.00  0.00    +0.000 C 
BRANCH  16  17
ATOM     17  C   UNL     1       1.919   7.051  20.178  0.00  0.00    +0.000 A 
ATOM     18  N   UNL     1       1.075   7.746  21.010  0.00  0.00    +0.000 NA
ATOM     19  C   UNL     1       0.908   8.915  20.423  0.00  0.00    +0.000 A 
ATOM     20  O   UNL     1       1.604   9.034  19.245  0.00  0.00    +0.000 OA
ATOM     21  C   UNL     1       2.249   7.843  19.096  0.00  0.00    +0.000 A 
ATOM     22  C   UNL     1       3.101   7.689  17.906  0.00  0.00    +0.000 C 
BRANCH  19  23
ATOM     23  C   UNL     1       0.116  10.077  20.837  0.00  0.00    +0.000 A 
ATOM     24  C   UNL     1      -0.318  11.003  19.864  0.00  0.00    +0.000 A 
ATOM     25  C   UNL     1      -1.071  12.122  20.215  0.00  0.00    +0.000 A 
ATOM     26  C   UNL     1      -1.409  12.340  21.543  0.00  0.00    +0.000 A 
ATOM     27  C   UNL     1      -0.993  11.441  22.522  0.00  0.00    +0.000 A 
ATOM     28  C   UNL     1      -0.232  10.307  22.190  0.00  0.00    +0.000 A 
ATOM     29  C   UNL     1       0.199   9.388  23.305  0.00  0.00    +0.000 C 
ENDBRANCH  19  23
ENDBRANCH  16  17
ENDBRANCH   1  16
TORSDOF 7
ENDMDL
MODEL 6
REMARK VINA RESULT:      -7.9      1.738      2.414
REMARK  Name = 
REMARK  10 active torsions:
REMARK  status: ('A' for Active; 'I' for Inactive)
REMARK    1  A    between atoms: C_1  and  C_2
REMARK    2  A    between atoms: C_5  and  C_6
REMARK    3  A    between atoms: C_6  and  N_7
REMARK    4  A    between atoms: C_8  and  C_10
REMARK    5  A    between atoms: C_10  and  S_11
REMARK    6  A    between atoms: S_11  and  C_13
REMARK    7  A    between atoms: C_13  and  C_14
REMARK    8  A    between atoms: C_16  and  C_17
REMARK    9  A    between atoms: C_22  and  C_23
REMARK   10  A    between atoms: C_25  and  C_26
REMARK                            x       y       z     vdW  Elec       q    Type
REMARK                         _______ _______ _______ _____ _____    ______ ____
ROOT
ATOM      1  S   UNL     1       1.592   3.877  19.345  0.00  0.00    +0.000 S 
ATOM      2  O   UNL     1       0.458   3.291  20.267  0.00  0.00    +0.000 OA
ENDROOT
BRANCH   1   3
ATOM      3  C   UNL     1       2.853   2.576  19.133  0.00  0.00    +0.000 C 
BRANCH   3   5
ATOM      4  N   UNL     1       4.475   3.903  17.848  0.00  0.00    +0.000 N 
ATOM      5  C   UNL     1       4.255   3.146  18.974  0.00  0.00    +0.000 C 
ATOM      6  O   UNL     1       5.149   2.872  19.772  0.00  0.00    +0.000 OA
ATOM      7  H   UNL     1       3.672   4.200  17.293  0.00  0.00    +0.000 HD
BRANCH   4   8
ATOM      8  C   UNL     1       5.732   4.557  17.574  0.00  0.00    +0.000 C 
BRANCH   8  13
ATOM      9  C   UNL     1       7.086   4.339  11.904  0.00  0.00    +0.000 C 
ATOM     10  C   UNL     1       6.751   4.366  13.366  0.00  0.00    +0.000 A 
ATOM     11  C   UNL     1       5.596   3.749  13.854  0.00  0.00    +0.000 A 
ATOM     12  C   UNL     1       5.285   3.799  15.216  0.00  0.00    +0.000 A 
ATOM     13  C   UNL     1       6.126   4.462  16.120  0.00  0.00    +0.000 A 
ATOM     14  C   UNL     1       7.281   5.086  15.621  0.00  0.00    +0.000 A 
ATOM     15  C   UNL     1       7.595   5.029  14.261  0.00  0.00    +0.000 A 
ENDBRANCH   8  13
ENDBRANCH   4   8
ENDBRANCH   3   5
ENDBRANCH   1   3
BRANCH   1  16
ATOM     16  C   UNL     1       2.571   5.025  20.350  0.00  0.00    +0.000 C 
BRANCH  16  17
ATOM     17  C   UNL     1       2.122   6.417  20.160  0.00  0.00    +0.000 A 
ATOM     18  N   UNL     1       1.297   7.008  21.087  0.00  0.00    +0.000 NA
ATOM     19  C   UNL     1       1.097   8.229  20.632  0.00  0.00    +0.000 A 
ATOM     20  O   UNL     1       1.753   8.482  19.451  0.00  0.00    +0.000 OA
ATOM     21  C   UNL     1       2.408   7.323  19.158  0.00  0.00    +0.000 A 
ATOM     22  C   UNL     1       3.222   7.308  17.933  0.00  0.00    +0.000 C 
BRANCH  19  23
ATOM     23  C   UNL     1       0.305   9.329  21.190  0.00  0.00    +0.000 A 
ATOM     24  C   UNL     1       0.114   9.408  22.586  0.00  0.00    +0.000 A 
ATOM     25  C   UNL     1      -0.634  10.436  23.158  0.00  0.00    +0.000 A 
ATOM     26  C   UNL     1      -1.204  11.408  22.349  0.00  0.00    +0.000 A 
ATOM     27  C   UNL     1      -1.031  11.353  20.969  0.00  0.00    +0.000 A 
ATOM     28  C   UNL     1      -0.282  10.324  20.372  0.00  0.00    +0.000 A 
ATOM     29  C   UNL     1      -0.152  10.317  18.869  0.00  0.00    +0.000 C 
ENDBRANCH  19  23
ENDBRANCH  16  17
ENDBRANCH   1  16
TORSDOF 7
ENDMDL
MODEL 7
REMARK VINA RESULT:      -7.9      3.104      9.229
REMARK  Name = 
REMARK  10 active torsions:
REMARK  status: ('A' for Active; 'I' for Inactive)
REMARK    1  A    between atoms: C_1  and  C_2
REMARK    2  A    between atoms: C_5  and  C_6
REMARK    3  A    between atoms: C_6  and  N_7
REMARK    4  A    between atoms: C_8  and  C_10
REMARK    5  A    between atoms: C_10  and  S_11
REMARK    6  A    between atoms: S_11  and  C_13
REMARK    7  A    between atoms: C_13  and  C_14
REMARK    8  A    between atoms: C_16  and  C_17
REMARK    9  A    between atoms: C_22  and  C_23
REMARK   10  A    between atoms: C_25  and  C_26
REMARK                            x       y       z     vdW  Elec       q    Type
REMARK                         _______ _______ _______ _____ _____    ______ ____
ROOT
ATOM      1  S   UNL     1      -0.235   9.033  21.325  0.00  0.00    +0.000 S 
ATOM      2  O   UNL     1      -0.660   9.845  20.044  0.00  0.00    +0.000 OA
ENDROOT
BRANCH   1   3
ATOM      3  C   UNL     1      -0.230  10.194  22.732  0.00  0.00    +0.000 C 
BRANCH   3   5
ATOM      4  N   UNL     1      -1.107  12.165  21.554  0.00  0.00    +0.000 N 
ATOM      5  C   UNL     1      -1.285  11.282  22.592  0.00  0.00    +0.000 C 
ATOM      6  O   UNL     1      -2.193  11.398  23.412  0.00  0.00    +0.000 OA
ATOM      7  H   UNL     1      -0.416  11.946  20.837  0.00  0.00    +0.000 HD
BRANCH   4   8
ATOM      8  C   UNL     1      -2.044  13.221  21.253  0.00  0.00    +0.000 C 
BRANCH   8  13
ATOM      9  C   UNL     1      -6.565  11.100  18.237  0.00  0.00    +0.000 C 
ATOM     10  C   UNL     1      -5.405  11.674  18.995  0.00  0.00    +0.000 A 
ATOM     11  C   UNL     1      -4.109  11.633  18.473  0.00  0.00    +0.000 A 
ATOM     12  C   UNL     1      -3.033  12.153  19.200  0.00  0.00    +0.000 A 
ATOM     13  C   UNL     1      -3.233  12.729  20.462  0.00  0.00    +0.000 A 
ATOM     14  C   UNL     1      -4.535  12.758  20.984  0.00  0.00    +0.000 A 
ATOM     15  C   UNL     1      -5.611  12.246  20.254  0.00  0.00    +0.000 A 
ENDBRANCH   8  13
ENDBRANCH   4   8
ENDBRANCH   3   5
ENDBRANCH   1   3
BRANCH   1  16
ATOM     16  C   UNL     1       1.552   8.748  21.219  0.00  0.00    +0.000 C 
BRANCH  16  17
ATOM     17  C   UNL     1       1.883   7.851  20.097  0.00  0.00    +0.000 A 
ATOM     18  N   UNL     1       2.049   6.504  20.315  0.00  0.00    +0.000 NA
ATOM     19  C   UNL     1       2.322   6.000  19.129  0.00  0.00    +0.000 A 
ATOM     20  O   UNL     1       2.341   6.942  18.129  0.00  0.00    +0.000 OA
ATOM     21  C   UNL     1       2.057   8.121  18.754  0.00  0.00    +0.000 A 
ATOM     22  C   UNL     1       1.992   9.324  17.909  0.00  0.00    +0.000 C 
BRANCH  19  23
ATOM     23  C   UNL     1       2.594   4.616  18.728  0.00  0.00    +0.000 A 
ATOM     24  C   UNL     1       3.600   4.355  17.772  0.00  0.00    +0.000 A 
ATOM     25  C   UNL     1       3.889   3.054  17.362  0.00  0.00    +0.000 A 
ATOM     26  C   UNL     1       3.184   1.987  17.900  0.00  0.00    +0.000 A 
ATOM     27  C   UNL     1       2.188   2.218  18.845  0.00  0.00    +0.000 A 
ATOM     28  C   UNL     1       1.878   3.521  19.270  0.00  0.00    +0.000 A 
ATOM     29  C   UNL     1       0.775   3.697  20.283  0.00  0.00    +0.000 C 
ENDBRANCH  19  23
ENDBRANCH  16  17
ENDBRANCH   1  16
TORSDOF 7
ENDMDL
MODEL 8
REMARK VINA RESULT:      -7.8      5.056      8.122
REMARK  Name = 
REMARK  10 active torsions:
REMARK  status: ('A' for Active; 'I' for Inactive)
REMARK    1  A    between atoms: C_1  and  C_2
REMARK    2  A    between atoms: C_5  and  C_6
REMARK    3  A    between atoms: C_6  and  N_7
REMARK    4  A    between atoms: C_8  and  C_10
REMARK    5  A    between atoms: C_10  and  S_11
REMARK    6  A    between atoms: S_11  and  C_13
REMARK    7  A    between atoms: C_13  and  C_14
REMARK    8  A    between atoms: C_16  and  C_17
REMARK    9  A    between atoms: C_22  and  C_23
REMARK   10  A    between atoms: C_25  and  C_26
REMARK                            x       y       z     vdW  Elec       q    Type
REMARK                         _______ _______ _______ _____ _____    ______ ____
ROOT
ATOM      1  S   UNL     1       7.500   7.188  17.407  0.00  0.00    +0.000 S 
ATOM      2  O   UNL     1       7.463   6.446  18.796  0.00  0.00    +0.000 OA
ENDROOT
BRANCH   1   3
ATOM      3  C   UNL     1       7.366   8.977  17.739  0.00  0.00    +0.000 C 
BRANCH   3   5
ATOM      4  N   UNL     1       9.101  10.715  17.849  0.00  0.00    +0.000 N 
ATOM      5  C   UNL     1       8.623   9.544  18.385  0.00  0.00    +0.000 C 
ATOM      6  O   UNL     1       9.207   8.938  19.281  0.00  0.00    +0.000 OA
ATOM      7  H   UNL     1       8.510  11.234  17.199  0.00  0.00    +0.000 HD
BRANCH   4   8
ATOM      8  C   UNL     1      10.250  11.410  18.379  0.00  0.00    +0.000 C 
BRANCH   8  13
ATOM      9  C   UNL     1      10.358  17.104  17.116  0.00  0.00    +0.000 C 
ATOM     10  C   UNL     1      10.313  15.634  17.413  0.00  0.00    +0.000 A 
ATOM     11  C   UNL     1       9.222  15.065  18.076  0.00  0.00    +0.000 A 
ATOM     12  C   UNL     1       9.201  13.697  18.366  0.00  0.00    +0.000 A 
ATOM     13  C   UNL     1      10.270  12.869  17.994  0.00  0.00    +0.000 A 
ATOM     14  C   UNL     1      11.365  13.450  17.336  0.00  0.00    +0.000 A 
ATOM     15  C   UNL     1      11.381  14.815  17.040  0.00  0.00    +0.000 A 
ENDBRANCH   8  13
ENDBRANCH   4   8
ENDBRANCH   3   5
ENDBRANCH   1   3
BRANCH   1  16
ATOM     16  C   UNL     1       5.883   6.950  16.622  0.00  0.00    +0.000 C 
BRANCH  16  17
ATOM     17  C   UNL     1       5.250   5.697  17.072  0.00  0.00    +0.000 A 
ATOM     18  N   UNL     1       4.358   5.711  18.118  0.00  0.00    +0.000 NA
ATOM     19  C   UNL     1       3.980   4.457  18.257  0.00  0.00    +0.000 A 
ATOM     20  O   UNL     1       4.570   3.608  17.353  0.00  0.00    +0.000 OA
ATOM     21  C   UNL     1       5.377   4.406  16.598  0.00  0.00    +0.000 A 
ATOM     22  C   UNL     1       6.135   3.757  15.516  0.00  0.00    +0.000 C 
BRANCH  19  23
ATOM     23  C   UNL     1       3.040   3.852  19.206  0.00  0.00    +0.000 A 
ATOM     24  C   UNL     1       3.515   3.383  20.450  0.00  0.00    +0.000 A 
ATOM     25  C   UNL     1       2.656   2.799  21.380  0.00  0.00    +0.000 A 
ATOM     26  C   UNL     1       1.304   2.674  21.090  0.00  0.00    +0.000 A 
ATOM     27  C   UNL     1       0.811   3.129  19.869  0.00  0.00    +0.000 A 
ATOM     28  C   UNL     1       1.660   3.718  18.917  0.00  0.00    +0.000 A 
ATOM     29  C   UNL     1       1.059   4.171  17.610  0.00  0.00    +0.000 C 
ENDBRANCH  19  23
ENDBRANCH  16  17
ENDBRANCH   1  16
TORSDOF 7
ENDMDL
MODEL 9
REMARK VINA RESULT:      -7.7      3.069      9.894
REMARK  Name = 
REMARK  10 active torsions:
REMARK  status: ('A' for Active; 'I' for Inactive)
REMARK    1  A    between atoms: C_1  and  C_2
REMARK    2  A    between atoms: C_5  and  C_6
REMARK    3  A    between atoms: C_6  and  N_7
REMARK    4  A    between atoms: C_8  and  C_10
REMARK    5  A    between atoms: C_10  and  S_11
REMARK    6  A    between atoms: S_11  and  C_13
REMARK    7  A    between atoms: C_13  and  C_14
REMARK    8  A    between atoms: C_16  and  C_17
REMARK    9  A    between atoms: C_22  and  C_23
REMARK   10  A    between atoms: C_25  and  C_26
REMARK                            x       y       z     vdW  Elec       q    Type
REMARK                         _______ _______ _______ _____ _____    ______ ____
ROOT
ATOM      1  S   UNL     1       1.291   9.399  21.346  0.00  0.00    +0.000 S 
ATOM      2  O   UNL     1       1.399   9.425  22.918  0.00  0.00    +0.000 OA
ENDROOT
BRANCH   1   3
ATOM      3  C   UNL     1      -0.457   9.694  20.913  0.00  0.00    +0.000 C 
BRANCH   3   5
ATOM      4  N   UNL     1      -1.269  11.311  22.577  0.00  0.00    +0.000 N 
ATOM      5  C   UNL     1      -0.913  11.102  21.266  0.00  0.00    +0.000 C 
ATOM      6  O   UNL     1      -1.026  11.970  20.403  0.00  0.00    +0.000 OA
ATOM      7  H   UNL     1      -1.036  10.598  23.268  0.00  0.00    +0.000 HD
BRANCH   4   8
ATOM      8  C   UNL     1      -1.674  12.600  23.084  0.00  0.00    +0.000 C 
BRANCH   8  13
ATOM      9  C   UNL     1      -7.478  12.822  23.625  0.00  0.00    +0.000 C 
ATOM     10  C   UNL     1      -5.985  12.798  23.490  0.00  0.00    +0.000 A 
ATOM     11  C   UNL     1      -5.364  13.078  22.269  0.00  0.00    +0.000 A 
ATOM     12  C   UNL     1      -3.972  13.031  22.152  0.00  0.00    +0.000 A 
ATOM     13  C   UNL     1      -3.170  12.708  23.256  0.00  0.00    +0.000 A 
ATOM     14  C   UNL     1      -3.800  12.421  24.477  0.00  0.00    +0.000 A 
ATOM     15  C   UNL     1      -5.191  12.475  24.595  0.00  0.00    +0.000 A 
ENDBRANCH   8  13
ENDBRANCH   4   8
ENDBRANCH   3   5
ENDBRANCH   1   3
BRANCH   1  16
ATOM     16  C   UNL     1       1.397   7.665  20.824  0.00  0.00    +0.000 C 
BRANCH  16  17
ATOM     17  C   UNL     1       2.163   7.532  19.571  0.00  0.00    +0.000 A 
ATOM     18  N   UNL     1       3.076   6.515  19.426  0.00  0.00    +0.000 NA
ATOM     19  C   UNL     1       3.569   6.673  18.214  0.00  0.00    +0.000 A 
ATOM     20  O   UNL     1       3.025   7.740  17.542  0.00  0.00    +0.000 OA
ATOM     21  C   UNL     1       2.126   8.282  18.412  0.00  0.00    +0.000 A 
ATOM     22  C   UNL     1       1.367   9.452  17.945  0.00  0.00    +0.000 C 
BRANCH  19  23
ATOM     23  C   UNL     1       4.580   5.892  17.494  0.00  0.00    +0.000 A 
ATOM     24  C   UNL     1       5.844   6.464  17.237  0.00  0.00    +0.000 A 
ATOM     25  C   UNL     1       6.833   5.756  16.554  0.00  0.00    +0.000 A 
ATOM     26  C   UNL     1       6.582   4.463  16.118  0.00  0.00    +0.000 A 
ATOM     27  C   UNL     1       5.343   3.877  16.360  0.00  0.00    +0.000 A 
ATOM     28  C   UNL     1       4.331   4.573  17.044  0.00  0.00    +0.000 A 
ATOM     29  C   UNL     1       3.008   3.881  17.254  0.00  0.00    +0.000 C 
ENDBRANCH  19  23
ENDBRANCH  16  17
ENDBRANCH   1  16
TORSDOF 7
ENDMDL
