MODEL 1
REMARK VINA RESULT:      -7.6      0.000      0.000
REMARK  Name = 
REMARK  4 active torsions:
REMARK  status: ('A' for Active; 'I' for Inactive)
REMARK    1  A    between atoms: C_1  and  O_2
REMARK    2  A    between atoms: O_2  and  C_3
REMARK    3  A    between atoms: C_6  and  C_7
REMARK    4  A    between atoms: C_7  and  N_8
REMARK                            x       y       z     vdW  Elec       q    Type
REMARK                         _______ _______ _______ _____ _____    ______ ____
ROOT
ATOM      1  N   UNL     1       0.356  10.119  19.497  0.00  0.00    +0.000 N 
ATOM      2  C   UNL     1      -0.571  10.011  18.473  0.00  0.00    +0.000 A 
ATOM      3  O   UNL     1      -0.304   9.451  17.411  0.00  0.00    +0.000 OA
ATOM      4  C   UNL     1      -1.907  10.696  18.635  0.00  0.00    +0.000 A 
ATOM      5  C   UNL     1      -2.093  11.526  19.696  0.00  0.00    +0.000 A 
ATOM      6  N   UNL     1      -1.157  11.510  20.729  0.00  0.00    +0.000 N 
ATOM      7  C   UNL     1      -1.137  12.053  21.987  0.00  0.00    +0.000 A 
ATOM      8  N   UNL     1      -0.005  11.771  22.592  0.00  0.00    +0.000 NA
ATOM      9  N   UNL     1       0.738  11.001  21.730  0.00  0.00    +0.000 NA
ATOM     10  C   UNL     1       0.026  10.819  20.642  0.00  0.00    +0.000 A 
ATOM     11  C   UNL     1      -3.334  12.342  19.760  0.00  0.00    +0.000 A 
ATOM     12  C   UNL     1      -3.433  13.591  20.385  0.00  0.00    +0.000 A 
ATOM     13  C   UNL     1      -4.688  14.136  20.643  0.00  0.00    +0.000 A 
ATOM     14  F   UNL     1      -4.778  15.316  21.271  0.00  0.00    +0.000 F 
ATOM     15  C   UNL     1      -5.848  13.457  20.298  0.00  0.00    +0.000 A 
ATOM     16  C   UNL     1      -5.749  12.290  19.548  0.00  0.00    +0.000 A 
ATOM     17  C   UNL     1      -4.489  11.796  19.195  0.00  0.00    +0.000 A 
ATOM     18  C   UNL     1      -4.351  10.642  18.243  0.00  0.00    +0.000 C 
ATOM     19  C   UNL     1      -2.960  10.558  17.529  0.00  0.00    +0.000 C 
ATOM     20  C   UNL     1      -2.598  11.645  16.486  0.00  0.00    +0.000 C 
ATOM     21  C   UNL     1      -3.116  11.193  15.137  0.00  0.00    +0.000 C 
ATOM     22  C   UNL     1      -3.168   9.679  15.198  0.00  0.00    +0.000 C 
ATOM     23  C   UNL     1      -3.060   9.261  16.666  0.00  0.00    +0.000 C 
ENDROOT
BRANCH   1  24
ATOM     24  C   UNL     1       1.719   9.681  19.255  0.00  0.00    +0.000 C 
BRANCH  24  28
ATOM     25  C   UNL     1       2.177   5.396  19.482  0.00  0.00    +0.000 A 
ATOM     26  C   UNL     1       1.759   6.115  20.605  0.00  0.00    +0.000 A 
ATOM     27  C   UNL     1       1.634   7.505  20.547  0.00  0.00    +0.000 A 
ATOM     28  C   UNL     1       1.944   8.193  19.368  0.00  0.00    +0.000 A 
ATOM     29  C   UNL     1       2.435   7.476  18.273  0.00  0.00    +0.000 A 
ATOM     30  C   UNL     1       2.539   6.099  18.328  0.00  0.00    +0.000 A 
BRANCH  25  32
ATOM     31  C   UNL     1       1.109   3.483  20.325  0.00  0.00    +0.000 C 
ATOM     32  O   UNL     1       2.208   4.035  19.605  0.00  0.00    +0.000 OA
ENDBRANCH  25  32
ENDBRANCH  24  28
ENDBRANCH   1  24
TORSDOF 3
ENDMDL
MODEL 2
REMARK VINA RESULT:      -7.2      2.466      3.770
REMARK  Name = 
REMARK  4 active torsions:
REMARK  status: ('A' for Active; 'I' for Inactive)
REMARK    1  A    between atoms: C_1  and  O_2
REMARK    2  A    between atoms: O_2  and  C_3
REMARK    3  A    between atoms: C_6  and  C_7
REMARK    4  A    between atoms: C_7  and  N_8
REMARK                            x       y       z     vdW  Elec       q    Type
REMARK                         _______ _______ _______ _____ _____    ______ ____
ROOT
ATOM      1  N   UNL     1      -1.828  12.435  20.216  0.00  0.00    +0.000 N 
ATOM      2  C   UNL     1      -3.090  12.193  19.698  0.00  0.00    +0.000 A 
ATOM      3  O   UNL     1      -3.252  11.717  18.576  0.00  0.00    +0.000 OA
ATOM      4  C   UNL     1      -4.293  12.630  20.500  0.00  0.00    +0.000 A 
ATOM      5  C   UNL     1      -4.099  13.386  21.612  0.00  0.00    +0.000 A 
ATOM      6  N   UNL     1      -2.807  13.508  22.122  0.00  0.00    +0.000 N 
ATOM      7  C   UNL     1      -2.301  14.012  23.291  0.00  0.00    +0.000 A 
ATOM      8  N   UNL     1      -0.990  13.916  23.304  0.00  0.00    +0.000 NA
ATOM      9  N   UNL     1      -0.612  13.311  22.130  0.00  0.00    +0.000 NA
ATOM     10  C   UNL     1      -1.704  13.037  21.453  0.00  0.00    +0.000 A 
ATOM     11  C   UNL     1      -5.281  13.971  22.298  0.00  0.00    +0.000 A 
ATOM     12  C   UNL     1      -5.267  15.166  23.027  0.00  0.00    +0.000 A 
ATOM     13  C   UNL     1      -6.336  15.477  23.864  0.00  0.00    +0.000 A 
ATOM     14  F   UNL     1      -6.303  16.606  24.585  0.00  0.00    +0.000 F 
ATOM     15  C   UNL     1      -7.415  14.615  23.998  0.00  0.00    +0.000 A 
ATOM     16  C   UNL     1      -7.497  13.503  23.166  0.00  0.00    +0.000 A 
ATOM     17  C   UNL     1      -6.475  13.246  22.246  0.00  0.00    +0.000 A 
ATOM     18  C   UNL     1      -6.615  12.160  21.219  0.00  0.00    +0.000 C 
ATOM     19  C   UNL     1      -5.699  12.339  19.962  0.00  0.00    +0.000 C 
ATOM     20  C   UNL     1      -6.007  13.499  18.982  0.00  0.00    +0.000 C 
ATOM     21  C   UNL     1      -7.006  13.000  17.960  0.00  0.00    +0.000 C 
ATOM     22  C   UNL     1      -6.806  11.498  17.883  0.00  0.00    +0.000 C 
ATOM     23  C   UNL     1      -5.988  11.068  19.103  0.00  0.00    +0.000 C 
ENDROOT
BRANCH   1  24
ATOM     24  C   UNL     1      -0.673  12.248  19.356  0.00  0.00    +0.000 C 
BRANCH  24  28
ATOM     25  C   UNL     1       1.450   8.521  19.825  0.00  0.00    +0.000 A 
ATOM     26  C   UNL     1       1.481   9.194  18.601  0.00  0.00    +0.000 A 
ATOM     27  C   UNL     1       0.775  10.387  18.433  0.00  0.00    +0.000 A 
ATOM     28  C   UNL     1       0.013  10.911  19.484  0.00  0.00    +0.000 A 
ATOM     29  C   UNL     1      -0.075  10.192  20.681  0.00  0.00    +0.000 A 
ATOM     30  C   UNL     1       0.641   9.022  20.849  0.00  0.00    +0.000 A 
BRANCH  25  32
ATOM     31  C   UNL     1       2.630   6.851  18.672  0.00  0.00    +0.000 C 
ATOM     32  O   UNL     1       2.222   7.397  19.924  0.00  0.00    +0.000 OA
ENDBRANCH  25  32
ENDBRANCH  24  28
ENDBRANCH   1  24
TORSDOF 3
ENDMDL
MODEL 3
REMARK VINA RESULT:      -7.2      4.454      8.864
REMARK  Name = 
REMARK  4 active torsions:
REMARK  status: ('A' for Active; 'I' for Inactive)
REMARK    1  A    between atoms: C_1  and  O_2
REMARK    2  A    between atoms: O_2  and  C_3
REMARK    3  A    between atoms: C_6  and  C_7
REMARK    4  A    between atoms: C_7  and  N_8
REMARK                            x       y       z     vdW  Elec       q    Type
REMARK                         _______ _______ _______ _____ _____    ______ ____
ROOT
ATOM      1  N   UNL     1      -5.469  12.283  19.096  0.00  0.00    +0.000 N 
ATOM      2  C   UNL     1      -4.967  12.623  20.342  0.00  0.00    +0.000 A 
ATOM      3  O   UNL     1      -5.685  13.078  21.230  0.00  0.00    +0.000 OA
ATOM      4  C   UNL     1      -3.476  12.526  20.568  0.00  0.00    +0.000 A 
ATOM      5  C   UNL     1      -2.668  12.272  19.506  0.00  0.00    +0.000 A 
ATOM      6  N   UNL     1      -3.248  11.849  18.310  0.00  0.00    +0.000 N 
ATOM      7  C   UNL     1      -2.735  11.338  17.147  0.00  0.00    +0.000 A 
ATOM      8  N   UNL     1      -3.699  11.101  16.285  0.00  0.00    +0.000 NA
ATOM      9  N   UNL     1      -4.884  11.436  16.894  0.00  0.00    +0.000 NA
ATOM     10  C   UNL     1      -4.606  11.841  18.112  0.00  0.00    +0.000 A 
ATOM     11  C   UNL     1      -1.195  12.359  19.687  0.00  0.00    +0.000 A 
ATOM     12  C   UNL     1      -0.288  12.705  18.678  0.00  0.00    +0.000 A 
ATOM     13  C   UNL     1       1.073  12.478  18.866  0.00  0.00    +0.000 A 
ATOM     14  F   UNL     1       1.933  12.780  17.885  0.00  0.00    +0.000 F 
ATOM     15  C   UNL     1       1.548  11.903  20.036  0.00  0.00    +0.000 A 
ATOM     16  C   UNL     1       0.667  11.696  21.092  0.00  0.00    +0.000 A 
ATOM     17  C   UNL     1      -0.685  12.024  20.944  0.00  0.00    +0.000 A 
ATOM     18  C   UNL     1      -1.624  11.977  22.115  0.00  0.00    +0.000 C 
ATOM     19  C   UNL     1      -2.905  12.862  21.951  0.00  0.00    +0.000 C 
ATOM     20  C   UNL     1      -2.745  14.403  21.960  0.00  0.00    +0.000 C 
ATOM     21  C   UNL     1      -2.822  14.876  23.397  0.00  0.00    +0.000 C 
ATOM     22  C   UNL     1      -3.644  13.835  24.132  0.00  0.00    +0.000 C 
ATOM     23  C   UNL     1      -3.721  12.585  23.252  0.00  0.00    +0.000 C 
ENDROOT
BRANCH   1  24
ATOM     24  C   UNL     1      -6.852  12.603  18.790  0.00  0.00    +0.000 C 
BRANCH  24  28
ATOM     25  C   UNL     1      -7.253  16.253  16.523  0.00  0.00    +0.000 A 
ATOM     26  C   UNL     1      -6.916  16.305  17.878  0.00  0.00    +0.000 A 
ATOM     27  C   UNL     1      -6.811  15.130  18.625  0.00  0.00    +0.000 A 
ATOM     28  C   UNL     1      -7.060  13.888  18.027  0.00  0.00    +0.000 A 
ATOM     29  C   UNL     1      -7.471  13.849  16.691  0.00  0.00    +0.000 A 
ATOM     30  C   UNL     1      -7.555  15.013  15.951  0.00  0.00    +0.000 A 
BRANCH  25  32
ATOM     31  C   UNL     1      -6.592  18.505  16.519  0.00  0.00    +0.000 C 
ATOM     32  O   UNL     1      -7.269  17.444  15.851  0.00  0.00    +0.000 OA
ENDBRANCH  25  32
ENDBRANCH  24  28
ENDBRANCH   1  24
TORSDOF 3
ENDMDL
MODEL 4
REMARK VINA RESULT:      -7.2      2.273      4.499
REMARK  Name = 
REMARK  4 active torsions:
REMARK  status: ('A' for Active; 'I' for Inactive)
REMARK    1  A    between atoms: C_1  and  O_2
REMARK    2  A    between atoms: O_2  and  C_3
REMARK    3  A    between atoms: C_6  and  C_7
REMARK    4  A    between atoms: C_7  and  N_8
REMARK                            x       y       z     vdW  Elec       q    Type
REMARK                         _______ _______ _______ _____ _____    ______ ____
ROOT
ATOM      1  N   UNL     1      -0.629  11.961  18.850  0.00  0.00    +0.000 N 
ATOM      2  C   UNL     1      -0.941  12.792  19.914  0.00  0.00    +0.000 A 
ATOM      3  O   UNL     1      -0.071  13.282  20.632  0.00  0.00    +0.000 OA
ATOM      4  C   UNL     1      -2.396  13.008  20.257  0.00  0.00    +0.000 A 
ATOM      5  C   UNL     1      -3.336  12.258  19.624  0.00  0.00    +0.000 A 
ATOM      6  N   UNL     1      -2.959  11.517  18.504  0.00  0.00    +0.000 N 
ATOM      7  C   UNL     1      -3.663  10.833  17.549  0.00  0.00    +0.000 A 
ATOM      8  N   UNL     1      -2.844  10.270  16.689  0.00  0.00    +0.000 NA
ATOM      9  N   UNL     1      -1.565  10.606  17.062  0.00  0.00    +0.000 NA
ATOM     10  C   UNL     1      -1.648  11.381  18.118  0.00  0.00    +0.000 A 
ATOM     11  C   UNL     1      -4.747  12.335  20.087  0.00  0.00    +0.000 A 
ATOM     12  C   UNL     1      -5.674  11.291  19.988  0.00  0.00    +0.000 A 
ATOM     13  C   UNL     1      -7.029  11.551  20.178  0.00  0.00    +0.000 A 
ATOM     14  F   UNL     1      -7.916  10.555  20.050  0.00  0.00    +0.000 F 
ATOM     15  C   UNL     1      -7.480  12.834  20.456  0.00  0.00    +0.000 A 
ATOM     16  C   UNL     1      -6.549  13.838  20.698  0.00  0.00    +0.000 A 
ATOM     17  C   UNL     1      -5.182  13.554  20.613  0.00  0.00    +0.000 A 
ATOM     18  C   UNL     1      -4.155  14.565  21.037  0.00  0.00    +0.000 C 
ATOM     19  C   UNL     1      -2.762  13.953  21.408  0.00  0.00    +0.000 C 
ATOM     20  C   UNL     1      -2.650  13.092  22.690  0.00  0.00    +0.000 C 
ATOM     21  C   UNL     1      -2.352  14.015  23.853  0.00  0.00    +0.000 C 
ATOM     22  C   UNL     1      -1.655  15.222  23.256  0.00  0.00    +0.000 C 
ATOM     23  C   UNL     1      -1.883  15.198  21.742  0.00  0.00    +0.000 C 
ENDROOT
BRANCH   1  24
ATOM     24  C   UNL     1       0.751  11.551  18.665  0.00  0.00    +0.000 C 
BRANCH  24  28
ATOM     25  C   UNL     1       1.805   7.561  19.926  0.00  0.00    +0.000 A 
ATOM     26  C   UNL     1       2.081   7.977  18.621  0.00  0.00    +0.000 A 
ATOM     27  C   UNL     1       1.719   9.258  18.197  0.00  0.00    +0.000 A 
ATOM     28  C   UNL     1       1.059  10.131  19.070  0.00  0.00    +0.000 A 
ATOM     29  C   UNL     1       0.718   9.680  20.349  0.00  0.00    +0.000 A 
ATOM     30  C   UNL     1       1.095   8.419  20.771  0.00  0.00    +0.000 A 
BRANCH  25  32
ATOM     31  C   UNL     1       3.286   5.805  19.440  0.00  0.00    +0.000 C 
ATOM     32  O   UNL     1       2.253   6.318  20.277  0.00  0.00    +0.000 OA
ENDBRANCH  25  32
ENDBRANCH  24  28
ENDBRANCH   1  24
TORSDOF 3
ENDMDL
MODEL 5
REMARK VINA RESULT:      -7.1      5.511      8.639
REMARK  Name = 
REMARK  4 active torsions:
REMARK  status: ('A' for Active; 'I' for Inactive)
REMARK    1  A    between atoms: C_1  and  O_2
REMARK    2  A    between atoms: O_2  and  C_3
REMARK    3  A    between atoms: C_6  and  C_7
REMARK    4  A    between atoms: C_7  and  N_8
REMARK                            x       y       z     vdW  Elec       q    Type
REMARK                         _______ _______ _______ _____ _____    ______ ____
ROOT
ATOM      1  N   UNL     1       5.858   4.655  16.930  0.00  0.00    +0.000 N 
ATOM      2  C   UNL     1       4.814   4.030  17.593  0.00  0.00    +0.000 A 
ATOM      3  O   UNL     1       4.629   2.816  17.516  0.00  0.00    +0.000 OA
ATOM      4  C   UNL     1       3.821   4.887  18.342  0.00  0.00    +0.000 A 
ATOM      5  C   UNL     1       3.887   6.237  18.204  0.00  0.00    +0.000 A 
ATOM      6  N   UNL     1       5.015   6.794  17.602  0.00  0.00    +0.000 N 
ATOM      7  C   UNL     1       5.479   8.078  17.484  0.00  0.00    +0.000 A 
ATOM      8  N   UNL     1       6.602   8.099  16.801  0.00  0.00    +0.000 NA
ATOM      9  N   UNL     1       6.909   6.800  16.478  0.00  0.00    +0.000 NA
ATOM     10  C   UNL     1       5.980   6.029  16.994  0.00  0.00    +0.000 A 
ATOM     11  C   UNL     1       2.803   7.072  18.787  0.00  0.00    +0.000 A 
ATOM     12  C   UNL     1       2.395   8.312  18.281  0.00  0.00    +0.000 A 
ATOM     13  C   UNL     1       1.586   9.141  19.054  0.00  0.00    +0.000 A 
ATOM     14  F   UNL     1       1.225  10.340  18.580  0.00  0.00    +0.000 F 
ATOM     15  C   UNL     1       1.183   8.762  20.327  0.00  0.00    +0.000 A 
ATOM     16  C   UNL     1       1.465   7.474  20.769  0.00  0.00    +0.000 A 
ATOM     17  C   UNL     1       2.187   6.600  19.949  0.00  0.00    +0.000 A 
ATOM     18  C   UNL     1       2.358   5.155  20.320  0.00  0.00    +0.000 C 
ATOM     19  C   UNL     1       2.680   4.212  19.112  0.00  0.00    +0.000 C 
ATOM     20  C   UNL     1       1.574   3.958  18.058  0.00  0.00    +0.000 C 
ATOM     21  C   UNL     1       0.742   2.780  18.523  0.00  0.00    +0.000 C 
ATOM     22  C   UNL     1       1.655   1.950  19.404  0.00  0.00    +0.000 C 
ATOM     23  C   UNL     1       2.868   2.810  19.771  0.00  0.00    +0.000 C 
ENDROOT
BRANCH   1  24
ATOM     24  C   UNL     1       6.669   3.874  16.012  0.00  0.00    +0.000 C 
BRANCH  24  28
ATOM     25  C   UNL     1       5.232   3.548  11.956  0.00  0.00    +0.000 A 
ATOM     26  C   UNL     1       6.590   3.765  12.201  0.00  0.00    +0.000 A 
ATOM     27  C   UNL     1       7.059   3.898  13.511  0.00  0.00    +0.000 A 
ATOM     28  C   UNL     1       6.169   3.835  14.589  0.00  0.00    +0.000 A 
ATOM     29  C   UNL     1       4.801   3.695  14.333  0.00  0.00    +0.000 A 
ATOM     30  C   UNL     1       4.344   3.544  13.037  0.00  0.00    +0.000 A 
BRANCH  25  32
ATOM     31  C   UNL     1       3.476   3.534  10.398  0.00  0.00    +0.000 C 
ATOM     32  O   UNL     1       4.868   3.363  10.652  0.00  0.00    +0.000 OA
ENDBRANCH  25  32
ENDBRANCH  24  28
ENDBRANCH   1  24
TORSDOF 3
ENDMDL
MODEL 6
REMARK VINA RESULT:      -7.1      3.470      8.371
REMARK  Name = 
REMARK  4 active torsions:
REMARK  status: ('A' for Active; 'I' for Inactive)
REMARK    1  A    between atoms: C_1  and  O_2
REMARK    2  A    between atoms: O_2  and  C_3
REMARK    3  A    between atoms: C_6  and  C_7
REMARK    4  A    between atoms: C_7  and  N_8
REMARK                            x       y       z     vdW  Elec       q    Type
REMARK                         _______ _______ _______ _____ _____    ______ ____
ROOT
ATOM      1  N   UNL     1       2.190   8.781  18.632  0.00  0.00    +0.000 N 
ATOM      2  C   UNL     1       3.034   7.875  18.009  0.00  0.00    +0.000 A 
ATOM      3  O   UNL     1       3.565   8.120  16.926  0.00  0.00    +0.000 OA
ATOM      4  C   UNL     1       3.216   6.513  18.635  0.00  0.00    +0.000 A 
ATOM      5  C   UNL     1       2.427   6.164  19.684  0.00  0.00    +0.000 A 
ATOM      6  N   UNL     1       1.673   7.154  20.313  0.00  0.00    +0.000 N 
ATOM      7  C   UNL     1       0.949   7.188  21.476  0.00  0.00    +0.000 A 
ATOM      8  N   UNL     1       0.392   8.367  21.636  0.00  0.00    +0.000 NA
ATOM      9  N   UNL     1       0.771   9.147  20.571  0.00  0.00    +0.000 NA
ATOM     10  C   UNL     1       1.566   8.428  19.812  0.00  0.00    +0.000 A 
ATOM     11  C   UNL     1       2.473   4.764  20.183  0.00  0.00    +0.000 A 
ATOM     12  C   UNL     1       1.401   4.101  20.792  0.00  0.00    +0.000 A 
ATOM     13  C   UNL     1       1.626   2.910  21.479  0.00  0.00    +0.000 A 
ATOM     14  F   UNL     1       0.603   2.297  22.088  0.00  0.00    +0.000 F 
ATOM     15  C   UNL     1       2.901   2.372  21.579  0.00  0.00    +0.000 A 
ATOM     16  C   UNL     1       3.937   2.950  20.853  0.00  0.00    +0.000 A 
ATOM     17  C   UNL     1       3.690   4.086  20.075  0.00  0.00    +0.000 A 
ATOM     18  C   UNL     1       4.738   4.629  19.146  0.00  0.00    +0.000 C 
ATOM     19  C   UNL     1       4.175   5.510  17.981  0.00  0.00    +0.000 C 
ATOM     20  C   UNL     1       3.344   4.822  16.869  0.00  0.00    +0.000 C 
ATOM     21  C   UNL     1       4.301   4.337  15.799  0.00  0.00    +0.000 C 
ATOM     22  C   UNL     1       5.514   5.243  15.887  0.00  0.00    +0.000 C 
ATOM     23  C   UNL     1       5.451   5.989  17.222  0.00  0.00    +0.000 C 
ENDROOT
BRANCH   1  24
ATOM     24  C   UNL     1       1.816   9.990  17.920  0.00  0.00    +0.000 C 
BRANCH  24  28
ATOM     25  C   UNL     1      -2.339  11.151  18.003  0.00  0.00    +0.000 A 
ATOM     26  C   UNL     1      -1.382  11.930  18.658  0.00  0.00    +0.000 A 
ATOM     27  C   UNL     1      -0.039  11.547  18.658  0.00  0.00    +0.000 A 
ATOM     28  C   UNL     1       0.359  10.368  18.018  0.00  0.00    +0.000 A 
ATOM     29  C   UNL     1      -0.615   9.553  17.431  0.00  0.00    +0.000 A 
ATOM     30  C   UNL     1      -1.940   9.946  17.417  0.00  0.00    +0.000 A 
BRANCH  25  32
ATOM     31  C   UNL     1      -4.329  11.398  16.783  0.00  0.00    +0.000 C 
ATOM     32  O   UNL     1      -3.619  11.633  17.996  0.00  0.00    +0.000 OA
ENDBRANCH  25  32
ENDBRANCH  24  28
ENDBRANCH   1  24
TORSDOF 3
ENDMDL
MODEL 7
REMARK VINA RESULT:      -6.9      3.208      4.935
REMARK  Name = 
REMARK  4 active torsions:
REMARK  status: ('A' for Active; 'I' for Inactive)
REMARK    1  A    between atoms: C_1  and  O_2
REMARK    2  A    between atoms: O_2  and  C_3
REMARK    3  A    between atoms: C_6  and  C_7
REMARK    4  A    between atoms: C_7  and  N_8
REMARK                            x       y       z     vdW  Elec       q    Type
REMARK                         _______ _______ _______ _____ _____    ______ ____
ROOT
ATOM      1  N   UNL     1       0.693  11.183  19.195  0.00  0.00    +0.000 N 
ATOM      2  C   UNL     1      -0.230  11.485  20.184  0.00  0.00    +0.000 A 
ATOM      3  O   UNL     1      -1.133  10.707  20.489  0.00  0.00    +0.000 OA
ATOM      4  C   UNL     1      -0.179  12.852  20.823  0.00  0.00    +0.000 A 
ATOM      5  C   UNL     1       0.653  13.790  20.298  0.00  0.00    +0.000 A 
ATOM      6  N   UNL     1       1.614  13.388  19.371  0.00  0.00    +0.000 N 
ATOM      7  C   UNL     1       2.698  14.011  18.812  0.00  0.00    +0.000 A 
ATOM      8  N   UNL     1       3.301  13.210  17.962  0.00  0.00    +0.000 NA
ATOM      9  N   UNL     1       2.621  12.016  17.972  0.00  0.00    +0.000 NA
ATOM     10  C   UNL     1       1.645  12.120  18.844  0.00  0.00    +0.000 A 
ATOM     11  C   UNL     1       0.571  15.186  20.803  0.00  0.00    +0.000 A 
ATOM     12  C   UNL     1       0.875  16.324  20.048  0.00  0.00    +0.000 A 
ATOM     13  C   UNL     1       1.049  17.550  20.685  0.00  0.00    +0.000 A 
ATOM     14  F   UNL     1       1.372  18.630  19.962  0.00  0.00    +0.000 F 
ATOM     15  C   UNL     1       0.935  17.662  22.064  0.00  0.00    +0.000 A 
ATOM     16  C   UNL     1       0.491  16.566  22.796  0.00  0.00    +0.000 A 
ATOM     17  C   UNL     1       0.212  15.361  22.142  0.00  0.00    +0.000 A 
ATOM     18  C   UNL     1      -0.433  14.218  22.872  0.00  0.00    +0.000 C 
ATOM     19  C   UNL     1      -1.168  13.193  21.945  0.00  0.00    +0.000 C 
ATOM     20  C   UNL     1      -2.461  13.645  21.222  0.00  0.00    +0.000 C 
ATOM     21  C   UNL     1      -3.633  13.378  22.143  0.00  0.00    +0.000 C 
ATOM     22  C   UNL     1      -3.200  12.239  23.046  0.00  0.00    +0.000 C 
ATOM     23  C   UNL     1      -1.681  12.097  22.930  0.00  0.00    +0.000 C 
ENDROOT
BRANCH   1  24
ATOM     24  C   UNL     1       0.503   9.978  18.407  0.00  0.00    +0.000 C 
BRANCH  24  28
ATOM     25  C   UNL     1       2.976   6.562  19.321  0.00  0.00    +0.000 A 
ATOM     26  C   UNL     1       2.147   7.107  20.304  0.00  0.00    +0.000 A 
ATOM     27  C   UNL     1       1.363   8.229  20.024  0.00  0.00    +0.000 A 
ATOM     28  C   UNL     1       1.415   8.830  18.761  0.00  0.00    +0.000 A 
ATOM     29  C   UNL     1       2.305   8.325  17.807  0.00  0.00    +0.000 A 
ATOM     30  C   UNL     1       3.064   7.203  18.082  0.00  0.00    +0.000 A 
BRANCH  25  32
ATOM     31  C   UNL     1       4.754   5.120  18.801  0.00  0.00    +0.000 C 
ATOM     32  O   UNL     1       3.658   5.426  19.659  0.00  0.00    +0.000 OA
ENDBRANCH  25  32
ENDBRANCH  24  28
ENDBRANCH   1  24
TORSDOF 3
ENDMDL
MODEL 8
REMARK VINA RESULT:      -6.9      8.702     11.536
REMARK  Name = 
REMARK  4 active torsions:
REMARK  status: ('A' for Active; 'I' for Inactive)
REMARK    1  A    between atoms: C_1  and  O_2
REMARK    2  A    between atoms: O_2  and  C_3
REMARK    3  A    between atoms: C_6  and  C_7
REMARK    4  A    between atoms: C_7  and  N_8
REMARK                            x       y       z     vdW  Elec       q    Type
REMARK                         _______ _______ _______ _____ _____    ______ ____
ROOT
ATOM      1  N   UNL     1       5.975  15.494  18.275  0.00  0.00    +0.000 N 
ATOM      2  C   UNL     1       7.006  14.575  18.169  0.00  0.00    +0.000 A 
ATOM      3  O   UNL     1       6.875  13.520  17.550  0.00  0.00    +0.000 OA
ATOM      4  C   UNL     1       8.286  14.838  18.926  0.00  0.00    +0.000 A 
ATOM      5  C   UNL     1       8.324  15.870  19.809  0.00  0.00    +0.000 A 
ATOM      6  N   UNL     1       7.288  16.804  19.792  0.00  0.00    +0.000 N 
ATOM      7  C   UNL     1       7.114  18.026  20.387  0.00  0.00    +0.000 A 
ATOM      8  N   UNL     1       5.939  18.526  20.075  0.00  0.00    +0.000 NA
ATOM      9  N   UNL     1       5.324  17.631  19.233  0.00  0.00    +0.000 NA
ATOM     10  C   UNL     1       6.152  16.631  19.039  0.00  0.00    +0.000 A 
ATOM     11  C   UNL     1       9.513  16.020  20.688  0.00  0.00    +0.000 A 
ATOM     12  C   UNL     1       9.491  16.591  21.966  0.00  0.00    +0.000 A 
ATOM     13  C   UNL     1      10.687  16.948  22.584  0.00  0.00    +0.000 A 
ATOM     14  F   UNL     1      10.659  17.524  23.793  0.00  0.00    +0.000 F 
ATOM     15  C   UNL     1      11.906  16.755  21.949  0.00  0.00    +0.000 A 
ATOM     16  C   UNL     1      11.938  16.056  20.747  0.00  0.00    +0.000 A 
ATOM     17  C   UNL     1      10.744  15.602  20.176  0.00  0.00    +0.000 A 
ATOM     18  C   UNL     1      10.757  14.698  18.977  0.00  0.00    +0.000 C 
ATOM     19  C   UNL     1       9.453  13.852  18.792  0.00  0.00    +0.000 C 
ATOM     20  C   UNL     1       9.151  12.726  19.814  0.00  0.00    +0.000 C 
ATOM     21  C   UNL     1       9.826  11.459  19.331  0.00  0.00    +0.000 C 
ATOM     22  C   UNL     1       9.940  11.598  17.825  0.00  0.00    +0.000 C 
ATOM     23  C   UNL     1       9.699  13.067  17.466  0.00  0.00    +0.000 C 
ENDROOT
BRANCH   1  24
ATOM     24  C   UNL     1       4.665  15.137  17.759  0.00  0.00    +0.000 C 
BRANCH  24  28
ATOM     25  C   UNL     1       2.026  12.986  20.410  0.00  0.00    +0.000 A 
ATOM     26  C   UNL     1       2.942  13.905  20.929  0.00  0.00    +0.000 A 
ATOM     27  C   UNL     1       3.818  14.586  20.080  0.00  0.00    +0.000 A 
ATOM     28  C   UNL     1       3.799  14.339  18.702  0.00  0.00    +0.000 A 
ATOM     29  C   UNL     1       2.934  13.363  18.199  0.00  0.00    +0.000 A 
ATOM     30  C   UNL     1       2.055  12.706  19.041  0.00  0.00    +0.000 A 
BRANCH  25  32
ATOM     31  C   UNL     1      -0.209  12.483  20.920  0.00  0.00    +0.000 C 
ATOM     32  O   UNL     1       1.162  12.415  21.303  0.00  0.00    +0.000 OA
ENDBRANCH  25  32
ENDBRANCH  24  28
ENDBRANCH   1  24
TORSDOF 3
ENDMDL
MODEL 9
REMARK VINA RESULT:      -6.8      1.031      1.169
REMARK  Name = 
REMARK  4 active torsions:
REMARK  status: ('A' for Active; 'I' for Inactive)
REMARK    1  A    between atoms: C_1  and  O_2
REMARK    2  A    between atoms: O_2  and  C_3
REMARK    3  A    between atoms: C_6  and  C_7
REMARK    4  A    between atoms: C_7  and  N_8
REMARK                            x       y       z     vdW  Elec       q    Type
REMARK                         _______ _______ _______ _____ _____    ______ ____
ROOT
ATOM      1  N   UNL     1      -0.181  10.989  19.665  0.00  0.00    +0.000 N 
ATOM      2  C   UNL     1      -1.032  10.637  18.630  0.00  0.00    +0.000 A 
ATOM      3  O   UNL     1      -0.624  10.071  17.616  0.00  0.00    +0.000 OA
ATOM      4  C   UNL     1      -2.479  11.060  18.712  0.00  0.00    +0.000 A 
ATOM      5  C   UNL     1      -2.859  11.905  19.706  0.00  0.00    +0.000 A 
ATOM      6  N   UNL     1      -1.976  12.138  20.760  0.00  0.00    +0.000 N 
ATOM      7  C   UNL     1      -2.106  12.755  21.976  0.00  0.00    +0.000 A 
ATOM      8  N   UNL     1      -0.963  12.737  22.625  0.00  0.00    +0.000 NA
ATOM      9  N   UNL     1      -0.056  12.072  21.838  0.00  0.00    +0.000 NA
ATOM     10  C   UNL     1      -0.679  11.685  20.749  0.00  0.00    +0.000 A 
ATOM     11  C   UNL     1      -4.234  12.469  19.683  0.00  0.00    +0.000 A 
ATOM     12  C   UNL     1      -4.594  13.712  20.216  0.00  0.00    +0.000 A 
ATOM     13  C   UNL     1      -5.938  14.020  20.406  0.00  0.00    +0.000 A 
ATOM     14  F   UNL     1      -6.276  15.198  20.946  0.00  0.00    +0.000 F 
ATOM     15  C   UNL     1      -6.934  13.108  20.083  0.00  0.00    +0.000 A 
ATOM     16  C   UNL     1      -6.586  11.936  19.420  0.00  0.00    +0.000 A 
ATOM     17  C   UNL     1      -5.242  11.673  19.132  0.00  0.00    +0.000 A 
ATOM     18  C   UNL     1      -4.851  10.508  18.268  0.00  0.00    +0.000 C 
ATOM     19  C   UNL     1      -3.445  10.649  17.594  0.00  0.00    +0.000 C 
ATOM     20  C   UNL     1      -3.260  11.715  16.486  0.00  0.00    +0.000 C 
ATOM     21  C   UNL     1      -3.633  11.085  15.160  0.00  0.00    +0.000 C 
ATOM     22  C   UNL     1      -3.396   9.596  15.326  0.00  0.00    +0.000 C 
ATOM     23  C   UNL     1      -3.263   9.304  16.823  0.00  0.00    +0.000 C 
ENDROOT
BRANCH   1  24
ATOM     24  C   UNL     1       1.249  10.808  19.486  0.00  0.00    +0.000 C 
BRANCH  24  28
ATOM     25  C   UNL     1       2.369   6.667  19.016  0.00  0.00    +0.000 A 
ATOM     26  C   UNL     1       1.842   7.115  20.230  0.00  0.00    +0.000 A 
ATOM     27  C   UNL     1       1.502   8.460  20.399  0.00  0.00    +0.000 A 
ATOM     28  C   UNL     1       1.703   9.375  19.359  0.00  0.00    +0.000 A 
ATOM     29  C   UNL     1       2.303   8.934  18.175  0.00  0.00    +0.000 A 
ATOM     30  C   UNL     1       2.619   7.600  18.005  0.00  0.00    +0.000 A 
BRANCH  25  32
ATOM     31  C   UNL     1       3.665   4.853  19.751  0.00  0.00    +0.000 C 
ATOM     32  O   UNL     1       2.612   5.326  18.914  0.00  0.00    +0.000 OA
ENDBRANCH  25  32
ENDBRANCH  24  28
ENDBRANCH   1  24
TORSDOF 3
ENDMDL
