MODEL 1
REMARK VINA RESULT:      -7.5      0.000      0.000
REMARK  Name = 
REMARK  7 active torsions:
REMARK  status: ('A' for Active; 'I' for Inactive)
REMARK    1  A    between atoms: C_1  and  C_2
REMARK    2  A    between atoms: C_2  and  C_3
REMARK    3  A    between atoms: C_2  and  C_4
REMARK    4  A    between atoms: C_4  and  N_5
REMARK    5  A    between atoms: C_8  and  N_9
REMARK    6  A    between atoms: C_17  and  C_18
REMARK    7  A    between atoms: C_20  and  C_21
REMARK                            x       y       z     vdW  Elec       q    Type
REMARK                         _______ _______ _______ _____ _____    ______ ____
ROOT
ATOM      1  N   UNL     1       3.887   4.984  18.857  0.00  0.00    +0.000 N 
ATOM      2  N   UNL     1       4.279   5.977  18.024  0.00  0.00    +0.000 NA
ATOM      3  C   UNL     1       3.559   7.032  18.392  0.00  0.00    +0.000 A 
ATOM      4  C   UNL     1       2.657   6.717  19.421  0.00  0.00    +0.000 A 
ATOM      5  C   UNL     1       2.914   5.395  19.753  0.00  0.00    +0.000 A 
ENDROOT
BRANCH   4   6
ATOM      6  N   UNL     1       1.679   7.495  20.018  0.00  0.00    +0.000 N 
ATOM      7  C   UNL     1       1.309   8.749  19.614  0.00  0.00    +0.000 C 
ATOM      8  O   UNL     1       1.789   9.324  18.638  0.00  0.00    +0.000 OA
ATOM      9  N   UNL     1       0.363   9.380  20.419  0.00  0.00    +0.000 N 
ATOM     10  C   UNL     1      -0.249   8.868  21.649  0.00  0.00    +0.000 C 
ATOM     11  C   UNL     1      -0.092   9.857  22.789  0.00  0.00    +0.000 C 
ATOM     12  C   UNL     1      -0.602  11.221  22.387  0.00  0.00    +0.000 C 
ATOM     13  O   UNL     1      -0.708  12.107  23.232  0.00  0.00    +0.000 OA
ATOM     14  C   UNL     1      -1.019  11.413  20.940  0.00  0.00    +0.000 C 
ATOM     15  C   UNL     1      -1.169  12.887  20.586  0.00  0.00    +0.000 C 
ATOM     16  C   UNL     1       0.020  10.751  20.038  0.00  0.00    +0.000 C 
ATOM     17  H   UNL     1       1.130   7.027  20.711  0.00  0.00    +0.000 HD
ENDBRANCH   4   6
BRANCH   5  18
ATOM     18  C   UNL     1       2.212   4.718  20.939  0.00  0.00    +0.000 C 
ATOM     19  C   UNL     1       1.142   3.679  20.685  0.00  0.00    +0.000 C 
ATOM     20  C   UNL     1       2.406   3.307  21.401  0.00  0.00    +0.000 C 
ENDBRANCH   5  18
BRANCH   1  21
ATOM     21  C   UNL     1       4.550   3.712  18.669  0.00  0.00    +0.000 C 
BRANCH  21  23
ATOM     22  C   UNL     1       3.477   1.400  18.445  0.00  0.00    +0.000 C 
ATOM     23  C   UNL     1       3.796   2.723  17.745  0.00  0.00    +0.000 C 
ATOM     24  C   UNL     1       2.509   3.371  17.226  0.00  0.00    +0.000 C 
ENDBRANCH  21  23
ENDBRANCH   1  21
TORSDOF 4
ENDMDL
MODEL 2
REMARK VINA RESULT:      -7.4      2.341      2.894
REMARK  Name = 
REMARK  7 active torsions:
REMARK  status: ('A' for Active; 'I' for Inactive)
REMARK    1  A    between atoms: C_1  and  C_2
REMARK    2  A    between atoms: C_2  and  C_3
REMARK    3  A    between atoms: C_2  and  C_4
REMARK    4  A    between atoms: C_4  and  N_5
REMARK    5  A    between atoms: C_8  and  N_9
REMARK    6  A    between atoms: C_17  and  C_18
REMARK    7  A    between atoms: C_20  and  C_21
REMARK                            x       y       z     vdW  Elec       q    Type
REMARK                         _______ _______ _______ _____ _____    ______ ____
ROOT
ATOM      1  N   UNL     1       4.992   5.364  16.453  0.00  0.00    +0.000 N 
ATOM      2  N   UNL     1       5.566   6.579  16.284  0.00  0.00    +0.000 NA
ATOM      3  C   UNL     1       4.911   7.382  17.117  0.00  0.00    +0.000 A 
ATOM      4  C   UNL     1       3.876   6.710  17.786  0.00  0.00    +0.000 A 
ATOM      5  C   UNL     1       3.969   5.385  17.387  0.00  0.00    +0.000 A 
ENDROOT
BRANCH   4   6
ATOM      6  N   UNL     1       2.915   7.196  18.657  0.00  0.00    +0.000 N 
ATOM      7  C   UNL     1       2.131   8.296  18.437  0.00  0.00    +0.000 C 
ATOM      8  O   UNL     1       2.169   8.970  17.408  0.00  0.00    +0.000 OA
ATOM      9  N   UNL     1       1.294   8.653  19.492  0.00  0.00    +0.000 N 
ATOM     10  C   UNL     1       1.182   8.006  20.803  0.00  0.00    +0.000 C 
ATOM     11  C   UNL     1       1.359   9.012  21.925  0.00  0.00    +0.000 C 
ATOM     12  C   UNL     1       0.417  10.180  21.749  0.00  0.00    +0.000 C 
ATOM     13  O   UNL     1       0.301  11.012  22.646  0.00  0.00    +0.000 OA
ATOM     14  C   UNL     1      -0.398  10.233  20.469  0.00  0.00    +0.000 C 
ATOM     15  C   UNL     1      -1.024  11.606  20.254  0.00  0.00    +0.000 C 
ATOM     16  C   UNL     1       0.509   9.873  19.295  0.00  0.00    +0.000 C 
ATOM     17  H   UNL     1       2.712   6.604  19.437  0.00  0.00    +0.000 HD
ENDBRANCH   4   6
BRANCH   5  18
ATOM     18  C   UNL     1       3.081   4.298  18.009  0.00  0.00    +0.000 C 
ATOM     19  C   UNL     1       1.645   4.149  17.553  0.00  0.00    +0.000 C 
ATOM     20  C   UNL     1       2.626   3.034  17.349  0.00  0.00    +0.000 C 
ENDBRANCH   5  18
BRANCH   1  21
ATOM     21  C   UNL     1       5.549   4.293  15.656  0.00  0.00    +0.000 C 
BRANCH  21  23
ATOM     22  C   UNL     1       7.353   4.894  13.946  0.00  0.00    +0.000 C 
ATOM     23  C   UNL     1       5.858   4.676  14.188  0.00  0.00    +0.000 C 
ATOM     24  C   UNL     1       5.322   3.597  13.243  0.00  0.00    +0.000 C 
ENDBRANCH  21  23
ENDBRANCH   1  21
TORSDOF 4
ENDMDL
MODEL 3
REMARK VINA RESULT:      -7.4      1.036      1.111
REMARK  Name = 
REMARK  7 active torsions:
REMARK  status: ('A' for Active; 'I' for Inactive)
REMARK    1  A    between atoms: C_1  and  C_2
REMARK    2  A    between atoms: C_2  and  C_3
REMARK    3  A    between atoms: C_2  and  C_4
REMARK    4  A    between atoms: C_4  and  N_5
REMARK    5  A    between atoms: C_8  and  N_9
REMARK    6  A    between atoms: C_17  and  C_18
REMARK    7  A    between atoms: C_20  and  C_21
REMARK                            x       y       z     vdW  Elec       q    Type
REMARK                         _______ _______ _______ _____ _____    ______ ____
ROOT
ATOM      1  N   UNL     1       3.981   5.026  18.568  0.00  0.00    +0.000 N 
ATOM      2  N   UNL     1       4.492   5.862  17.632  0.00  0.00    +0.000 NA
ATOM      3  C   UNL     1       3.848   7.010  17.815  0.00  0.00    +0.000 A 
ATOM      4  C   UNL     1       2.879   6.911  18.826  0.00  0.00    +0.000 A 
ATOM      5  C   UNL     1       3.009   5.632  19.346  0.00  0.00    +0.000 A 
ENDROOT
BRANCH   4   6
ATOM      6  N   UNL     1       1.944   7.837  19.259  0.00  0.00    +0.000 N 
ATOM      7  C   UNL     1       1.630   9.004  18.615  0.00  0.00    +0.000 C 
ATOM      8  O   UNL     1       2.127   9.352  17.545  0.00  0.00    +0.000 OA
ATOM      9  N   UNL     1       0.723   9.826  19.281  0.00  0.00    +0.000 N 
ATOM     10  C   UNL     1       0.100   9.596  20.588  0.00  0.00    +0.000 C 
ATOM     11  C   UNL     1       0.314  10.781  21.511  0.00  0.00    +0.000 C 
ATOM     12  C   UNL     1      -0.135  12.062  20.849  0.00  0.00    +0.000 C 
ATOM     13  O   UNL     1      -0.190  13.102  21.503  0.00  0.00    +0.000 OA
ATOM     14  C   UNL     1      -0.556  11.986  19.392  0.00  0.00    +0.000 C 
ATOM     15  C   UNL     1      -0.640  13.368  18.755  0.00  0.00    +0.000 C 
ATOM     16  C   UNL     1       0.441  11.111  18.638  0.00  0.00    +0.000 C 
ATOM     17  H   UNL     1       1.381   7.542  20.031  0.00  0.00    +0.000 HD
ENDBRANCH   4   6
BRANCH   5  18
ATOM     18  C   UNL     1       2.201   5.182  20.572  0.00  0.00    +0.000 C 
ATOM     19  C   UNL     1       1.050   4.214  20.400  0.00  0.00    +0.000 C 
ATOM     20  C   UNL     1       2.246   3.834  21.222  0.00  0.00    +0.000 C 
ENDBRANCH   5  18
BRANCH   1  21
ATOM     21  C   UNL     1       4.542   3.693  18.589  0.00  0.00    +0.000 C 
BRANCH  21  23
ATOM     22  C   UNL     1       3.405   1.401  18.582  0.00  0.00    +0.000 C 
ATOM     23  C   UNL     1       3.751   2.649  17.764  0.00  0.00    +0.000 C 
ATOM     24  C   UNL     1       2.474   3.283  17.205  0.00  0.00    +0.000 C 
ENDBRANCH  21  23
ENDBRANCH   1  21
TORSDOF 4
ENDMDL
MODEL 4
REMARK VINA RESULT:      -7.0      2.012      2.607
REMARK  Name = 
REMARK  7 active torsions:
REMARK  status: ('A' for Active; 'I' for Inactive)
REMARK    1  A    between atoms: C_1  and  C_2
REMARK    2  A    between atoms: C_2  and  C_3
REMARK    3  A    between atoms: C_2  and  C_4
REMARK    4  A    between atoms: C_4  and  N_5
REMARK    5  A    between atoms: C_8  and  N_9
REMARK    6  A    between atoms: C_17  and  C_18
REMARK    7  A    between atoms: C_20  and  C_21
REMARK                            x       y       z     vdW  Elec       q    Type
REMARK                         _______ _______ _______ _____ _____    ______ ____
ROOT
ATOM      1  N   UNL     1       5.071   4.656  17.563  0.00  0.00    +0.000 N 
ATOM      2  N   UNL     1       6.040   5.255  18.294  0.00  0.00    +0.000 NA
ATOM      3  C   UNL     1       5.386   5.991  19.187  0.00  0.00    +0.000 A 
ATOM      4  C   UNL     1       3.996   5.920  19.006  0.00  0.00    +0.000 A 
ATOM      5  C   UNL     1       3.797   5.008  17.980  0.00  0.00    +0.000 A 
ENDROOT
BRANCH   4   6
ATOM      6  N   UNL     1       2.976   6.597  19.655  0.00  0.00    +0.000 N 
ATOM      7  C   UNL     1       2.312   7.688  19.164  0.00  0.00    +0.000 C 
ATOM      8  O   UNL     1       2.526   8.179  18.057  0.00  0.00    +0.000 OA
ATOM      9  N   UNL     1       1.383   8.260  20.031  0.00  0.00    +0.000 N 
ATOM     10  C   UNL     1       1.065   7.846  21.401  0.00  0.00    +0.000 C 
ATOM     11  C   UNL     1       1.181   9.012  22.365  0.00  0.00    +0.000 C 
ATOM     12  C   UNL     1       0.359  10.185  21.885  0.00  0.00    +0.000 C 
ATOM     13  O   UNL     1       0.200  11.160  22.618  0.00  0.00    +0.000 OA
ATOM     14  C   UNL     1      -0.288  10.073  20.516  0.00  0.00    +0.000 C 
ATOM     15  C   UNL     1      -0.776  11.425  20.009  0.00  0.00    +0.000 C 
ATOM     16  C   UNL     1       0.724   9.473  19.543  0.00  0.00    +0.000 C 
ATOM     17  H   UNL     1       2.636   6.154  20.485  0.00  0.00    +0.000 HD
ENDBRANCH   4   6
BRANCH   5  18
ATOM     18  C   UNL     1       2.387   4.557  17.573  0.00  0.00    +0.000 C 
ATOM     19  C   UNL     1       2.078   3.081  17.443  0.00  0.00    +0.000 C 
ATOM     20  C   UNL     1       1.365   3.919  18.461  0.00  0.00    +0.000 C 
ENDBRANCH   5  18
BRANCH   1  21
ATOM     21  C   UNL     1       5.533   3.771  16.517  0.00  0.00    +0.000 C 
BRANCH  21  23
ATOM     22  C   UNL     1       5.389   5.852  15.037  0.00  0.00    +0.000 C 
ATOM     23  C   UNL     1       5.356   4.322  15.081  0.00  0.00    +0.000 C 
ATOM     24  C   UNL     1       6.436   3.745  14.163  0.00  0.00    +0.000 C 
ENDBRANCH  21  23
ENDBRANCH   1  21
TORSDOF 4
ENDMDL
MODEL 5
REMARK VINA RESULT:      -6.9      1.595      1.928
REMARK  Name = 
REMARK  7 active torsions:
REMARK  status: ('A' for Active; 'I' for Inactive)
REMARK    1  A    between atoms: C_1  and  C_2
REMARK    2  A    between atoms: C_2  and  C_3
REMARK    3  A    between atoms: C_2  and  C_4
REMARK    4  A    between atoms: C_4  and  N_5
REMARK    5  A    between atoms: C_8  and  N_9
REMARK    6  A    between atoms: C_17  and  C_18
REMARK    7  A    between atoms: C_20  and  C_21
REMARK                            x       y       z     vdW  Elec       q    Type
REMARK                         _______ _______ _______ _____ _____    ______ ____
ROOT
ATOM      1  N   UNL     1       4.106   5.663  17.386  0.00  0.00    +0.000 N 
ATOM      2  N   UNL     1       4.518   6.843  16.863  0.00  0.00    +0.000 NA
ATOM      3  C   UNL     1       3.807   7.765  17.506  0.00  0.00    +0.000 A 
ATOM      4  C   UNL     1       2.894   7.189  18.403  0.00  0.00    +0.000 A 
ATOM      5  C   UNL     1       3.132   5.824  18.357  0.00  0.00    +0.000 A 
ENDROOT
BRANCH   4   6
ATOM      6  N   UNL     1       1.920   7.785  19.188  0.00  0.00    +0.000 N 
ATOM      7  C   UNL     1       1.392   9.031  18.983  0.00  0.00    +0.000 C 
ATOM      8  O   UNL     1       1.703   9.761  18.043  0.00  0.00    +0.000 OA
ATOM      9  N   UNL     1       0.487   9.461  19.952  0.00  0.00    +0.000 N 
ATOM     10  C   UNL     1       0.068   8.749  21.163  0.00  0.00    +0.000 C 
ATOM     11  C   UNL     1       0.259   9.612  22.397  0.00  0.00    +0.000 C 
ATOM     12  C   UNL     1      -0.419  10.951  22.222  0.00  0.00    +0.000 C 
ATOM     13  O   UNL     1      -0.511  11.719  23.178  0.00  0.00    +0.000 OA
ATOM     14  C   UNL     1      -1.012  11.262  20.859  0.00  0.00    +0.000 C 
ATOM     15  C   UNL     1      -1.338  12.743  20.709  0.00  0.00    +0.000 C 
ATOM     16  C   UNL     1      -0.024  10.823  19.782  0.00  0.00    +0.000 C 
ATOM     17  H   UNL     1       1.500   7.185  19.869  0.00  0.00    +0.000 HD
ENDBRANCH   4   6
BRANCH   5  18
ATOM     18  C   UNL     1       2.413   4.855  19.306  0.00  0.00    +0.000 C 
ATOM     19  C   UNL     1       1.347   3.926  18.766  0.00  0.00    +0.000 C 
ATOM     20  C   UNL     1       2.600   3.371  19.374  0.00  0.00    +0.000 C 
ENDBRANCH   5  18
BRANCH   1  21
ATOM     21  C   UNL     1       4.755   4.484  16.856  0.00  0.00    +0.000 C 
BRANCH  21  23
ATOM     22  C   UNL     1       7.311   4.514  16.958  0.00  0.00    +0.000 C 
ATOM     23  C   UNL     1       6.073   4.762  16.093  0.00  0.00    +0.000 C 
ATOM     24  C   UNL     1       6.135   3.904  14.826  0.00  0.00    +0.000 C 
ENDBRANCH  21  23
ENDBRANCH   1  21
TORSDOF 4
ENDMDL
MODEL 6
REMARK VINA RESULT:      -6.9      2.379      8.026
REMARK  Name = 
REMARK  7 active torsions:
REMARK  status: ('A' for Active; 'I' for Inactive)
REMARK    1  A    between atoms: C_1  and  C_2
REMARK    2  A    between atoms: C_2  and  C_3
REMARK    3  A    between atoms: C_2  and  C_4
REMARK    4  A    between atoms: C_4  and  N_5
REMARK    5  A    between atoms: C_8  and  N_9
REMARK    6  A    between atoms: C_17  and  C_18
REMARK    7  A    between atoms: C_20  and  C_21
REMARK                            x       y       z     vdW  Elec       q    Type
REMARK                         _______ _______ _______ _____ _____    ______ ____
ROOT
ATOM      1  N   UNL     1      -1.114  11.817  20.082  0.00  0.00    +0.000 N 
ATOM      2  N   UNL     1      -1.378  11.765  18.754  0.00  0.00    +0.000 NA
ATOM      3  C   UNL     1      -0.707  10.705  18.317  0.00  0.00    +0.000 A 
ATOM      4  C   UNL     1       0.039  10.099  19.340  0.00  0.00    +0.000 A 
ATOM      5  C   UNL     1      -0.273  10.798  20.496  0.00  0.00    +0.000 A 
ENDROOT
BRANCH   4   6
ATOM      6  N   UNL     1       0.932   9.041  19.286  0.00  0.00    +0.000 N 
ATOM      7  C   UNL     1       1.911   8.879  18.343  0.00  0.00    +0.000 C 
ATOM      8  O   UNL     1       2.134   9.686  17.441  0.00  0.00    +0.000 OA
ATOM      9  N   UNL     1       2.634   7.691  18.433  0.00  0.00    +0.000 N 
ATOM     10  C   UNL     1       2.446   6.600  19.393  0.00  0.00    +0.000 C 
ATOM     11  C   UNL     1       2.278   5.270  18.682  0.00  0.00    +0.000 C 
ATOM     12  C   UNL     1       3.417   5.033  17.718  0.00  0.00    +0.000 C 
ATOM     13  O   UNL     1       3.539   3.937  17.173  0.00  0.00    +0.000 OA
ATOM     14  C   UNL     1       4.405   6.166  17.511  0.00  0.00    +0.000 C 
ATOM     15  C   UNL     1       5.275   5.940  16.280  0.00  0.00    +0.000 C 
ATOM     16  C   UNL     1       3.631   7.475  17.382  0.00  0.00    +0.000 C 
ATOM     17  H   UNL     1       0.919   8.435  20.081  0.00  0.00    +0.000 HD
ENDBRANCH   4   6
BRANCH   5  18
ATOM     18  C   UNL     1       0.250  10.348  21.868  0.00  0.00    +0.000 C 
ATOM     19  C   UNL     1      -0.691  10.301  23.052  0.00  0.00    +0.000 C 
ATOM     20  C   UNL     1      -0.041   9.047  22.549  0.00  0.00    +0.000 C 
ENDBRANCH   5  18
BRANCH   1  21
ATOM     21  C   UNL     1      -1.756  12.893  20.805  0.00  0.00    +0.000 C 
BRANCH  21  23
ATOM     22  C   UNL     1      -3.226  12.994  22.896  0.00  0.00    +0.000 C 
ATOM     23  C   UNL     1      -3.115  12.519  21.445  0.00  0.00    +0.000 C 
ATOM     24  C   UNL     1      -4.262  13.097  20.612  0.00  0.00    +0.000 C 
ENDBRANCH  21  23
ENDBRANCH   1  21
TORSDOF 4
ENDMDL
MODEL 7
REMARK VINA RESULT:      -6.9      2.291      8.102
REMARK  Name = 
REMARK  7 active torsions:
REMARK  status: ('A' for Active; 'I' for Inactive)
REMARK    1  A    between atoms: C_1  and  C_2
REMARK    2  A    between atoms: C_2  and  C_3
REMARK    3  A    between atoms: C_2  and  C_4
REMARK    4  A    between atoms: C_4  and  N_5
REMARK    5  A    between atoms: C_8  and  N_9
REMARK    6  A    between atoms: C_17  and  C_18
REMARK    7  A    between atoms: C_20  and  C_21
REMARK                            x       y       z     vdW  Elec       q    Type
REMARK                         _______ _______ _______ _____ _____    ______ ____
ROOT
ATOM      1  N   UNL     1      -0.279  10.231  22.351  0.00  0.00    +0.000 N 
ATOM      2  N   UNL     1       0.657   9.781  23.219  0.00  0.00    +0.000 NA
ATOM      3  C   UNL     1       1.508   9.086  22.470  0.00  0.00    +0.000 A 
ATOM      4  C   UNL     1       1.100   9.033  21.128  0.00  0.00    +0.000 A 
ATOM      5  C   UNL     1      -0.036   9.824  21.049  0.00  0.00    +0.000 A 
ENDROOT
BRANCH   4   6
ATOM      6  N   UNL     1       1.648   8.346  20.057  0.00  0.00    +0.000 N 
ATOM      7  C   UNL     1       1.831   6.991  19.997  0.00  0.00    +0.000 C 
ATOM      8  O   UNL     1       1.494   6.213  20.888  0.00  0.00    +0.000 OA
ATOM      9  N   UNL     1       2.483   6.528  18.855  0.00  0.00    +0.000 N 
ATOM     10  C   UNL     1       3.012   7.323  17.743  0.00  0.00    +0.000 C 
ATOM     11  C   UNL     1       4.472   7.000  17.487  0.00  0.00    +0.000 C 
ATOM     12  C   UNL     1       4.666   5.512  17.307  0.00  0.00    +0.000 C 
ATOM     13  O   UNL     1       5.753   5.079  16.929  0.00  0.00    +0.000 OA
ATOM     14  C   UNL     1       3.466   4.616  17.555  0.00  0.00    +0.000 C 
ATOM     15  C   UNL     1       3.871   3.153  17.690  0.00  0.00    +0.000 C 
ATOM     16  C   UNL     1       2.752   5.089  18.818  0.00  0.00    +0.000 C 
ATOM     17  H   UNL     1       1.790   8.892  19.232  0.00  0.00    +0.000 HD
ENDBRANCH   4   6
BRANCH   5  18
ATOM     18  C   UNL     1      -0.709  10.124  19.702  0.00  0.00    +0.000 C 
ATOM     19  C   UNL     1      -0.464  11.451  19.019  0.00  0.00    +0.000 C 
ATOM     20  C   UNL     1      -0.042  10.171  18.363  0.00  0.00    +0.000 C 
ENDBRANCH   5  18
BRANCH   1  21
ATOM     21  C   UNL     1      -1.327  11.044  22.927  0.00  0.00    +0.000 C 
BRANCH  21  23
ATOM     22  C   UNL     1      -2.821  12.657  21.620  0.00  0.00    +0.000 C 
ATOM     23  C   UNL     1      -1.466  12.454  22.302  0.00  0.00    +0.000 C 
ATOM     24  C   UNL     1      -1.249  13.525  23.375  0.00  0.00    +0.000 C 
ENDBRANCH  21  23
ENDBRANCH   1  21
TORSDOF 4
ENDMDL
MODEL 8
REMARK VINA RESULT:      -6.8      0.838      1.067
REMARK  Name = 
REMARK  7 active torsions:
REMARK  status: ('A' for Active; 'I' for Inactive)
REMARK    1  A    between atoms: C_1  and  C_2
REMARK    2  A    between atoms: C_2  and  C_3
REMARK    3  A    between atoms: C_2  and  C_4
REMARK    4  A    between atoms: C_4  and  N_5
REMARK    5  A    between atoms: C_8  and  N_9
REMARK    6  A    between atoms: C_17  and  C_18
REMARK    7  A    between atoms: C_20  and  C_21
REMARK                            x       y       z     vdW  Elec       q    Type
REMARK                         _______ _______ _______ _____ _____    ______ ____
ROOT
ATOM      1  N   UNL     1       3.748   5.752  18.556  0.00  0.00    +0.000 N 
ATOM      2  N   UNL     1       4.021   6.782  17.720  0.00  0.00    +0.000 NA
ATOM      3  C   UNL     1       3.249   7.777  18.144  0.00  0.00    +0.000 A 
ATOM      4  C   UNL     1       2.431   7.385  19.216  0.00  0.00    +0.000 A 
ATOM      5  C   UNL     1       2.801   6.082  19.512  0.00  0.00    +0.000 A 
ENDROOT
BRANCH   4   6
ATOM      6  N   UNL     1       1.435   8.082  19.879  0.00  0.00    +0.000 N 
ATOM      7  C   UNL     1       0.991   9.334  19.548  0.00  0.00    +0.000 C 
ATOM      8  O   UNL     1       1.411   9.979  18.588  0.00  0.00    +0.000 OA
ATOM      9  N   UNL     1       0.041   9.877  20.411  0.00  0.00    +0.000 N 
ATOM     10  C   UNL     1      -0.505   9.276  21.632  0.00  0.00    +0.000 C 
ATOM     11  C   UNL     1      -0.362  10.216  22.814  0.00  0.00    +0.000 C 
ATOM     12  C   UNL     1      -0.951  11.570  22.495  0.00  0.00    +0.000 C 
ATOM     13  O   UNL     1      -1.074  12.408  23.386  0.00  0.00    +0.000 OA
ATOM     14  C   UNL     1      -1.423  11.809  21.072  0.00  0.00    +0.000 C 
ATOM     15  C   UNL     1      -1.657  13.289  20.795  0.00  0.00    +0.000 C 
ATOM     16  C   UNL     1      -0.382  11.245  20.108  0.00  0.00    +0.000 C 
ATOM     17  H   UNL     1       0.933   7.555  20.565  0.00  0.00    +0.000 HD
ENDBRANCH   4   6
BRANCH   5  18
ATOM     18  C   UNL     1       2.217   5.340  20.724  0.00  0.00    +0.000 C 
ATOM     19  C   UNL     1       1.097   4.342  20.526  0.00  0.00    +0.000 C 
ATOM     20  C   UNL     1       2.423   3.898  21.069  0.00  0.00    +0.000 C 
ENDBRANCH   5  18
BRANCH   1  21
ATOM     21  C   UNL     1       4.488   4.534  18.311  0.00  0.00    +0.000 C 
BRANCH  21  23
ATOM     22  C   UNL     1       5.033   3.569  16.005  0.00  0.00    +0.000 C 
ATOM     23  C   UNL     1       3.980   3.703  17.108  0.00  0.00    +0.000 C 
ATOM     24  C   UNL     1       3.534   2.317  17.582  0.00  0.00    +0.000 C 
ENDBRANCH  21  23
ENDBRANCH   1  21
TORSDOF 4
ENDMDL
MODEL 9
REMARK VINA RESULT:      -6.8      1.599      2.877
REMARK  Name = 
REMARK  7 active torsions:
REMARK  status: ('A' for Active; 'I' for Inactive)
REMARK    1  A    between atoms: C_1  and  C_2
REMARK    2  A    between atoms: C_2  and  C_3
REMARK    3  A    between atoms: C_2  and  C_4
REMARK    4  A    between atoms: C_4  and  N_5
REMARK    5  A    between atoms: C_8  and  N_9
REMARK    6  A    between atoms: C_17  and  C_18
REMARK    7  A    between atoms: C_20  and  C_21
REMARK                            x       y       z     vdW  Elec       q    Type
REMARK                         _______ _______ _______ _____ _____    ______ ____
ROOT
ATOM      1  N   UNL     1       3.591   4.791  19.249  0.00  0.00    +0.000 N 
ATOM      2  N   UNL     1       2.752   4.462  20.260  0.00  0.00    +0.000 NA
ATOM      3  C   UNL     1       2.002   5.545  20.443  0.00  0.00    +0.000 A 
ATOM      4  C   UNL     1       2.387   6.597  19.597  0.00  0.00    +0.000 A 
ATOM      5  C   UNL     1       3.387   6.081  18.787  0.00  0.00    +0.000 A 
ENDROOT
BRANCH   4   6
ATOM      6  N   UNL     1       1.930   7.903  19.535  0.00  0.00    +0.000 N 
ATOM      7  C   UNL     1       1.434   8.619  20.591  0.00  0.00    +0.000 C 
ATOM      8  O   UNL     1       1.368   8.187  21.741  0.00  0.00    +0.000 OA
ATOM      9  N   UNL     1       0.949   9.887  20.276  0.00  0.00    +0.000 N 
ATOM     10  C   UNL     1       0.886  10.517  18.955  0.00  0.00    +0.000 C 
ATOM     11  C   UNL     1      -0.518  11.004  18.648  0.00  0.00    +0.000 C 
ATOM     12  C   UNL     1      -1.032  11.888  19.761  0.00  0.00    +0.000 C 
ATOM     13  O   UNL     1      -2.084  12.506  19.614  0.00  0.00    +0.000 OA
ATOM     14  C   UNL     1      -0.173  12.013  21.007  0.00  0.00    +0.000 C 
ATOM     15  C   UNL     1      -0.948  12.626  22.168  0.00  0.00    +0.000 C 
ATOM     16  C   UNL     1       0.347  10.628  21.386  0.00  0.00    +0.000 C 
ATOM     17  H   UNL     1       2.109   8.374  18.671  0.00  0.00    +0.000 HD
ENDBRANCH   4   6
BRANCH   5  18
ATOM     18  C   UNL     1       3.980   6.897  17.630  0.00  0.00    +0.000 C 
ATOM     19  C   UNL     1       5.481   7.035  17.499  0.00  0.00    +0.000 C 
ATOM     20  C   UNL     1       4.685   6.354  16.426  0.00  0.00    +0.000 C 
ENDBRANCH   5  18
BRANCH   1  21
ATOM     21  C   UNL     1       4.513   3.754  18.840  0.00  0.00    +0.000 C 
BRANCH  21  23
ATOM     22  C   UNL     1       3.572   1.394  18.545  0.00  0.00    +0.000 C 
ATOM     23  C   UNL     1       3.920   2.716  17.856  0.00  0.00    +0.000 C 
ATOM     24  C   UNL     1       2.680   3.295  17.170  0.00  0.00    +0.000 C 
ENDBRANCH  21  23
ENDBRANCH   1  21
TORSDOF 4
ENDMDL
