MODEL 1
REMARK VINA RESULT:      -7.8      0.000      0.000
REMARK  Name = 
REMARK  6 active torsions:
REMARK  status: ('A' for Active; 'I' for Inactive)
REMARK    1  A    between atoms: C_1  and  C_2
REMARK    2  A    between atoms: C_2  and  O_3
REMARK    3  A    between atoms: O_3  and  C_4
REMARK    4  A    between atoms: C_4  and  C_5
REMARK    5  A    between atoms: N_11  and  C_12
REMARK    6  A    between atoms: C_15  and  C_17
REMARK                            x       y       z     vdW  Elec       q    Type
REMARK                         _______ _______ _______ _____ _____    ______ ____
ROOT
ATOM      1  C   UNL     1       2.882   6.009  19.510  0.00  0.00    +0.000 C 
ATOM      2  C   UNL     1       2.587   7.148  18.497  0.00  0.00    +0.000 C 
ATOM      3  N   UNL     1       2.052   7.855  19.662  0.00  0.00    +0.000 N 
ATOM      4  C   UNL     1       1.408   9.072  19.650  0.00  0.00    +0.000 C 
ATOM      5  O   UNL     1       1.372   9.786  18.653  0.00  0.00    +0.000 OA
ATOM      6  C   UNL     1       1.680   6.588  20.301  0.00  0.00    +0.000 C 
ENDROOT
BRANCH   4   7
ATOM      7  C   UNL     1       0.810   9.485  20.920  0.00  0.00    +0.000 A 
ATOM      8  C   UNL     1       1.175   9.041  22.182  0.00  0.00    +0.000 A 
ATOM      9  N   UNL     1       0.378   9.647  23.108  0.00  0.00    +0.000 N 
ATOM     10  C   UNL     1      -0.474  10.531  22.495  0.00  0.00    +0.000 A 
ATOM     11  C   UNL     1      -1.440  11.375  23.052  0.00  0.00    +0.000 A 
ATOM     12  C   UNL     1      -2.159  12.198  22.182  0.00  0.00    +0.000 A 
ATOM     13  C   UNL     1      -1.916  12.176  20.810  0.00  0.00    +0.000 A 
ATOM     14  C   UNL     1      -0.952  11.318  20.270  0.00  0.00    +0.000 A 
ATOM     15  C   UNL     1      -0.212  10.472  21.124  0.00  0.00    +0.000 A 
ATOM     16  H   UNL     1       0.420   9.492  24.107  0.00  0.00    +0.000 HD
ENDBRANCH   4   7
BRANCH   1  23
ATOM     17  C   UNL     1       3.626   3.699  19.259  0.00  0.00    +0.000 C 
ATOM     18  C   UNL     1       3.115   2.791  20.372  0.00  0.00    +0.000 C 
ATOM     19  C   UNL     1       1.632   2.752  20.123  0.00  0.00    +0.000 C 
ATOM     20  F   UNL     1       0.954   2.427  21.240  0.00  0.00    +0.000 F 
ATOM     21  F   UNL     1       1.337   1.826  19.182  0.00  0.00    +0.000 F 
ATOM     22  C   UNL     1       1.309   4.157  19.634  0.00  0.00    +0.000 C 
ATOM     23  N   UNL     1       2.539   4.678  18.979  0.00  0.00    +0.000 NA
BRANCH  17  24
ATOM     24  C   UNL     1       3.949   2.917  17.966  0.00  0.00    +0.000 C 
BRANCH  24  25
ATOM     25  O   UNL     1       3.981   3.815  16.851  0.00  0.00    +0.000 OA
BRANCH  25  27
ATOM     26  C   UNL     1       5.356   5.368  15.645  0.00  0.00    +0.000 C 
ATOM     27  C   UNL     1       5.317   4.068  16.424  0.00  0.00    +0.000 C 
ENDBRANCH  25  27
ENDBRANCH  24  25
ENDBRANCH  17  24
ENDBRANCH   1  23
TORSDOF 5
ENDMDL
MODEL 2
REMARK VINA RESULT:      -7.8      3.060      4.279
REMARK  Name = 
REMARK  6 active torsions:
REMARK  status: ('A' for Active; 'I' for Inactive)
REMARK    1  A    between atoms: C_1  and  C_2
REMARK    2  A    between atoms: C_2  and  O_3
REMARK    3  A    between atoms: O_3  and  C_4
REMARK    4  A    between atoms: C_4  and  C_5
REMARK    5  A    between atoms: N_11  and  C_12
REMARK    6  A    between atoms: C_15  and  C_17
REMARK                            x       y       z     vdW  Elec       q    Type
REMARK                         _______ _______ _______ _____ _____    ______ ____
ROOT
ATOM      1  C   UNL     1       4.111   5.094  17.320  0.00  0.00    +0.000 C 
ATOM      2  C   UNL     1       3.481   4.899  18.726  0.00  0.00    +0.000 C 
ATOM      3  N   UNL     1       2.912   6.228  18.501  0.00  0.00    +0.000 N 
ATOM      4  C   UNL     1       2.189   6.969  19.411  0.00  0.00    +0.000 C 
ATOM      5  O   UNL     1       1.794   6.499  20.473  0.00  0.00    +0.000 OA
ATOM      6  C   UNL     1       4.046   6.607  17.653  0.00  0.00    +0.000 C 
ENDROOT
BRANCH   4   7
ATOM      7  C   UNL     1       1.879   8.341  19.007  0.00  0.00    +0.000 A 
ATOM      8  C   UNL     1       2.234   8.944  17.810  0.00  0.00    +0.000 A 
ATOM      9  N   UNL     1       1.775  10.229  17.814  0.00  0.00    +0.000 N 
ATOM     10  C   UNL     1       1.071  10.478  18.965  0.00  0.00    +0.000 A 
ATOM     11  C   UNL     1       0.414  11.641  19.378  0.00  0.00    +0.000 A 
ATOM     12  C   UNL     1      -0.252  11.608  20.605  0.00  0.00    +0.000 A 
ATOM     13  C   UNL     1      -0.259  10.453  21.384  0.00  0.00    +0.000 A 
ATOM     14  C   UNL     1       0.411   9.301  20.959  0.00  0.00    +0.000 A 
ATOM     15  C   UNL     1       1.097   9.307  19.725  0.00  0.00    +0.000 A 
ATOM     16  H   UNL     1       1.909  10.899  17.068  0.00  0.00    +0.000 HD
ENDBRANCH   4   7
BRANCH   1  23
ATOM     17  C   UNL     1       6.345   5.617  16.492  0.00  0.00    +0.000 C 
ATOM     18  C   UNL     1       7.190   6.373  17.512  0.00  0.00    +0.000 C 
ATOM     19  C   UNL     1       7.404   5.353  18.596  0.00  0.00    +0.000 C 
ATOM     20  F   UNL     1       7.688   5.941  19.775  0.00  0.00    +0.000 F 
ATOM     21  F   UNL     1       8.442   4.544  18.282  0.00  0.00    +0.000 F 
ATOM     22  C   UNL     1       6.093   4.580  18.632  0.00  0.00    +0.000 C 
ATOM     23  N   UNL     1       5.514   4.651  17.263  0.00  0.00    +0.000 NA
BRANCH  17  24
ATOM     24  C   UNL     1       7.210   4.841  15.474  0.00  0.00    +0.000 C 
BRANCH  24  25
ATOM     25  O   UNL     1       6.700   5.040  14.151  0.00  0.00    +0.000 OA
BRANCH  25  27
ATOM     26  C   UNL     1       6.457   3.570  12.270  0.00  0.00    +0.000 C 
ATOM     27  C   UNL     1       6.005   3.887  13.682  0.00  0.00    +0.000 C 
ENDBRANCH  25  27
ENDBRANCH  24  25
ENDBRANCH  17  24
ENDBRANCH   1  23
TORSDOF 5
ENDMDL
MODEL 3
REMARK VINA RESULT:      -7.8      3.199      4.001
REMARK  Name = 
REMARK  6 active torsions:
REMARK  status: ('A' for Active; 'I' for Inactive)
REMARK    1  A    between atoms: C_1  and  C_2
REMARK    2  A    between atoms: C_2  and  O_3
REMARK    3  A    between atoms: O_3  and  C_4
REMARK    4  A    between atoms: C_4  and  C_5
REMARK    5  A    between atoms: N_11  and  C_12
REMARK    6  A    between atoms: C_15  and  C_17
REMARK                            x       y       z     vdW  Elec       q    Type
REMARK                         _______ _______ _______ _____ _____    ______ ____
ROOT
ATOM      1  C   UNL     1       2.843   6.691  18.207  0.00  0.00    +0.000 C 
ATOM      2  C   UNL     1       2.440   6.631  19.705  0.00  0.00    +0.000 C 
ATOM      3  N   UNL     1       1.785   7.912  19.435  0.00  0.00    +0.000 N 
ATOM      4  C   UNL     1       1.175   8.725  20.364  0.00  0.00    +0.000 C 
ATOM      5  O   UNL     1       0.965   8.363  21.517  0.00  0.00    +0.000 OA
ATOM      6  C   UNL     1       2.763   8.229  18.389  0.00  0.00    +0.000 C 
ENDROOT
BRANCH   4   7
ATOM      7  C   UNL     1       0.749  10.037  19.875  0.00  0.00    +0.000 A 
ATOM      8  C   UNL     1       1.337  11.256  20.176  0.00  0.00    +0.000 A 
ATOM      9  N   UNL     1       0.646  12.245  19.539  0.00  0.00    +0.000 N 
ATOM     10  C   UNL     1      -0.356  11.706  18.774  0.00  0.00    +0.000 A 
ATOM     11  C   UNL     1      -1.289  12.340  17.946  0.00  0.00    +0.000 A 
ATOM     12  C   UNL     1      -2.196  11.533  17.256  0.00  0.00    +0.000 A 
ATOM     13  C   UNL     1      -2.166  10.146  17.389  0.00  0.00    +0.000 A 
ATOM     14  C   UNL     1      -1.231   9.530  18.229  0.00  0.00    +0.000 A 
ATOM     15  C   UNL     1      -0.305  10.321  18.942  0.00  0.00    +0.000 A 
ATOM     16  H   UNL     1       0.854  13.234  19.598  0.00  0.00    +0.000 HD
ENDBRANCH   4   7
BRANCH   1  23
ATOM     17  C   UNL     1       4.378   4.801  18.039  0.00  0.00    +0.000 C 
ATOM     18  C   UNL     1       4.575   4.327  16.604  0.00  0.00    +0.000 C 
ATOM     19  C   UNL     1       5.301   5.478  15.964  0.00  0.00    +0.000 C 
ATOM     20  F   UNL     1       5.137   5.482  14.627  0.00  0.00    +0.000 F 
ATOM     21  F   UNL     1       6.628   5.393  16.213  0.00  0.00    +0.000 F 
ATOM     22  C   UNL     1       4.693   6.706  16.628  0.00  0.00    +0.000 C 
ATOM     23  N   UNL     1       4.240   6.283  17.981  0.00  0.00    +0.000 NA
BRANCH  17  24
ATOM     24  C   UNL     1       5.575   4.439  18.946  0.00  0.00    +0.000 C 
BRANCH  24  25
ATOM     25  O   UNL     1       6.131   5.630  19.515  0.00  0.00    +0.000 OA
BRANCH  25  27
ATOM     26  C   UNL     1       7.949   6.899  18.599  0.00  0.00    +0.000 C 
ATOM     27  C   UNL     1       7.550   5.661  19.376  0.00  0.00    +0.000 C 
ENDBRANCH  25  27
ENDBRANCH  24  25
ENDBRANCH  17  24
ENDBRANCH   1  23
TORSDOF 5
ENDMDL
MODEL 4
REMARK VINA RESULT:      -7.7      2.990      7.731
REMARK  Name = 
REMARK  6 active torsions:
REMARK  status: ('A' for Active; 'I' for Inactive)
REMARK    1  A    between atoms: C_1  and  C_2
REMARK    2  A    between atoms: C_2  and  O_3
REMARK    3  A    between atoms: O_3  and  C_4
REMARK    4  A    between atoms: C_4  and  C_5
REMARK    5  A    between atoms: N_11  and  C_12
REMARK    6  A    between atoms: C_15  and  C_17
REMARK                            x       y       z     vdW  Elec       q    Type
REMARK                         _______ _______ _______ _____ _____    ______ ____
ROOT
ATOM      1  C   UNL     1       1.500   8.460  18.660  0.00  0.00    +0.000 C 
ATOM      2  C   UNL     1       2.634   8.647  17.616  0.00  0.00    +0.000 C 
ATOM      3  N   UNL     1       2.984   7.267  17.957  0.00  0.00    +0.000 N 
ATOM      4  C   UNL     1       4.080   6.569  17.500  0.00  0.00    +0.000 C 
ATOM      5  O   UNL     1       4.800   6.993  16.601  0.00  0.00    +0.000 OA
ATOM      6  C   UNL     1       2.462   7.435  19.317  0.00  0.00    +0.000 C 
ENDROOT
BRANCH   4   7
ATOM      7  C   UNL     1       4.305   5.265  18.123  0.00  0.00    +0.000 A 
ATOM      8  C   UNL     1       5.483   4.828  18.709  0.00  0.00    +0.000 A 
ATOM      9  N   UNL     1       5.300   3.555  19.165  0.00  0.00    +0.000 N 
ATOM     10  C   UNL     1       4.007   3.154  18.946  0.00  0.00    +0.000 A 
ATOM     11  C   UNL     1       3.377   1.946  19.267  0.00  0.00    +0.000 A 
ATOM     12  C   UNL     1       2.025   1.816  18.943  0.00  0.00    +0.000 A 
ATOM     13  C   UNL     1       1.333   2.854  18.326  0.00  0.00    +0.000 A 
ATOM     14  C   UNL     1       1.980   4.053  18.005  0.00  0.00    +0.000 A 
ATOM     15  C   UNL     1       3.348   4.212  18.316  0.00  0.00    +0.000 A 
ATOM     16  H   UNL     1       6.005   2.991  19.623  0.00  0.00    +0.000 HD
ENDBRANCH   4   7
BRANCH   1  23
ATOM     17  C   UNL     1       0.156  10.441  19.133  0.00  0.00    +0.000 C 
ATOM     18  C   UNL     1      -0.921  10.186  20.181  0.00  0.00    +0.000 C 
ATOM     19  C   UNL     1      -0.124   9.947  21.433  0.00  0.00    +0.000 C 
ATOM     20  F   UNL     1      -0.828   9.236  22.336  0.00  0.00    +0.000 F 
ATOM     21  F   UNL     1       0.210  11.124  22.011  0.00  0.00    +0.000 F 
ATOM     22  C   UNL     1       1.110   9.203  20.943  0.00  0.00    +0.000 C 
ATOM     23  N   UNL     1       1.340   9.633  19.537  0.00  0.00    +0.000 NA
BRANCH  17  24
ATOM     24  C   UNL     1       0.561  11.930  19.058  0.00  0.00    +0.000 C 
BRANCH  24  25
ATOM     25  O   UNL     1       1.934  12.041  18.664  0.00  0.00    +0.000 OA
BRANCH  25  27
ATOM     26  C   UNL     1       2.325  13.372  20.620  0.00  0.00    +0.000 C 
ATOM     27  C   UNL     1       2.510  13.262  19.120  0.00  0.00    +0.000 C 
ENDBRANCH  25  27
ENDBRANCH  24  25
ENDBRANCH  17  24
ENDBRANCH   1  23
TORSDOF 5
ENDMDL
MODEL 5
REMARK VINA RESULT:      -7.7      3.237      4.062
REMARK  Name = 
REMARK  6 active torsions:
REMARK  status: ('A' for Active; 'I' for Inactive)
REMARK    1  A    between atoms: C_1  and  C_2
REMARK    2  A    between atoms: C_2  and  O_3
REMARK    3  A    between atoms: O_3  and  C_4
REMARK    4  A    between atoms: C_4  and  C_5
REMARK    5  A    between atoms: N_11  and  C_12
REMARK    6  A    between atoms: C_15  and  C_17
REMARK                            x       y       z     vdW  Elec       q    Type
REMARK                         _______ _______ _______ _____ _____    ______ ____
ROOT
ATOM      1  C   UNL     1       2.846   6.572  18.281  0.00  0.00    +0.000 C 
ATOM      2  C   UNL     1       2.551   6.829  19.784  0.00  0.00    +0.000 C 
ATOM      3  N   UNL     1       1.781   7.972  19.293  0.00  0.00    +0.000 N 
ATOM      4  C   UNL     1       1.173   8.936  20.067  0.00  0.00    +0.000 C 
ATOM      5  O   UNL     1       1.070   8.832  21.284  0.00  0.00    +0.000 OA
ATOM      6  C   UNL     1       2.657   8.103  18.124  0.00  0.00    +0.000 C 
ENDROOT
BRANCH   4   7
ATOM      7  C   UNL     1       0.612  10.073  19.336  0.00  0.00    +0.000 A 
ATOM      8  C   UNL     1      -0.268  10.008  18.267  0.00  0.00    +0.000 A 
ATOM      9  N   UNL     1      -0.549  11.278  17.853  0.00  0.00    +0.000 N 
ATOM     10  C   UNL     1       0.081  12.190  18.660  0.00  0.00    +0.000 A 
ATOM     11  C   UNL     1       0.059  13.589  18.618  0.00  0.00    +0.000 A 
ATOM     12  C   UNL     1       0.786  14.277  19.591  0.00  0.00    +0.000 A 
ATOM     13  C   UNL     1       1.503  13.591  20.569  0.00  0.00    +0.000 A 
ATOM     14  C   UNL     1       1.520  12.192  20.591  0.00  0.00    +0.000 A 
ATOM     15  C   UNL     1       0.799  11.469  19.616  0.00  0.00    +0.000 A 
ATOM     16  H   UNL     1      -1.153  11.519  17.078  0.00  0.00    +0.000 HD
ENDBRANCH   4   7
BRANCH   1  23
ATOM     17  C   UNL     1       4.438   4.733  18.077  0.00  0.00    +0.000 C 
ATOM     18  C   UNL     1       4.632   4.280  16.635  0.00  0.00    +0.000 C 
ATOM     19  C   UNL     1       5.314   5.459  15.998  0.00  0.00    +0.000 C 
ATOM     20  F   UNL     1       5.133   5.470  14.663  0.00  0.00    +0.000 F 
ATOM     21  F   UNL     1       6.646   5.414  16.230  0.00  0.00    +0.000 F 
ATOM     22  C   UNL     1       4.675   6.660  16.681  0.00  0.00    +0.000 C 
ATOM     23  N   UNL     1       4.253   6.211  18.035  0.00  0.00    +0.000 NA
BRANCH  17  24
ATOM     24  C   UNL     1       5.657   4.401  18.966  0.00  0.00    +0.000 C 
BRANCH  24  25
ATOM     25  O   UNL     1       6.191   5.605  19.528  0.00  0.00    +0.000 OA
BRANCH  25  27
ATOM     26  C   UNL     1       7.977   6.892  18.575  0.00  0.00    +0.000 C 
ATOM     27  C   UNL     1       7.608   5.664  19.383  0.00  0.00    +0.000 C 
ENDBRANCH  25  27
ENDBRANCH  24  25
ENDBRANCH  17  24
ENDBRANCH   1  23
TORSDOF 5
ENDMDL
MODEL 6
REMARK VINA RESULT:      -7.6      1.497      1.942
REMARK  Name = 
REMARK  6 active torsions:
REMARK  status: ('A' for Active; 'I' for Inactive)
REMARK    1  A    between atoms: C_1  and  C_2
REMARK    2  A    between atoms: C_2  and  O_3
REMARK    3  A    between atoms: O_3  and  C_4
REMARK    4  A    between atoms: C_4  and  C_5
REMARK    5  A    between atoms: N_11  and  C_12
REMARK    6  A    between atoms: C_15  and  C_17
REMARK                            x       y       z     vdW  Elec       q    Type
REMARK                         _______ _______ _______ _____ _____    ______ ____
ROOT
ATOM      1  C   UNL     1       2.549   6.154  19.659  0.00  0.00    +0.000 C 
ATOM      2  C   UNL     1       2.951   6.960  18.394  0.00  0.00    +0.000 C 
ATOM      3  N   UNL     1       2.119   8.016  18.972  0.00  0.00    +0.000 N 
ATOM      4  C   UNL     1       1.799   9.217  18.379  0.00  0.00    +0.000 C 
ATOM      5  O   UNL     1       2.337   9.603  17.347  0.00  0.00    +0.000 OA
ATOM      6  C   UNL     1       1.265   7.024  19.635  0.00  0.00    +0.000 C 
ENDROOT
BRANCH   4   7
ATOM      7  C   UNL     1       0.807  10.028  19.086  0.00  0.00    +0.000 A 
ATOM      8  C   UNL     1       0.989  10.672  20.301  0.00  0.00    +0.000 A 
ATOM      9  N   UNL     1      -0.168  11.313  20.634  0.00  0.00    +0.000 N 
ATOM     10  C   UNL     1      -1.100  11.158  19.640  0.00  0.00    +0.000 A 
ATOM     11  C   UNL     1      -2.405  11.656  19.550  0.00  0.00    +0.000 A 
ATOM     12  C   UNL     1      -3.133  11.357  18.397  0.00  0.00    +0.000 A 
ATOM     13  C   UNL     1      -2.575  10.592  17.375  0.00  0.00    +0.000 A 
ATOM     14  C   UNL     1      -1.272  10.095  17.486  0.00  0.00    +0.000 A 
ATOM     15  C   UNL     1      -0.513  10.377  18.642  0.00  0.00    +0.000 A 
ATOM     16  H   UNL     1      -0.317  11.849  21.479  0.00  0.00    +0.000 HD
ENDBRANCH   4   7
BRANCH   1  23
ATOM     17  C   UNL     1       3.389   3.865  19.566  0.00  0.00    +0.000 C 
ATOM     18  C   UNL     1       3.116   3.086  20.847  0.00  0.00    +0.000 C 
ATOM     19  C   UNL     1       1.619   2.952  20.850  0.00  0.00    +0.000 C 
ATOM     20  F   UNL     1       1.145   2.743  22.094  0.00  0.00    +0.000 F 
ATOM     21  F   UNL     1       1.239   1.902  20.086  0.00  0.00    +0.000 F 
ATOM     22  C   UNL     1       1.135   4.268  20.257  0.00  0.00    +0.000 C 
ATOM     23  N   UNL     1       2.212   4.753  19.353  0.00  0.00    +0.000 NA
BRANCH  17  24
ATOM     24  C   UNL     1       3.554   2.940  18.341  0.00  0.00    +0.000 C 
BRANCH  24  25
ATOM     25  O   UNL     1       3.647   3.727  17.147  0.00  0.00    +0.000 OA
BRANCH  25  27
ATOM     26  C   UNL     1       5.147   5.157  15.939  0.00  0.00    +0.000 C 
ATOM     27  C   UNL     1       4.999   3.865  16.718  0.00  0.00    +0.000 C 
ENDBRANCH  25  27
ENDBRANCH  24  25
ENDBRANCH  17  24
ENDBRANCH   1  23
TORSDOF 5
ENDMDL
MODEL 7
REMARK VINA RESULT:      -7.6      2.933      4.056
REMARK  Name = 
REMARK  6 active torsions:
REMARK  status: ('A' for Active; 'I' for Inactive)
REMARK    1  A    between atoms: C_1  and  C_2
REMARK    2  A    between atoms: C_2  and  O_3
REMARK    3  A    between atoms: O_3  and  C_4
REMARK    4  A    between atoms: C_4  and  C_5
REMARK    5  A    between atoms: N_11  and  C_12
REMARK    6  A    between atoms: C_15  and  C_17
REMARK                            x       y       z     vdW  Elec       q    Type
REMARK                         _______ _______ _______ _____ _____    ______ ____
ROOT
ATOM      1  C   UNL     1       2.684   6.635  18.471  0.00  0.00    +0.000 C 
ATOM      2  C   UNL     1       2.291   6.682  19.973  0.00  0.00    +0.000 C 
ATOM      3  N   UNL     1       1.646   7.947  19.620  0.00  0.00    +0.000 N 
ATOM      4  C   UNL     1       1.049   8.828  20.495  0.00  0.00    +0.000 C 
ATOM      5  O   UNL     1       0.843   8.546  21.671  0.00  0.00    +0.000 OA
ATOM      6  C   UNL     1       2.619   8.183  18.549  0.00  0.00    +0.000 C 
ENDROOT
BRANCH   4   7
ATOM      7  C   UNL     1       0.630  10.107  19.919  0.00  0.00    +0.000 A 
ATOM      8  C   UNL     1       1.232  11.337  20.132  0.00  0.00    +0.000 A 
ATOM      9  N   UNL     1       0.545  12.287  19.433  0.00  0.00    +0.000 N 
ATOM     10  C   UNL     1      -0.468  11.706  18.714  0.00  0.00    +0.000 A 
ATOM     11  C   UNL     1      -1.402  12.291  17.851  0.00  0.00    +0.000 A 
ATOM     12  C   UNL     1      -2.321  11.446  17.225  0.00  0.00    +0.000 A 
ATOM     13  C   UNL     1      -2.302  10.072  17.453  0.00  0.00    +0.000 A 
ATOM     14  C   UNL     1      -1.367   9.506  18.326  0.00  0.00    +0.000 A 
ATOM     15  C   UNL     1      -0.428  10.336  18.977  0.00  0.00    +0.000 A 
ATOM     16  H   UNL     1       0.762  13.275  19.423  0.00  0.00    +0.000 HD
ENDBRANCH   4   7
BRANCH   1  23
ATOM     17  C   UNL     1       4.152   4.723  18.089  0.00  0.00    +0.000 C 
ATOM     18  C   UNL     1       4.425   4.477  16.610  0.00  0.00    +0.000 C 
ATOM     19  C   UNL     1       5.237   5.678  16.211  0.00  0.00    +0.000 C 
ATOM     20  F   UNL     1       5.163   5.905  14.885  0.00  0.00    +0.000 F 
ATOM     21  F   UNL     1       6.541   5.489  16.521  0.00  0.00    +0.000 F 
ATOM     22  C   UNL     1       4.635   6.812  17.030  0.00  0.00    +0.000 C 
ATOM     23  N   UNL     1       4.077   6.200  18.266  0.00  0.00    +0.000 NA
BRANCH  17  24
ATOM     24  C   UNL     1       5.271   4.161  18.994  0.00  0.00    +0.000 C 
BRANCH  24  25
ATOM     25  O   UNL     1       4.800   2.997  19.683  0.00  0.00    +0.000 OA
BRANCH  25  27
ATOM     26  C   UNL     1       2.838   2.807  21.049  0.00  0.00    +0.000 C 
ATOM     27  C   UNL     1       3.378   2.904  19.637  0.00  0.00    +0.000 C 
ENDBRANCH  25  27
ENDBRANCH  24  25
ENDBRANCH  17  24
ENDBRANCH   1  23
TORSDOF 5
ENDMDL
MODEL 8
REMARK VINA RESULT:      -7.6      3.176      4.346
REMARK  Name = 
REMARK  6 active torsions:
REMARK  status: ('A' for Active; 'I' for Inactive)
REMARK    1  A    between atoms: C_1  and  C_2
REMARK    2  A    between atoms: C_2  and  O_3
REMARK    3  A    between atoms: O_3  and  C_4
REMARK    4  A    between atoms: C_4  and  C_5
REMARK    5  A    between atoms: N_11  and  C_12
REMARK    6  A    between atoms: C_15  and  C_17
REMARK                            x       y       z     vdW  Elec       q    Type
REMARK                         _______ _______ _______ _____ _____    ______ ____
ROOT
ATOM      1  C   UNL     1       3.838   5.922  17.098  0.00  0.00    +0.000 C 
ATOM      2  C   UNL     1       3.586   5.407  18.541  0.00  0.00    +0.000 C 
ATOM      3  N   UNL     1       2.774   6.616  18.681  0.00  0.00    +0.000 N 
ATOM      4  C   UNL     1       2.168   7.062  19.835  0.00  0.00    +0.000 C 
ATOM      5  O   UNL     1       2.107   6.376  20.850  0.00  0.00    +0.000 OA
ATOM      6  C   UNL     1       3.608   7.329  17.708  0.00  0.00    +0.000 C 
ENDROOT
BRANCH   4   7
ATOM      7  C   UNL     1       1.557   8.389  19.758  0.00  0.00    +0.000 A 
ATOM      8  C   UNL     1       1.477   9.191  18.631  0.00  0.00    +0.000 A 
ATOM      9  N   UNL     1       0.849  10.356  18.965  0.00  0.00    +0.000 N 
ATOM     10  C   UNL     1       0.458  10.323  20.279  0.00  0.00    +0.000 A 
ATOM     11  C   UNL     1      -0.229  11.281  21.033  0.00  0.00    +0.000 A 
ATOM     12  C   UNL     1      -0.520  10.971  22.363  0.00  0.00    +0.000 A 
ATOM     13  C   UNL     1      -0.141   9.749  22.913  0.00  0.00    +0.000 A 
ATOM     14  C   UNL     1       0.553   8.806  22.147  0.00  0.00    +0.000 A 
ATOM     15  C   UNL     1       0.866   9.093  20.800  0.00  0.00    +0.000 A 
ATOM     16  H   UNL     1       0.671  11.126  18.334  0.00  0.00    +0.000 HD
ENDBRANCH   4   7
BRANCH   1  23
ATOM     17  C   UNL     1       5.767   4.428  17.040  0.00  0.00    +0.000 C 
ATOM     18  C   UNL     1       5.865   3.643  15.737  0.00  0.00    +0.000 C 
ATOM     19  C   UNL     1       6.167   4.710  14.721  0.00  0.00    +0.000 C 
ATOM     20  F   UNL     1       5.812   4.323  13.481  0.00  0.00    +0.000 F 
ATOM     21  F   UNL     1       7.492   4.980  14.702  0.00  0.00    +0.000 F 
ATOM     22  C   UNL     1       5.367   5.911  15.207  0.00  0.00    +0.000 C 
ATOM     23  N   UNL     1       5.244   5.777  16.683  0.00  0.00    +0.000 NA
BRANCH  17  24
ATOM     24  C   UNL     1       7.137   4.584  17.736  0.00  0.00    +0.000 C 
BRANCH  24  25
ATOM     25  O   UNL     1       6.952   4.707  19.151  0.00  0.00    +0.000 OA
BRANCH  25  27
ATOM     26  C   UNL     1       8.055   6.758  18.575  0.00  0.00    +0.000 C 
ATOM     27  C   UNL     1       7.721   5.782  19.685  0.00  0.00    +0.000 C 
ENDBRANCH  25  27
ENDBRANCH  24  25
ENDBRANCH  17  24
ENDBRANCH   1  23
TORSDOF 5
ENDMDL
MODEL 9
REMARK VINA RESULT:      -7.5      2.847      7.855
REMARK  Name = 
REMARK  6 active torsions:
REMARK  status: ('A' for Active; 'I' for Inactive)
REMARK    1  A    between atoms: C_1  and  C_2
REMARK    2  A    between atoms: C_2  and  O_3
REMARK    3  A    between atoms: O_3  and  C_4
REMARK    4  A    between atoms: C_4  and  C_5
REMARK    5  A    between atoms: N_11  and  C_12
REMARK    6  A    between atoms: C_15  and  C_17
REMARK                            x       y       z     vdW  Elec       q    Type
REMARK                         _______ _______ _______ _____ _____    ______ ____
ROOT
ATOM      1  C   UNL     1       1.534   8.247  18.992  0.00  0.00    +0.000 C 
ATOM      2  C   UNL     1       2.608   8.556  17.914  0.00  0.00    +0.000 C 
ATOM      3  N   UNL     1       3.006   7.162  18.111  0.00  0.00    +0.000 N 
ATOM      4  C   UNL     1       4.092   6.538  17.539  0.00  0.00    +0.000 C 
ATOM      5  O   UNL     1       4.755   7.058  16.647  0.00  0.00    +0.000 OA
ATOM      6  C   UNL     1       2.552   7.194  19.505  0.00  0.00    +0.000 C 
ENDROOT
BRANCH   4   7
ATOM      7  C   UNL     1       4.379   5.189  18.030  0.00  0.00    +0.000 A 
ATOM      8  C   UNL     1       5.604   4.725  18.483  0.00  0.00    +0.000 A 
ATOM      9  N   UNL     1       5.470   3.415  18.843  0.00  0.00    +0.000 N 
ATOM     10  C   UNL     1       4.168   3.013  18.692  0.00  0.00    +0.000 A 
ATOM     11  C   UNL     1       3.578   1.772  18.958  0.00  0.00    +0.000 A 
ATOM     12  C   UNL     1       2.206   1.646  18.730  0.00  0.00    +0.000 A 
ATOM     13  C   UNL     1       1.456   2.722  18.259  0.00  0.00    +0.000 A 
ATOM     14  C   UNL     1       2.064   3.953  17.991  0.00  0.00    +0.000 A 
ATOM     15  C   UNL     1       3.451   4.108  18.207  0.00  0.00    +0.000 A 
ATOM     16  H   UNL     1       6.214   2.827  19.195  0.00  0.00    +0.000 HD
ENDBRANCH   4   7
BRANCH   1  23
ATOM     17  C   UNL     1       0.238  10.209  19.642  0.00  0.00    +0.000 C 
ATOM     18  C   UNL     1      -0.860   9.883  20.648  0.00  0.00    +0.000 C 
ATOM     19  C   UNL     1      -0.088   9.500  21.880  0.00  0.00    +0.000 C 
ATOM     20  F   UNL     1      -0.823   8.725  22.700  0.00  0.00    +0.000 F 
ATOM     21  F   UNL     1       0.270  10.605  22.573  0.00  0.00    +0.000 F 
ATOM     22  C   UNL     1       1.133   8.774  21.332  0.00  0.00    +0.000 C 
ATOM     23  N   UNL     1       1.394   9.332  19.978  0.00  0.00    +0.000 NA
BRANCH  17  24
ATOM     24  C   UNL     1       0.683  11.686  19.718  0.00  0.00    +0.000 C 
BRANCH  24  25
ATOM     25  O   UNL     1      -0.457  12.544  19.600  0.00  0.00    +0.000 OA
BRANCH  25  27
ATOM     26  C   UNL     1      -1.898  11.990  17.764  0.00  0.00    +0.000 C 
ATOM     27  C   UNL     1      -0.742  12.848  18.236  0.00  0.00    +0.000 C 
ENDBRANCH  25  27
ENDBRANCH  24  25
ENDBRANCH  17  24
ENDBRANCH   1  23
TORSDOF 5
ENDMDL
