MODEL 1
REMARK VINA RESULT:      -8.9      0.000      0.000
REMARK  Name = 
REMARK  9 active torsions:
REMARK  status: ('A' for Active; 'I' for Inactive)
REMARK    1  A    between atoms: C_1  and  O_2
REMARK    2  A    between atoms: O_2  and  N_3
REMARK    3  A    between atoms: C_4  and  C_5
REMARK    4  A    between atoms: C_4  and  C_10
REMARK    5  A    between atoms: C_15  and  C_16
REMARK    6  A    between atoms: C_16  and  O_17
REMARK    7  A    between atoms: O_17  and  C_18
REMARK    8  A    between atoms: C_20  and  C_21
REMARK    9  A    between atoms: C_24  and  C_25
REMARK                            x       y       z     vdW  Elec       q    Type
REMARK                         _______ _______ _______ _____ _____    ______ ____
ROOT
ATOM      1  C   UNL     1       3.809   3.888  18.155  0.00  0.00    +0.000 A 
ATOM      2  C   UNL     1       3.444   2.563  17.828  0.00  0.00    +0.000 A 
ATOM      3  C   UNL     1       2.154   2.089  18.058  0.00  0.00    +0.000 A 
ATOM      4  C   UNL     1       1.187   2.944  18.564  0.00  0.00    +0.000 A 
ATOM      5  C   UNL     1       1.511   4.271  18.846  0.00  0.00    +0.000 A 
ATOM      6  C   UNL     1       2.824   4.762  18.671  0.00  0.00    +0.000 A 
ENDROOT
BRANCH   1   8
ATOM      7  N   UNL     1       6.064   4.290  18.945  0.00  0.00    +0.000 NA
ATOM      8  C   UNL     1       5.242   4.295  17.931  0.00  0.00    +0.000 C 
BRANCH   8   9
ATOM      9  C   UNL     1       5.633   4.669  16.556  0.00  0.00    +0.000 A 
ATOM     10  C   UNL     1       6.087   3.816  15.506  0.00  0.00    +0.000 A 
ATOM     11  C   UNL     1       6.289   4.648  14.438  0.00  0.00    +0.000 A 
ATOM     12  O   UNL     1       5.976   5.914  14.791  0.00  0.00    +0.000 OA
ATOM     13  N   UNL     1       5.545   5.932  16.100  0.00  0.00    +0.000 NA
ENDBRANCH   8   9
BRANCH   7  15
ATOM     14  C   UNL     1       7.789   5.783  19.305  0.00  0.00    +0.000 C 
ATOM     15  O   UNL     1       7.375   4.635  18.582  0.00  0.00    +0.000 OA
ENDBRANCH   7  15
ENDBRANCH   1   8
BRANCH   6  16
ATOM     16  C   UNL     1       3.100   6.185  19.124  0.00  0.00    +0.000 C 
BRANCH  16  17
ATOM     17  O   UNL     1       2.205   6.580  20.151  0.00  0.00    +0.000 OA
BRANCH  17  18
ATOM     18  C   UNL     1       1.672   7.845  20.162  0.00  0.00    +0.000 A 
ATOM     19  C   UNL     1       1.137   8.164  21.429  0.00  0.00    +0.000 A 
ATOM     20  C   UNL     1       0.508   9.390  21.690  0.00  0.00    +0.000 A 
ATOM     21  C   UNL     1      -0.152   9.672  23.008  0.00  0.00    +0.000 C 
ATOM     22  C   UNL     1       0.475  10.349  20.685  0.00  0.00    +0.000 A 
ATOM     23  C   UNL     1       1.004  10.057  19.430  0.00  0.00    +0.000 A 
ATOM     24  C   UNL     1       1.580   8.801  19.133  0.00  0.00    +0.000 A 
ATOM     25  C   UNL     1       1.994   8.604  17.702  0.00  0.00    +0.000 C 
ENDBRANCH  17  18
ENDBRANCH  16  17
ENDBRANCH   6  16
TORSDOF 6
ENDMDL
MODEL 2
REMARK VINA RESULT:      -8.4      0.954      1.918
REMARK  Name = 
REMARK  9 active torsions:
REMARK  status: ('A' for Active; 'I' for Inactive)
REMARK    1  A    between atoms: C_1  and  O_2
REMARK    2  A    between atoms: O_2  and  N_3
REMARK    3  A    between atoms: C_4  and  C_5
REMARK    4  A    between atoms: C_4  and  C_10
REMARK    5  A    between atoms: C_15  and  C_16
REMARK    6  A    between atoms: C_16  and  O_17
REMARK    7  A    between atoms: O_17  and  C_18
REMARK    8  A    between atoms: C_20  and  C_21
REMARK    9  A    between atoms: C_24  and  C_25
REMARK                            x       y       z     vdW  Elec       q    Type
REMARK                         _______ _______ _______ _____ _____    ______ ____
ROOT
ATOM      1  C   UNL     1       3.993   4.095  17.901  0.00  0.00    +0.000 A 
ATOM      2  C   UNL     1       3.584   2.755  17.718  0.00  0.00    +0.000 A 
ATOM      3  C   UNL     1       2.258   2.370  17.908  0.00  0.00    +0.000 A 
ATOM      4  C   UNL     1       1.303   3.325  18.227  0.00  0.00    +0.000 A 
ATOM      5  C   UNL     1       1.675   4.662  18.361  0.00  0.00    +0.000 A 
ATOM      6  C   UNL     1       3.021   5.070  18.226  0.00  0.00    +0.000 A 
ENDROOT
BRANCH   1   8
ATOM      7  N   UNL     1       6.220   4.426  18.796  0.00  0.00    +0.000 NA
ATOM      8  C   UNL     1       5.457   4.408  17.737  0.00  0.00    +0.000 C 
BRANCH   8   9
ATOM      9  C   UNL     1       5.945   4.669  16.366  0.00  0.00    +0.000 A 
ATOM     10  C   UNL     1       6.273   3.720  15.353  0.00  0.00    +0.000 A 
ATOM     11  C   UNL     1       6.645   4.473  14.271  0.00  0.00    +0.000 A 
ATOM     12  O   UNL     1       6.547   5.783  14.584  0.00  0.00    +0.000 OA
ATOM     13  N   UNL     1       6.089   5.914  15.877  0.00  0.00    +0.000 NA
ENDBRANCH   8   9
BRANCH   7  15
ATOM     14  C   UNL     1       8.005   5.847  19.158  0.00  0.00    +0.000 C 
ATOM     15  O   UNL     1       7.567   4.674  18.489  0.00  0.00    +0.000 OA
ENDBRANCH   7  15
ENDBRANCH   1   8
BRANCH   6  16
ATOM     16  C   UNL     1       3.339   6.527  18.514  0.00  0.00    +0.000 C 
BRANCH  16  17
ATOM     17  O   UNL     1       2.323   7.382  18.015  0.00  0.00    +0.000 OA
BRANCH  17  18
ATOM     18  C   UNL     1       1.878   8.445  18.761  0.00  0.00    +0.000 A 
ATOM     19  C   UNL     1       2.046   9.663  18.068  0.00  0.00    +0.000 A 
ATOM     20  C   UNL     1       1.696  10.900  18.629  0.00  0.00    +0.000 A 
ATOM     21  C   UNL     1       1.982  12.194  17.925  0.00  0.00    +0.000 C 
ATOM     22  C   UNL     1       1.097  10.917  19.883  0.00  0.00    +0.000 A 
ATOM     23  C   UNL     1       0.915   9.725  20.581  0.00  0.00    +0.000 A 
ATOM     24  C   UNL     1       1.325   8.479  20.055  0.00  0.00    +0.000 A 
ATOM     25  C   UNL     1       1.168   7.306  20.982  0.00  0.00    +0.000 C 
ENDBRANCH  17  18
ENDBRANCH  16  17
ENDBRANCH   6  16
TORSDOF 6
ENDMDL
MODEL 3
REMARK VINA RESULT:      -8.2      0.709      2.316
REMARK  Name = 
REMARK  9 active torsions:
REMARK  status: ('A' for Active; 'I' for Inactive)
REMARK    1  A    between atoms: C_1  and  O_2
REMARK    2  A    between atoms: O_2  and  N_3
REMARK    3  A    between atoms: C_4  and  C_5
REMARK    4  A    between atoms: C_4  and  C_10
REMARK    5  A    between atoms: C_15  and  C_16
REMARK    6  A    between atoms: C_16  and  O_17
REMARK    7  A    between atoms: O_17  and  C_18
REMARK    8  A    between atoms: C_20  and  C_21
REMARK    9  A    between atoms: C_24  and  C_25
REMARK                            x       y       z     vdW  Elec       q    Type
REMARK                         _______ _______ _______ _____ _____    ______ ____
ROOT
ATOM      1  C   UNL     1       3.867   4.307  17.550  0.00  0.00    +0.000 A 
ATOM      2  C   UNL     1       3.647   2.920  17.395  0.00  0.00    +0.000 A 
ATOM      3  C   UNL     1       2.577   2.282  18.021  0.00  0.00    +0.000 A 
ATOM      4  C   UNL     1       1.673   3.026  18.765  0.00  0.00    +0.000 A 
ATOM      5  C   UNL     1       1.841   4.405  18.888  0.00  0.00    +0.000 A 
ATOM      6  C   UNL     1       2.946   5.067  18.307  0.00  0.00    +0.000 A 
ENDROOT
BRANCH   1   8
ATOM      7  N   UNL     1       5.068   5.096  15.598  0.00  0.00    +0.000 NA
ATOM      8  C   UNL     1       5.084   4.899  16.889  0.00  0.00    +0.000 C 
BRANCH   8   9
ATOM      9  C   UNL     1       6.232   5.234  17.757  0.00  0.00    +0.000 A 
ATOM     10  C   UNL     1       6.862   6.501  17.935  0.00  0.00    +0.000 A 
ATOM     11  C   UNL     1       7.849   6.279  18.858  0.00  0.00    +0.000 A 
ATOM     12  O   UNL     1       7.828   4.981  19.231  0.00  0.00    +0.000 OA
ATOM     13  N   UNL     1       6.810   4.329  18.569  0.00  0.00    +0.000 NA
ENDBRANCH   8   9
BRANCH   7  15
ATOM     14  C   UNL     1       6.905   4.833  14.225  0.00  0.00    +0.000 C 
ATOM     15  O   UNL     1       6.241   5.703  15.127  0.00  0.00    +0.000 OA
ENDBRANCH   7  15
ENDBRANCH   1   8
BRANCH   6  16
ATOM     16  C   UNL     1       3.104   6.549  18.604  0.00  0.00    +0.000 C 
BRANCH  16  17
ATOM     17  O   UNL     1       2.491   6.893  19.835  0.00  0.00    +0.000 OA
BRANCH  17  18
ATOM     18  C   UNL     1       1.769   8.055  19.953  0.00  0.00    +0.000 A 
ATOM     19  C   UNL     1       1.215   8.185  21.244  0.00  0.00    +0.000 A 
ATOM     20  C   UNL     1       0.410   9.274  21.609  0.00  0.00    +0.000 A 
ATOM     21  C   UNL     1      -0.261   9.344  22.949  0.00  0.00    +0.000 C 
ATOM     22  C   UNL     1       0.211  10.294  20.686  0.00  0.00    +0.000 A 
ATOM     23  C   UNL     1       0.756  10.189  19.408  0.00  0.00    +0.000 A 
ATOM     24  C   UNL     1       1.513   9.065  19.007  0.00  0.00    +0.000 A 
ATOM     25  C   UNL     1       1.926   9.050  17.561  0.00  0.00    +0.000 C 
ENDBRANCH  17  18
ENDBRANCH  16  17
ENDBRANCH   6  16
TORSDOF 6
ENDMDL
MODEL 4
REMARK VINA RESULT:      -8.2      0.932      1.751
REMARK  Name = 
REMARK  9 active torsions:
REMARK  status: ('A' for Active; 'I' for Inactive)
REMARK    1  A    between atoms: C_1  and  O_2
REMARK    2  A    between atoms: O_2  and  N_3
REMARK    3  A    between atoms: C_4  and  C_5
REMARK    4  A    between atoms: C_4  and  C_10
REMARK    5  A    between atoms: C_15  and  C_16
REMARK    6  A    between atoms: C_16  and  O_17
REMARK    7  A    between atoms: O_17  and  C_18
REMARK    8  A    between atoms: C_20  and  C_21
REMARK    9  A    between atoms: C_24  and  C_25
REMARK                            x       y       z     vdW  Elec       q    Type
REMARK                         _______ _______ _______ _____ _____    ______ ____
ROOT
ATOM      1  C   UNL     1       3.878   3.757  18.041  0.00  0.00    +0.000 A 
ATOM      2  C   UNL     1       3.647   2.423  18.446  0.00  0.00    +0.000 A 
ATOM      3  C   UNL     1       2.357   1.950  18.679  0.00  0.00    +0.000 A 
ATOM      4  C   UNL     1       1.268   2.781  18.456  0.00  0.00    +0.000 A 
ATOM      5  C   UNL     1       1.470   4.085  18.006  0.00  0.00    +0.000 A 
ATOM      6  C   UNL     1       2.770   4.605  17.813  0.00  0.00    +0.000 A 
ENDROOT
BRANCH   1   8
ATOM      7  N   UNL     1       6.071   4.276  18.931  0.00  0.00    +0.000 NA
ATOM      8  C   UNL     1       5.308   4.199  17.875  0.00  0.00    +0.000 C 
BRANCH   8   9
ATOM      9  C   UNL     1       5.765   4.514  16.504  0.00  0.00    +0.000 A 
ATOM     10  C   UNL     1       5.996   3.611  15.424  0.00  0.00    +0.000 A 
ATOM     11  C   UNL     1       6.380   4.405  14.377  0.00  0.00    +0.000 A 
ATOM     12  O   UNL     1       6.377   5.697  14.771  0.00  0.00    +0.000 OA
ATOM     13  N   UNL     1       5.973   5.776  16.086  0.00  0.00    +0.000 NA
ENDBRANCH   8   9
BRANCH   7  15
ATOM     14  C   UNL     1       7.731   5.835  19.315  0.00  0.00    +0.000 C 
ATOM     15  O   UNL     1       7.389   4.645  18.622  0.00  0.00    +0.000 OA
ENDBRANCH   7  15
ENDBRANCH   1   8
BRANCH   6  16
ATOM     16  C   UNL     1       2.883   6.074  17.441  0.00  0.00    +0.000 C 
BRANCH  16  17
ATOM     17  O   UNL     1       3.273   6.857  18.557  0.00  0.00    +0.000 OA
BRANCH  17  18
ATOM     18  C   UNL     1       2.327   7.401  19.391  0.00  0.00    +0.000 A 
ATOM     19  C   UNL     1       1.970   8.702  18.981  0.00  0.00    +0.000 A 
ATOM     20  C   UNL     1       1.042   9.483  19.687  0.00  0.00    +0.000 A 
ATOM     21  C   UNL     1       0.754  10.905  19.302  0.00  0.00    +0.000 C 
ATOM     22  C   UNL     1       0.402   8.925  20.787  0.00  0.00    +0.000 A 
ATOM     23  C   UNL     1       0.735   7.638  21.204  0.00  0.00    +0.000 A 
ATOM     24  C   UNL     1       1.717   6.867  20.542  0.00  0.00    +0.000 A 
ATOM     25  C   UNL     1       2.044   5.550  21.188  0.00  0.00    +0.000 C 
ENDBRANCH  17  18
ENDBRANCH  16  17
ENDBRANCH   6  16
TORSDOF 6
ENDMDL
MODEL 5
REMARK VINA RESULT:      -8.1      1.335      3.079
REMARK  Name = 
REMARK  9 active torsions:
REMARK  status: ('A' for Active; 'I' for Inactive)
REMARK    1  A    between atoms: C_1  and  O_2
REMARK    2  A    between atoms: O_2  and  N_3
REMARK    3  A    between atoms: C_4  and  C_5
REMARK    4  A    between atoms: C_4  and  C_10
REMARK    5  A    between atoms: C_15  and  C_16
REMARK    6  A    between atoms: C_16  and  O_17
REMARK    7  A    between atoms: O_17  and  C_18
REMARK    8  A    between atoms: C_20  and  C_21
REMARK    9  A    between atoms: C_24  and  C_25
REMARK                            x       y       z     vdW  Elec       q    Type
REMARK                         _______ _______ _______ _____ _____    ______ ____
ROOT
ATOM      1  C   UNL     1       3.887   4.778  17.307  0.00  0.00    +0.000 A 
ATOM      2  C   UNL     1       3.584   3.398  17.290  0.00  0.00    +0.000 A 
ATOM      3  C   UNL     1       2.430   2.901  17.893  0.00  0.00    +0.000 A 
ATOM      4  C   UNL     1       1.527   3.779  18.476  0.00  0.00    +0.000 A 
ATOM      5  C   UNL     1       1.781   5.150  18.459  0.00  0.00    +0.000 A 
ATOM      6  C   UNL     1       2.968   5.673  17.900  0.00  0.00    +0.000 A 
ENDROOT
BRANCH   1   8
ATOM      7  N   UNL     1       5.241   5.389  15.393  0.00  0.00    +0.000 NA
ATOM      8  C   UNL     1       5.187   5.216  16.686  0.00  0.00    +0.000 C 
BRANCH   8   9
ATOM      9  C   UNL     1       6.334   5.433  17.593  0.00  0.00    +0.000 A 
ATOM     10  C   UNL     1       6.947   6.669  17.956  0.00  0.00    +0.000 A 
ATOM     11  C   UNL     1       7.940   6.326  18.835  0.00  0.00    +0.000 A 
ATOM     12  O   UNL     1       7.937   4.987  19.011  0.00  0.00    +0.000 OA
ATOM     13  N   UNL     1       6.926   4.426  18.261  0.00  0.00    +0.000 NA
ENDBRANCH   8   9
BRANCH   7  15
ATOM     14  C   UNL     1       7.098   4.882  14.117  0.00  0.00    +0.000 C 
ATOM     15  O   UNL     1       6.492   5.851  14.958  0.00  0.00    +0.000 OA
ENDBRANCH   7  15
ENDBRANCH   1   8
BRANCH   6  16
ATOM     16  C   UNL     1       3.205   7.167  18.044  0.00  0.00    +0.000 C 
BRANCH  16  17
ATOM     17  O   UNL     1       2.002   7.896  17.866  0.00  0.00    +0.000 OA
BRANCH  17  18
ATOM     18  C   UNL     1       1.686   8.935  18.706  0.00  0.00    +0.000 A 
ATOM     19  C   UNL     1       1.869  10.182  18.071  0.00  0.00    +0.000 A 
ATOM     20  C   UNL     1       1.642  11.399  18.730  0.00  0.00    +0.000 A 
ATOM     21  C   UNL     1       1.945  12.716  18.078  0.00  0.00    +0.000 C 
ATOM     22  C   UNL     1       1.151  11.372  20.030  0.00  0.00    +0.000 A 
ATOM     23  C   UNL     1       0.955  10.152  20.672  0.00  0.00    +0.000 A 
ATOM     24  C   UNL     1       1.245   8.919  20.043  0.00  0.00    +0.000 A 
ATOM     25  C   UNL     1       1.094   7.702  20.912  0.00  0.00    +0.000 C 
ENDBRANCH  17  18
ENDBRANCH  16  17
ENDBRANCH   6  16
TORSDOF 6
ENDMDL
MODEL 6
REMARK VINA RESULT:      -7.8      0.904      1.976
REMARK  Name = 
REMARK  9 active torsions:
REMARK  status: ('A' for Active; 'I' for Inactive)
REMARK    1  A    between atoms: C_1  and  O_2
REMARK    2  A    between atoms: O_2  and  N_3
REMARK    3  A    between atoms: C_4  and  C_5
REMARK    4  A    between atoms: C_4  and  C_10
REMARK    5  A    between atoms: C_15  and  C_16
REMARK    6  A    between atoms: C_16  and  O_17
REMARK    7  A    between atoms: O_17  and  C_18
REMARK    8  A    between atoms: C_20  and  C_21
REMARK    9  A    between atoms: C_24  and  C_25
REMARK                            x       y       z     vdW  Elec       q    Type
REMARK                         _______ _______ _______ _____ _____    ______ ____
ROOT
ATOM      1  C   UNL     1       3.461   3.989  18.808  0.00  0.00    +0.000 A 
ATOM      2  C   UNL     1       3.116   2.625  18.678  0.00  0.00    +0.000 A 
ATOM      3  C   UNL     1       1.863   2.154  19.066  0.00  0.00    +0.000 A 
ATOM      4  C   UNL     1       0.910   3.045  19.538  0.00  0.00    +0.000 A 
ATOM      5  C   UNL     1       1.211   4.403  19.626  0.00  0.00    +0.000 A 
ATOM      6  C   UNL     1       2.491   4.898  19.288  0.00  0.00    +0.000 A 
ENDROOT
BRANCH   1   8
ATOM      7  N   UNL     1       5.809   4.309  19.314  0.00  0.00    +0.000 NA
ATOM      8  C   UNL     1       4.859   4.396  18.423  0.00  0.00    +0.000 C 
BRANCH   8   9
ATOM      9  C   UNL     1       5.070   4.866  17.037  0.00  0.00    +0.000 A 
ATOM     10  C   UNL     1       5.336   4.085  15.873  0.00  0.00    +0.000 A 
ATOM     11  C   UNL     1       5.422   4.992  14.852  0.00  0.00    +0.000 A 
ATOM     12  O   UNL     1       5.218   6.235  15.339  0.00  0.00    +0.000 OA
ATOM     13  N   UNL     1       4.974   6.163  16.693  0.00  0.00    +0.000 NA
ENDBRANCH   8   9
BRANCH   7  15
ATOM     14  C   UNL     1       7.625   5.710  19.584  0.00  0.00    +0.000 C 
ATOM     15  O   UNL     1       7.066   4.666  18.802  0.00  0.00    +0.000 OA
ENDBRANCH   7  15
ENDBRANCH   1   8
BRANCH   6  16
ATOM     16  C   UNL     1       2.754   6.373  19.537  0.00  0.00    +0.000 C 
BRANCH  16  17
ATOM     17  O   UNL     1       1.842   6.904  20.486  0.00  0.00    +0.000 OA
BRANCH  17  18
ATOM     18  C   UNL     1       1.296   8.150  20.305  0.00  0.00    +0.000 A 
ATOM     19  C   UNL     1       1.869   8.803  19.192  0.00  0.00    +0.000 A 
ATOM     20  C   UNL     1       1.501  10.103  18.814  0.00  0.00    +0.000 A 
ATOM     21  C   UNL     1       2.195  10.826  17.698  0.00  0.00    +0.000 C 
ATOM     22  C   UNL     1       0.486  10.740  19.519  0.00  0.00    +0.000 A 
ATOM     23  C   UNL     1      -0.098  10.109  20.616  0.00  0.00    +0.000 A 
ATOM     24  C   UNL     1       0.311   8.827  21.048  0.00  0.00    +0.000 A 
ATOM     25  C   UNL     1      -0.332   8.340  22.316  0.00  0.00    +0.000 C 
ENDBRANCH  17  18
ENDBRANCH  16  17
ENDBRANCH   6  16
TORSDOF 6
ENDMDL
MODEL 7
REMARK VINA RESULT:      -7.8      1.344      2.446
REMARK  Name = 
REMARK  9 active torsions:
REMARK  status: ('A' for Active; 'I' for Inactive)
REMARK    1  A    between atoms: C_1  and  O_2
REMARK    2  A    between atoms: O_2  and  N_3
REMARK    3  A    between atoms: C_4  and  C_5
REMARK    4  A    between atoms: C_4  and  C_10
REMARK    5  A    between atoms: C_15  and  C_16
REMARK    6  A    between atoms: C_16  and  O_17
REMARK    7  A    between atoms: O_17  and  C_18
REMARK    8  A    between atoms: C_20  and  C_21
REMARK    9  A    between atoms: C_24  and  C_25
REMARK                            x       y       z     vdW  Elec       q    Type
REMARK                         _______ _______ _______ _____ _____    ______ ____
ROOT
ATOM      1  C   UNL     1       3.765   4.200  19.028  0.00  0.00    +0.000 A 
ATOM      2  C   UNL     1       3.944   2.929  19.619  0.00  0.00    +0.000 A 
ATOM      3  C   UNL     1       3.185   2.527  20.717  0.00  0.00    +0.000 A 
ATOM      4  C   UNL     1       2.193   3.362  21.210  0.00  0.00    +0.000 A 
ATOM      5  C   UNL     1       1.965   4.600  20.610  0.00  0.00    +0.000 A 
ATOM      6  C   UNL     1       2.755   5.052  19.529  0.00  0.00    +0.000 A 
ENDROOT
BRANCH   1   8
ATOM      7  N   UNL     1       4.282   4.331  16.665  0.00  0.00    +0.000 NA
ATOM      8  C   UNL     1       4.673   4.574  17.886  0.00  0.00    +0.000 C 
BRANCH   8   9
ATOM      9  C   UNL     1       5.964   5.209  18.226  0.00  0.00    +0.000 A 
ATOM     10  C   UNL     1       6.453   6.485  17.815  0.00  0.00    +0.000 A 
ATOM     11  C   UNL     1       7.675   6.606  18.421  0.00  0.00    +0.000 A 
ATOM     12  O   UNL     1       7.921   5.500  19.157  0.00  0.00    +0.000 OA
ATOM     13  N   UNL     1       6.852   4.637  19.061  0.00  0.00    +0.000 NA
ENDBRANCH   8   9
BRANCH   7  15
ATOM     14  C   UNL     1       5.879   3.675  15.131  0.00  0.00    +0.000 C 
ATOM     15  O   UNL     1       5.199   4.782  15.702  0.00  0.00    +0.000 OA
ENDBRANCH   7  15
ENDBRANCH   1   8
BRANCH   6  16
ATOM     16  C   UNL     1       2.505   6.465  19.029  0.00  0.00    +0.000 C 
BRANCH  16  17
ATOM     17  O   UNL     1       2.534   7.399  20.096  0.00  0.00    +0.000 OA
BRANCH  17  18
ATOM     18  C   UNL     1       1.621   8.424  20.149  0.00  0.00    +0.000 A 
ATOM     19  C   UNL     1       1.055   8.539  21.436  0.00  0.00    +0.000 A 
ATOM     20  C   UNL     1       0.073   9.493  21.742  0.00  0.00    +0.000 A 
ATOM     21  C   UNL     1      -0.598   9.531  23.083  0.00  0.00    +0.000 C 
ATOM     22  C   UNL     1      -0.302  10.400  20.758  0.00  0.00    +0.000 A 
ATOM     23  C   UNL     1       0.251  10.309  19.482  0.00  0.00    +0.000 A 
ATOM     24  C   UNL     1       1.191   9.310  19.144  0.00  0.00    +0.000 A 
ATOM     25  C   UNL     1       1.598   9.274  17.697  0.00  0.00    +0.000 C 
ENDBRANCH  17  18
ENDBRANCH  16  17
ENDBRANCH   6  16
TORSDOF 6
ENDMDL
MODEL 8
REMARK VINA RESULT:      -7.7      3.771      8.109
REMARK  Name = 
REMARK  9 active torsions:
REMARK  status: ('A' for Active; 'I' for Inactive)
REMARK    1  A    between atoms: C_1  and  O_2
REMARK    2  A    between atoms: O_2  and  N_3
REMARK    3  A    between atoms: C_4  and  C_5
REMARK    4  A    between atoms: C_4  and  C_10
REMARK    5  A    between atoms: C_15  and  C_16
REMARK    6  A    between atoms: C_16  and  O_17
REMARK    7  A    between atoms: O_17  and  C_18
REMARK    8  A    between atoms: C_20  and  C_21
REMARK    9  A    between atoms: C_24  and  C_25
REMARK                            x       y       z     vdW  Elec       q    Type
REMARK                         _______ _______ _______ _____ _____    ______ ____
ROOT
ATOM      1  C   UNL     1      -0.403  10.657  20.789  0.00  0.00    +0.000 A 
ATOM      2  C   UNL     1      -1.090  11.170  21.912  0.00  0.00    +0.000 A 
ATOM      3  C   UNL     1      -0.947  10.596  23.174  0.00  0.00    +0.000 A 
ATOM      4  C   UNL     1      -0.070   9.535  23.351  0.00  0.00    +0.000 A 
ATOM      5  C   UNL     1       0.658   9.046  22.267  0.00  0.00    +0.000 A 
ATOM      6  C   UNL     1       0.491   9.576  20.968  0.00  0.00    +0.000 A 
ENDROOT
BRANCH   1   8
ATOM      7  N   UNL     1      -1.588  10.791  18.680  0.00  0.00    +0.000 NA
ATOM      8  C   UNL     1      -0.668  11.300  19.454  0.00  0.00    +0.000 C 
BRANCH   8   9
ATOM      9  C   UNL     1       0.135  12.491  19.104  0.00  0.00    +0.000 A 
ATOM     10  C   UNL     1      -0.208  13.865  19.274  0.00  0.00    +0.000 A 
ATOM     11  C   UNL     1       0.881  14.559  18.818  0.00  0.00    +0.000 A 
ATOM     12  O   UNL     1       1.828  13.687  18.408  0.00  0.00    +0.000 OA
ATOM     13  N   UNL     1       1.381  12.398  18.604  0.00  0.00    +0.000 NA
ENDBRANCH   8   9
BRANCH   7  15
ATOM     14  C   UNL     1      -3.023  11.203  16.918  0.00  0.00    +0.000 C 
ATOM     15  O   UNL     1      -1.767  11.522  17.496  0.00  0.00    +0.000 OA
ENDBRANCH   7  15
ENDBRANCH   1   8
BRANCH   6  16
ATOM     16  C   UNL     1       1.238   8.891  19.836  0.00  0.00    +0.000 C 
BRANCH  16  17
ATOM     17  O   UNL     1       2.113   7.891  20.331  0.00  0.00    +0.000 OA
BRANCH  17  18
ATOM     18  C   UNL     1       2.225   6.683  19.687  0.00  0.00    +0.000 A 
ATOM     19  C   UNL     1       1.665   5.640  20.455  0.00  0.00    +0.000 A 
ATOM     20  C   UNL     1       1.679   4.304  20.029  0.00  0.00    +0.000 A 
ATOM     21  C   UNL     1       1.179   3.192  20.904  0.00  0.00    +0.000 C 
ATOM     22  C   UNL     1       2.201   4.010  18.775  0.00  0.00    +0.000 A 
ATOM     23  C   UNL     1       2.752   5.027  17.997  0.00  0.00    +0.000 A 
ATOM     24  C   UNL     1       2.804   6.367  18.444  0.00  0.00    +0.000 A 
ATOM     25  C   UNL     1       3.537   7.318  17.541  0.00  0.00    +0.000 C 
ENDBRANCH  17  18
ENDBRANCH  16  17
ENDBRANCH   6  16
TORSDOF 6
ENDMDL
MODEL 9
REMARK VINA RESULT:      -7.7      3.833      8.066
REMARK  Name = 
REMARK  9 active torsions:
REMARK  status: ('A' for Active; 'I' for Inactive)
REMARK    1  A    between atoms: C_1  and  O_2
REMARK    2  A    between atoms: O_2  and  N_3
REMARK    3  A    between atoms: C_4  and  C_5
REMARK    4  A    between atoms: C_4  and  C_10
REMARK    5  A    between atoms: C_15  and  C_16
REMARK    6  A    between atoms: C_16  and  O_17
REMARK    7  A    between atoms: O_17  and  C_18
REMARK    8  A    between atoms: C_20  and  C_21
REMARK    9  A    between atoms: C_24  and  C_25
REMARK                            x       y       z     vdW  Elec       q    Type
REMARK                         _______ _______ _______ _____ _____    ______ ____
ROOT
ATOM      1  C   UNL     1      -0.289  10.811  20.949  0.00  0.00    +0.000 A 
ATOM      2  C   UNL     1      -0.985  11.265  22.092  0.00  0.00    +0.000 A 
ATOM      3  C   UNL     1      -0.977  10.538  23.281  0.00  0.00    +0.000 A 
ATOM      4  C   UNL     1      -0.228   9.374  23.370  0.00  0.00    +0.000 A 
ATOM      5  C   UNL     1       0.508   8.934  22.270  0.00  0.00    +0.000 A 
ATOM      6  C   UNL     1       0.475   9.625  21.038  0.00  0.00    +0.000 A 
ENDROOT
BRANCH   1   8
ATOM      7  N   UNL     1       0.424  12.619  19.502  0.00  0.00    +0.000 NA
ATOM      8  C   UNL     1      -0.406  11.629  19.690  0.00  0.00    +0.000 C 
BRANCH   8   9
ATOM      9  C   UNL     1      -1.461  11.246  18.728  0.00  0.00    +0.000 A 
ATOM     10  C   UNL     1      -2.778  11.783  18.606  0.00  0.00    +0.000 A 
ATOM     11  C   UNL     1      -3.337  11.109  17.553  0.00  0.00    +0.000 A 
ATOM     12  O   UNL     1      -2.438  10.232  17.056  0.00  0.00    +0.000 OA
ATOM     13  N   UNL     1      -1.261  10.328  17.765  0.00  0.00    +0.000 NA
ENDBRANCH   8   9
BRANCH   7  15
ATOM     14  C   UNL     1      -0.023  14.636  18.469  0.00  0.00    +0.000 C 
ATOM     15  O   UNL     1       0.238  13.256  18.266  0.00  0.00    +0.000 OA
ENDBRANCH   7  15
ENDBRANCH   1   8
BRANCH   6  16
ATOM     16  C   UNL     1       1.213   8.996  19.868  0.00  0.00    +0.000 C 
BRANCH  16  17
ATOM     17  O   UNL     1       2.133   8.013  20.312  0.00  0.00    +0.000 OA
BRANCH  17  18
ATOM     18  C   UNL     1       2.225   6.803  19.668  0.00  0.00    +0.000 A 
ATOM     19  C   UNL     1       1.684   5.763  20.452  0.00  0.00    +0.000 A 
ATOM     20  C   UNL     1       1.684   4.426  20.029  0.00  0.00    +0.000 A 
ATOM     21  C   UNL     1       1.205   3.317  20.919  0.00  0.00    +0.000 C 
ATOM     22  C   UNL     1       2.170   4.129  18.761  0.00  0.00    +0.000 A 
ATOM     23  C   UNL     1       2.702   5.143  17.967  0.00  0.00    +0.000 A 
ATOM     24  C   UNL     1       2.769   6.483  18.410  0.00  0.00    +0.000 A 
ATOM     25  C   UNL     1       3.480   7.432  17.485  0.00  0.00    +0.000 C 
ENDBRANCH  17  18
ENDBRANCH  16  17
ENDBRANCH   6  16
TORSDOF 6
ENDMDL
