MODEL 1
REMARK VINA RESULT:      -7.9      0.000      0.000
REMARK  Name = 
REMARK  12 active torsions:
REMARK  status: ('A' for Active; 'I' for Inactive)
REMARK    1  A    between atoms: C_1  and  C_2
REMARK    2  A    between atoms: C_2  and  O_3
REMARK    3  A    between atoms: O_3  and  C_4
REMARK    4  A    between atoms: C_4  and  C_6
REMARK    5  A    between atoms: C_8  and  C_9
REMARK    6  A    between atoms: C_10  and  C_11
REMARK    7  A    between atoms: C_11  and  O_13
REMARK    8  A    between atoms: O_13  and  C_14
REMARK    9  A    between atoms: C_14  and  C_15
REMARK   10  A    between atoms: N_17  and  C_18
REMARK   11  A    between atoms: C_18  and  C_19
REMARK   12  A    between atoms: C_26  and  C_27
REMARK                            x       y       z     vdW  Elec       q    Type
REMARK                         _______ _______ _______ _____ _____    ______ ____
ROOT
ATOM      1  C   UNL     1       5.502   5.104  18.920  0.00  0.00    +0.000 C 
ATOM      2  O   UNL     1       5.824   4.263  19.756  0.00  0.00    +0.000 OA
ENDROOT
BRANCH   1   7
ATOM      3  C   UNL     1       6.820   5.196  15.427  0.00  0.00    +0.000 A 
ATOM      4  N   UNL     1       7.531   6.180  16.069  0.00  0.00    +0.000 N 
ATOM      5  C   UNL     1       7.233   6.216  17.406  0.00  0.00    +0.000 A 
ATOM      6  C   UNL     1       7.960   7.149  18.314  0.00  0.00    +0.000 C 
ATOM      7  C   UNL     1       6.205   5.305  17.642  0.00  0.00    +0.000 A 
ATOM      8  C   UNL     1       5.949   4.652  16.374  0.00  0.00    +0.000 A 
ATOM      9  C   UNL     1       4.941   3.588  16.086  0.00  0.00    +0.000 C 
ATOM     10  H   UNL     1       8.212   6.769  15.603  0.00  0.00    +0.000 HD
BRANCH   3  11
ATOM     11  C   UNL     1       7.023   4.843  14.034  0.00  0.00    +0.000 C 
ATOM     12  O   UNL     1       7.718   5.463  13.234  0.00  0.00    +0.000 OA
BRANCH  11  13
ATOM     13  O   UNL     1       6.264   3.754  13.719  0.00  0.00    +0.000 OA
BRANCH  13  15
ATOM     14  C   UNL     1       4.805   3.284  11.810  0.00  0.00    +0.000 C 
ATOM     15  C   UNL     1       6.228   3.374  12.333  0.00  0.00    +0.000 C 
ENDBRANCH  13  15
ENDBRANCH  11  13
ENDBRANCH   3  11
ENDBRANCH   1   7
BRANCH   1  16
ATOM     16  O   UNL     1       4.378   5.866  19.032  0.00  0.00    +0.000 OA
BRANCH  16  17
ATOM     17  C   UNL     1       3.165   5.141  19.187  0.00  0.00    +0.000 C 
BRANCH  17  18
ATOM     18  C   UNL     1       2.136   5.741  20.142  0.00  0.00    +0.000 C 
ATOM     19  O   UNL     1       1.277   5.050  20.689  0.00  0.00    +0.000 OA
ATOM     20  N   UNL     1       2.271   7.095  20.347  0.00  0.00    +0.000 N 
ATOM     21  H   UNL     1       2.810   7.615  19.657  0.00  0.00    +0.000 HD
BRANCH  20  22
ATOM     22  C   UNL     1       1.326   7.839  21.142  0.00  0.00    +0.000 C 
BRANCH  22  23
ATOM     23  C   UNL     1       0.854   9.075  20.424  0.00  0.00    +0.000 A 
ATOM     24  C   UNL     1       1.219   9.321  19.092  0.00  0.00    +0.000 A 
ATOM     25  C   UNL     1       0.762  10.466  18.433  0.00  0.00    +0.000 A 
ATOM     26  C   UNL     1      -0.052  11.376  19.104  0.00  0.00    +0.000 A 
ATOM     27 CL   UNL     1      -0.615  12.783  18.290  0.00  0.00    +0.000 Cl
ATOM     28  C   UNL     1      -0.415  11.152  20.431  0.00  0.00    +0.000 A 
ATOM     29  C   UNL     1       0.040  10.006  21.089  0.00  0.00    +0.000 A 
ENDBRANCH  22  23
ENDBRANCH  20  22
ENDBRANCH  17  18
ENDBRANCH  16  17
ENDBRANCH   1  16
TORSDOF 9
ENDMDL
MODEL 2
REMARK VINA RESULT:      -7.9      2.931      4.505
REMARK  Name = 
REMARK  12 active torsions:
REMARK  status: ('A' for Active; 'I' for Inactive)
REMARK    1  A    between atoms: C_1  and  C_2
REMARK    2  A    between atoms: C_2  and  O_3
REMARK    3  A    between atoms: O_3  and  C_4
REMARK    4  A    between atoms: C_4  and  C_6
REMARK    5  A    between atoms: C_8  and  C_9
REMARK    6  A    between atoms: C_10  and  C_11
REMARK    7  A    between atoms: C_11  and  O_13
REMARK    8  A    between atoms: O_13  and  C_14
REMARK    9  A    between atoms: C_14  and  C_15
REMARK   10  A    between atoms: N_17  and  C_18
REMARK   11  A    between atoms: C_18  and  C_19
REMARK   12  A    between atoms: C_26  and  C_27
REMARK                            x       y       z     vdW  Elec       q    Type
REMARK                         _______ _______ _______ _____ _____    ______ ____
ROOT
ATOM      1  C   UNL     1       4.526   6.690  17.000  0.00  0.00    +0.000 C 
ATOM      2  O   UNL     1       4.829   6.799  15.815  0.00  0.00    +0.000 OA
ENDROOT
BRANCH   1   7
ATOM      3  C   UNL     1       4.339   3.383  18.724  0.00  0.00    +0.000 A 
ATOM      4  N   UNL     1       5.625   3.803  18.967  0.00  0.00    +0.000 N 
ATOM      5  C   UNL     1       5.834   5.066  18.475  0.00  0.00    +0.000 A 
ATOM      6  C   UNL     1       7.135   5.756  18.708  0.00  0.00    +0.000 C 
ATOM      7  C   UNL     1       4.689   5.453  17.782  0.00  0.00    +0.000 A 
ATOM      8  C   UNL     1       3.735   4.375  17.949  0.00  0.00    +0.000 A 
ATOM      9  C   UNL     1       2.347   4.296  17.404  0.00  0.00    +0.000 C 
ATOM     10  H   UNL     1       6.304   3.251  19.478  0.00  0.00    +0.000 HD
BRANCH   3  11
ATOM     11  C   UNL     1       3.795   2.140  19.240  0.00  0.00    +0.000 C 
ATOM     12  O   UNL     1       3.704   1.086  18.615  0.00  0.00    +0.000 OA
BRANCH  11  13
ATOM     13  O   UNL     1       3.327   2.332  20.506  0.00  0.00    +0.000 OA
BRANCH  13  15
ATOM     14  C   UNL     1       1.234   3.569  20.794  0.00  0.00    +0.000 C 
ATOM     15  C   UNL     1       1.907   2.211  20.692  0.00  0.00    +0.000 C 
ENDBRANCH  13  15
ENDBRANCH  11  13
ENDBRANCH   3  11
ENDBRANCH   1   7
BRANCH   1  16
ATOM     16  O   UNL     1       4.118   7.746  17.760  0.00  0.00    +0.000 OA
BRANCH  16  17
ATOM     17  C   UNL     1       2.714   7.838  17.965  0.00  0.00    +0.000 C 
BRANCH  17  18
ATOM     18  C   UNL     1       2.226   7.627  19.397  0.00  0.00    +0.000 C 
ATOM     19  O   UNL     1       2.534   6.629  20.047  0.00  0.00    +0.000 OA
ATOM     20  N   UNL     1       1.446   8.648  19.889  0.00  0.00    +0.000 N 
ATOM     21  H   UNL     1       1.024   9.275  19.208  0.00  0.00    +0.000 HD
BRANCH  20  22
ATOM     22  C   UNL     1       0.823   8.568  21.186  0.00  0.00    +0.000 C 
BRANCH  22  23
ATOM     23  C   UNL     1      -0.045   9.767  21.456  0.00  0.00    +0.000 A 
ATOM     24  C   UNL     1      -0.470  10.074  22.758  0.00  0.00    +0.000 A 
ATOM     25  C   UNL     1      -1.265  11.199  22.996  0.00  0.00    +0.000 A 
ATOM     26  C   UNL     1      -1.648  12.017  21.935  0.00  0.00    +0.000 A 
ATOM     27 CL   UNL     1      -2.625  13.402  22.232  0.00  0.00    +0.000 Cl
ATOM     28  C   UNL     1      -1.244  11.720  20.635  0.00  0.00    +0.000 A 
ATOM     29  C   UNL     1      -0.448  10.597  20.397  0.00  0.00    +0.000 A 
ENDBRANCH  22  23
ENDBRANCH  20  22
ENDBRANCH  17  18
ENDBRANCH  16  17
ENDBRANCH   1  16
TORSDOF 9
ENDMDL
MODEL 3
REMARK VINA RESULT:      -7.9      4.216      7.642
REMARK  Name = 
REMARK  12 active torsions:
REMARK  status: ('A' for Active; 'I' for Inactive)
REMARK    1  A    between atoms: C_1  and  C_2
REMARK    2  A    between atoms: C_2  and  O_3
REMARK    3  A    between atoms: O_3  and  C_4
REMARK    4  A    between atoms: C_4  and  C_6
REMARK    5  A    between atoms: C_8  and  C_9
REMARK    6  A    between atoms: C_10  and  C_11
REMARK    7  A    between atoms: C_11  and  O_13
REMARK    8  A    between atoms: O_13  and  C_14
REMARK    9  A    between atoms: C_14  and  C_15
REMARK   10  A    between atoms: N_17  and  C_18
REMARK   11  A    between atoms: C_18  and  C_19
REMARK   12  A    between atoms: C_26  and  C_27
REMARK                            x       y       z     vdW  Elec       q    Type
REMARK                         _______ _______ _______ _____ _____    ______ ____
ROOT
ATOM      1  C   UNL     1       5.064   6.594  16.691  0.00  0.00    +0.000 C 
ATOM      2  O   UNL     1       5.101   6.909  15.505  0.00  0.00    +0.000 OA
ENDROOT
BRANCH   1   7
ATOM      3  C   UNL     1       2.242   4.843  18.398  0.00  0.00    +0.000 A 
ATOM      4  N   UNL     1       1.970   6.173  18.605  0.00  0.00    +0.000 N 
ATOM      5  C   UNL     1       2.873   6.970  17.951  0.00  0.00    +0.000 A 
ATOM      6  C   UNL     1       2.714   8.453  17.963  0.00  0.00    +0.000 C 
ATOM      7  C   UNL     1       3.845   6.146  17.387  0.00  0.00    +0.000 A 
ATOM      8  C   UNL     1       3.433   4.787  17.671  0.00  0.00    +0.000 A 
ATOM      9  C   UNL     1       4.130   3.525  17.282  0.00  0.00    +0.000 C 
ATOM     10  H   UNL     1       1.178   6.503  19.144  0.00  0.00    +0.000 HD
BRANCH   3  11
ATOM     11  C   UNL     1       1.381   3.770  18.864  0.00  0.00    +0.000 C 
ATOM     12  O   UNL     1       0.976   2.833  18.182  0.00  0.00    +0.000 OA
BRANCH  11  13
ATOM     13  O   UNL     1       1.023   3.997  20.160  0.00  0.00    +0.000 OA
BRANCH  13  15
ATOM     14  C   UNL     1       2.848   2.766  21.233  0.00  0.00    +0.000 C 
ATOM     15  C   UNL     1       1.348   2.964  21.106  0.00  0.00    +0.000 C 
ENDBRANCH  13  15
ENDBRANCH  11  13
ENDBRANCH   3  11
ENDBRANCH   1   7
BRANCH   1  16
ATOM     16  O   UNL     1       6.179   6.509  17.470  0.00  0.00    +0.000 OA
BRANCH  16  17
ATOM     17  C   UNL     1       7.218   7.423  17.144  0.00  0.00    +0.000 C 
BRANCH  17  18
ATOM     18  C   UNL     1       8.122   7.858  18.295  0.00  0.00    +0.000 C 
ATOM     19  O   UNL     1       8.501   7.066  19.157  0.00  0.00    +0.000 OA
ATOM     20  N   UNL     1       8.484   9.185  18.266  0.00  0.00    +0.000 N 
ATOM     21  H   UNL     1       7.912   9.806  17.697  0.00  0.00    +0.000 HD
BRANCH  20  22
ATOM     22  C   UNL     1       9.253   9.784  19.327  0.00  0.00    +0.000 C 
BRANCH  22  23
ATOM     23  C   UNL     1       9.699  11.177  18.966  0.00  0.00    +0.000 A 
ATOM     24  C   UNL     1      10.735  11.809  19.670  0.00  0.00    +0.000 A 
ATOM     25  C   UNL     1      11.148  13.096  19.315  0.00  0.00    +0.000 A 
ATOM     26  C   UNL     1      10.523  13.763  18.264  0.00  0.00    +0.000 A 
ATOM     27 CL   UNL     1      11.035  15.346  17.829  0.00  0.00    +0.000 Cl
ATOM     28  C   UNL     1       9.484  13.153  17.562  0.00  0.00    +0.000 A 
ATOM     29  C   UNL     1       9.073  11.866  17.915  0.00  0.00    +0.000 A 
ENDBRANCH  22  23
ENDBRANCH  20  22
ENDBRANCH  17  18
ENDBRANCH  16  17
ENDBRANCH   1  16
TORSDOF 9
ENDMDL
MODEL 4
REMARK VINA RESULT:      -7.9      2.846      4.132
REMARK  Name = 
REMARK  12 active torsions:
REMARK  status: ('A' for Active; 'I' for Inactive)
REMARK    1  A    between atoms: C_1  and  C_2
REMARK    2  A    between atoms: C_2  and  O_3
REMARK    3  A    between atoms: O_3  and  C_4
REMARK    4  A    between atoms: C_4  and  C_6
REMARK    5  A    between atoms: C_8  and  C_9
REMARK    6  A    between atoms: C_10  and  C_11
REMARK    7  A    between atoms: C_11  and  O_13
REMARK    8  A    between atoms: O_13  and  C_14
REMARK    9  A    between atoms: C_14  and  C_15
REMARK   10  A    between atoms: N_17  and  C_18
REMARK   11  A    between atoms: C_18  and  C_19
REMARK   12  A    between atoms: C_26  and  C_27
REMARK                            x       y       z     vdW  Elec       q    Type
REMARK                         _______ _______ _______ _____ _____    ______ ____
ROOT
ATOM      1  C   UNL     1       2.430   4.934  18.435  0.00  0.00    +0.000 C 
ATOM      2  O   UNL     1       1.563   4.115  18.729  0.00  0.00    +0.000 OA
ENDROOT
BRANCH   1   7
ATOM      3  C   UNL     1       6.127   4.695  17.959  0.00  0.00    +0.000 A 
ATOM      4  N   UNL     1       5.874   3.814  18.983  0.00  0.00    +0.000 N 
ATOM      5  C   UNL     1       4.528   3.707  19.223  0.00  0.00    +0.000 A 
ATOM      6  C   UNL     1       4.020   2.735  20.233  0.00  0.00    +0.000 C 
ATOM      7  C   UNL     1       3.872   4.633  18.414  0.00  0.00    +0.000 A 
ATOM      8  C   UNL     1       4.899   5.257  17.605  0.00  0.00    +0.000 A 
ATOM      9  C   UNL     1       4.721   6.319  16.569  0.00  0.00    +0.000 C 
ATOM     10  H   UNL     1       6.599   3.291  19.461  0.00  0.00    +0.000 HD
BRANCH   3  11
ATOM     11  C   UNL     1       7.449   4.913  17.403  0.00  0.00    +0.000 C 
ATOM     12  O   UNL     1       8.307   4.049  17.239  0.00  0.00    +0.000 OA
BRANCH  11  13
ATOM     13  O   UNL     1       7.631   6.241  17.154  0.00  0.00    +0.000 OA
BRANCH  13  15
ATOM     14  C   UNL     1       8.078   8.532  17.895  0.00  0.00    +0.000 C 
ATOM     15  C   UNL     1       7.953   7.069  18.284  0.00  0.00    +0.000 C 
ENDBRANCH  13  15
ENDBRANCH  11  13
ENDBRANCH   3  11
ENDBRANCH   1   7
BRANCH   1  16
ATOM     16  O   UNL     1       2.143   6.185  17.976  0.00  0.00    +0.000 OA
BRANCH  16  17
ATOM     17  C   UNL     1       2.238   7.222  18.943  0.00  0.00    +0.000 C 
BRANCH  17  18
ATOM     18  C   UNL     1       1.876   8.626  18.465  0.00  0.00    +0.000 C 
ATOM     19  O   UNL     1       2.307   9.084  17.408  0.00  0.00    +0.000 OA
ATOM     20  N   UNL     1       1.019   9.308  19.299  0.00  0.00    +0.000 N 
ATOM     21  H   UNL     1       0.944   8.973  20.257  0.00  0.00    +0.000 HD
BRANCH  20  22
ATOM     22  C   UNL     1       0.651  10.679  19.049  0.00  0.00    +0.000 C 
BRANCH  22  23
ATOM     23  C   UNL     1      -0.787  10.793  18.617  0.00  0.00    +0.000 A 
ATOM     24  C   UNL     1      -1.295   9.999  17.578  0.00  0.00    +0.000 A 
ATOM     25  C   UNL     1      -2.635  10.105  17.196  0.00  0.00    +0.000 A 
ATOM     26  C   UNL     1      -3.473  11.012  17.843  0.00  0.00    +0.000 A 
ATOM     27 CL   UNL     1      -5.123  11.139  17.372  0.00  0.00    +0.000 Cl
ATOM     28  C   UNL     1      -2.981  11.816  18.870  0.00  0.00    +0.000 A 
ATOM     29  C   UNL     1      -1.642  11.709  19.253  0.00  0.00    +0.000 A 
ENDBRANCH  22  23
ENDBRANCH  20  22
ENDBRANCH  17  18
ENDBRANCH  16  17
ENDBRANCH   1  16
TORSDOF 9
ENDMDL
MODEL 5
REMARK VINA RESULT:      -7.9      2.292      3.412
REMARK  Name = 
REMARK  12 active torsions:
REMARK  status: ('A' for Active; 'I' for Inactive)
REMARK    1  A    between atoms: C_1  and  C_2
REMARK    2  A    between atoms: C_2  and  O_3
REMARK    3  A    between atoms: O_3  and  C_4
REMARK    4  A    between atoms: C_4  and  C_6
REMARK    5  A    between atoms: C_8  and  C_9
REMARK    6  A    between atoms: C_10  and  C_11
REMARK    7  A    between atoms: C_11  and  O_13
REMARK    8  A    between atoms: O_13  and  C_14
REMARK    9  A    between atoms: C_14  and  C_15
REMARK   10  A    between atoms: N_17  and  C_18
REMARK   11  A    between atoms: C_18  and  C_19
REMARK   12  A    between atoms: C_26  and  C_27
REMARK                            x       y       z     vdW  Elec       q    Type
REMARK                         _______ _______ _______ _____ _____    ______ ____
ROOT
ATOM      1  C   UNL     1       2.276   4.968  18.802  0.00  0.00    +0.000 C 
ATOM      2  O   UNL     1       1.436   4.093  18.609  0.00  0.00    +0.000 OA
ENDROOT
BRANCH   1   7
ATOM      3  C   UNL     1       5.960   5.039  18.192  0.00  0.00    +0.000 A 
ATOM      4  N   UNL     1       5.785   3.940  18.998  0.00  0.00    +0.000 N 
ATOM      5  C   UNL     1       4.456   3.711  19.242  0.00  0.00    +0.000 A 
ATOM      6  C   UNL     1       4.030   2.512  20.020  0.00  0.00    +0.000 C 
ATOM      7  C   UNL     1       3.728   4.757  18.677  0.00  0.00    +0.000 A 
ATOM      8  C   UNL     1       4.695   5.600  18.004  0.00  0.00    +0.000 A 
ATOM      9  C   UNL     1       4.430   6.855  17.238  0.00  0.00    +0.000 C 
ATOM     10  H   UNL     1       6.551   3.364  19.328  0.00  0.00    +0.000 HD
BRANCH   3  11
ATOM     11  C   UNL     1       7.250   5.446  17.666  0.00  0.00    +0.000 C 
ATOM     12  O   UNL     1       7.886   6.435  18.020  0.00  0.00    +0.000 OA
BRANCH  11  13
ATOM     13  O   UNL     1       7.623   4.605  16.659  0.00  0.00    +0.000 OA
BRANCH  13  15
ATOM     14  C   UNL     1       6.212   3.890  14.790  0.00  0.00    +0.000 C 
ATOM     15  C   UNL     1       7.163   4.939  15.339  0.00  0.00    +0.000 C 
ENDBRANCH  13  15
ENDBRANCH  11  13
ENDBRANCH   3  11
ENDBRANCH   1   7
BRANCH   1  16
ATOM     16  O   UNL     1       1.948   6.270  19.036  0.00  0.00    +0.000 OA
BRANCH  16  17
ATOM     17  C   UNL     1       1.831   6.629  20.406  0.00  0.00    +0.000 C 
BRANCH  17  18
ATOM     18  C   UNL     1       1.479   8.086  20.695  0.00  0.00    +0.000 C 
ATOM     19  O   UNL     1       1.295   8.495  21.842  0.00  0.00    +0.000 OA
ATOM     20  N   UNL     1       1.412   8.888  19.579  0.00  0.00    +0.000 N 
ATOM     21  H   UNL     1       1.301   8.421  18.682  0.00  0.00    +0.000 HD
BRANCH  20  22
ATOM     22  C   UNL     1       0.999  10.267  19.661  0.00  0.00    +0.000 C 
BRANCH  22  23
ATOM     23  C   UNL     1      -0.322  10.488  18.973  0.00  0.00    +0.000 A 
ATOM     24  C   UNL     1      -0.615   9.864  17.751  0.00  0.00    +0.000 A 
ATOM     25  C   UNL     1      -1.850  10.067  17.131  0.00  0.00    +0.000 A 
ATOM     26  C   UNL     1      -2.797  10.902  17.722  0.00  0.00    +0.000 A 
ATOM     27 CL   UNL     1      -4.318  11.148  16.958  0.00  0.00    +0.000 Cl
ATOM     28  C   UNL     1      -2.518  11.537  18.931  0.00  0.00    +0.000 A 
ATOM     29  C   UNL     1      -1.284  11.333  19.552  0.00  0.00    +0.000 A 
ENDBRANCH  22  23
ENDBRANCH  20  22
ENDBRANCH  17  18
ENDBRANCH  16  17
ENDBRANCH   1  16
TORSDOF 9
ENDMDL
MODEL 6
REMARK VINA RESULT:      -7.8      3.203      4.841
REMARK  Name = 
REMARK  12 active torsions:
REMARK  status: ('A' for Active; 'I' for Inactive)
REMARK    1  A    between atoms: C_1  and  C_2
REMARK    2  A    between atoms: C_2  and  O_3
REMARK    3  A    between atoms: O_3  and  C_4
REMARK    4  A    between atoms: C_4  and  C_6
REMARK    5  A    between atoms: C_8  and  C_9
REMARK    6  A    between atoms: C_10  and  C_11
REMARK    7  A    between atoms: C_11  and  O_13
REMARK    8  A    between atoms: O_13  and  C_14
REMARK    9  A    between atoms: C_14  and  C_15
REMARK   10  A    between atoms: N_17  and  C_18
REMARK   11  A    between atoms: C_18  and  C_19
REMARK   12  A    between atoms: C_26  and  C_27
REMARK                            x       y       z     vdW  Elec       q    Type
REMARK                         _______ _______ _______ _____ _____    ______ ____
ROOT
ATOM      1  C   UNL     1       4.314   6.687  17.216  0.00  0.00    +0.000 C 
ATOM      2  O   UNL     1       4.704   6.962  16.085  0.00  0.00    +0.000 OA
ENDROOT
BRANCH   1   7
ATOM      3  C   UNL     1       4.105   3.215  18.575  0.00  0.00    +0.000 A 
ATOM      4  N   UNL     1       5.417   3.565  18.778  0.00  0.00    +0.000 N 
ATOM      5  C   UNL     1       5.645   4.867  18.416  0.00  0.00    +0.000 A 
ATOM      6  C   UNL     1       6.983   5.486  18.639  0.00  0.00    +0.000 C 
ATOM      7  C   UNL     1       4.475   5.365  17.845  0.00  0.00    +0.000 A 
ATOM      8  C   UNL     1       3.493   4.307  17.954  0.00  0.00    +0.000 A 
ATOM      9  C   UNL     1       2.072   4.333  17.495  0.00  0.00    +0.000 C 
ATOM     10  H   UNL     1       6.105   2.938  19.180  0.00  0.00    +0.000 HD
BRANCH   3  11
ATOM     11  C   UNL     1       3.545   1.940  18.985  0.00  0.00    +0.000 C 
ATOM     12  O   UNL     1       3.913   0.838  18.587  0.00  0.00    +0.000 OA
BRANCH  11  13
ATOM     13  O   UNL     1       2.493   2.148  19.827  0.00  0.00    +0.000 OA
BRANCH  13  15
ATOM     14  C   UNL     1       2.000   3.971  21.385  0.00  0.00    +0.000 C 
ATOM     15  C   UNL     1       2.801   2.709  21.114  0.00  0.00    +0.000 C 
ENDBRANCH  13  15
ENDBRANCH  11  13
ENDBRANCH   3  11
ENDBRANCH   1   7
BRANCH   1  16
ATOM     16  O   UNL     1       3.793   7.618  18.066  0.00  0.00    +0.000 OA
BRANCH  16  17
ATOM     17  C   UNL     1       2.504   8.104  17.716  0.00  0.00    +0.000 C 
BRANCH  17  18
ATOM     18  C   UNL     1       1.730   8.819  18.821  0.00  0.00    +0.000 C 
ATOM     19  O   UNL     1       1.625   8.344  19.952  0.00  0.00    +0.000 OA
ATOM     20  N   UNL     1       1.192  10.029  18.449  0.00  0.00    +0.000 N 
ATOM     21  H   UNL     1       1.090  10.201  17.451  0.00  0.00    +0.000 HD
BRANCH  20  22
ATOM     22  C   UNL     1       0.350  10.790  19.338  0.00  0.00    +0.000 C 
BRANCH  22  23
ATOM     23  C   UNL     1      -1.046  10.928  18.792  0.00  0.00    +0.000 A 
ATOM     24  C   UNL     1      -1.965  11.816  19.373  0.00  0.00    +0.000 A 
ATOM     25  C   UNL     1      -3.253  11.944  18.847  0.00  0.00    +0.000 A 
ATOM     26  C   UNL     1      -3.635  11.180  17.747  0.00  0.00    +0.000 A 
ATOM     27 CL   UNL     1      -5.221  11.342  17.100  0.00  0.00    +0.000 Cl
ATOM     28  C   UNL     1      -2.738  10.285  17.165  0.00  0.00    +0.000 A 
ATOM     29  C   UNL     1      -1.449  10.158  17.689  0.00  0.00    +0.000 A 
ENDBRANCH  22  23
ENDBRANCH  20  22
ENDBRANCH  17  18
ENDBRANCH  16  17
ENDBRANCH   1  16
TORSDOF 9
ENDMDL
MODEL 7
REMARK VINA RESULT:      -7.8      0.481      1.020
REMARK  Name = 
REMARK  12 active torsions:
REMARK  status: ('A' for Active; 'I' for Inactive)
REMARK    1  A    between atoms: C_1  and  C_2
REMARK    2  A    between atoms: C_2  and  O_3
REMARK    3  A    between atoms: O_3  and  C_4
REMARK    4  A    between atoms: C_4  and  C_6
REMARK    5  A    between atoms: C_8  and  C_9
REMARK    6  A    between atoms: C_10  and  C_11
REMARK    7  A    between atoms: C_11  and  O_13
REMARK    8  A    between atoms: O_13  and  C_14
REMARK    9  A    between atoms: C_14  and  C_15
REMARK   10  A    between atoms: N_17  and  C_18
REMARK   11  A    between atoms: C_18  and  C_19
REMARK   12  A    between atoms: C_26  and  C_27
REMARK                            x       y       z     vdW  Elec       q    Type
REMARK                         _______ _______ _______ _____ _____    ______ ____
ROOT
ATOM      1  C   UNL     1       5.485   4.712  19.064  0.00  0.00    +0.000 C 
ATOM      2  O   UNL     1       5.571   3.632  19.642  0.00  0.00    +0.000 OA
ENDROOT
BRANCH   1   7
ATOM      3  C   UNL     1       6.686   5.106  15.551  0.00  0.00    +0.000 A 
ATOM      4  N   UNL     1       7.441   6.012  16.255  0.00  0.00    +0.000 N 
ATOM      5  C   UNL     1       7.188   5.928  17.600  0.00  0.00    +0.000 A 
ATOM      6  C   UNL     1       7.966   6.758  18.564  0.00  0.00    +0.000 C 
ATOM      7  C   UNL     1       6.148   5.019  17.786  0.00  0.00    +0.000 A 
ATOM      8  C   UNL     1       5.835   4.493  16.473  0.00  0.00    +0.000 A 
ATOM      9  C   UNL     1       4.795   3.480  16.123  0.00  0.00    +0.000 C 
ATOM     10  H   UNL     1       8.119   6.629  15.822  0.00  0.00    +0.000 HD
BRANCH   3  11
ATOM     11  C   UNL     1       6.834   4.881  14.124  0.00  0.00    +0.000 C 
ATOM     12  O   UNL     1       7.678   5.406  13.402  0.00  0.00    +0.000 OA
BRANCH  11  13
ATOM     13  O   UNL     1       5.845   4.053  13.683  0.00  0.00    +0.000 OA
BRANCH  13  15
ATOM     14  C   UNL     1       4.763   3.154  11.680  0.00  0.00    +0.000 C 
ATOM     15  C   UNL     1       6.065   3.404  12.419  0.00  0.00    +0.000 C 
ENDBRANCH  13  15
ENDBRANCH  11  13
ENDBRANCH   3  11
ENDBRANCH   1   7
BRANCH   1  16
ATOM     16  O   UNL     1       4.661   5.713  19.487  0.00  0.00    +0.000 OA
BRANCH  16  17
ATOM     17  C   UNL     1       3.304   5.593  19.083  0.00  0.00    +0.000 C 
BRANCH  17  18
ATOM     18  C   UNL     1       2.256   6.067  20.087  0.00  0.00    +0.000 C 
ATOM     19  O   UNL     1       1.540   5.276  20.701  0.00  0.00    +0.000 OA
ATOM     20  N   UNL     1       2.204   7.432  20.255  0.00  0.00    +0.000 N 
ATOM     21  H   UNL     1       2.620   8.003  19.522  0.00  0.00    +0.000 HD
BRANCH  20  22
ATOM     22  C   UNL     1       1.210   8.055  21.091  0.00  0.00    +0.000 C 
BRANCH  22  23
ATOM     23  C   UNL     1       0.814   9.408  20.562  0.00  0.00    +0.000 A 
ATOM     24  C   UNL     1       0.455  10.448  21.433  0.00  0.00    +0.000 A 
ATOM     25  C   UNL     1       0.103  11.703  20.930  0.00  0.00    +0.000 A 
ATOM     26  C   UNL     1       0.098  11.924  19.554  0.00  0.00    +0.000 A 
ATOM     27 CL   UNL     1      -0.333  13.471  18.936  0.00  0.00    +0.000 Cl
ATOM     28  C   UNL     1       0.442  10.899  18.675  0.00  0.00    +0.000 A 
ATOM     29  C   UNL     1       0.795   9.645  19.178  0.00  0.00    +0.000 A 
ENDBRANCH  22  23
ENDBRANCH  20  22
ENDBRANCH  17  18
ENDBRANCH  16  17
ENDBRANCH   1  16
TORSDOF 9
ENDMDL
MODEL 8
REMARK VINA RESULT:      -7.8      2.454      3.812
REMARK  Name = 
REMARK  12 active torsions:
REMARK  status: ('A' for Active; 'I' for Inactive)
REMARK    1  A    between atoms: C_1  and  C_2
REMARK    2  A    between atoms: C_2  and  O_3
REMARK    3  A    between atoms: O_3  and  C_4
REMARK    4  A    between atoms: C_4  and  C_6
REMARK    5  A    between atoms: C_8  and  C_9
REMARK    6  A    between atoms: C_10  and  C_11
REMARK    7  A    between atoms: C_11  and  O_13
REMARK    8  A    between atoms: O_13  and  C_14
REMARK    9  A    between atoms: C_14  and  C_15
REMARK   10  A    between atoms: N_17  and  C_18
REMARK   11  A    between atoms: C_18  and  C_19
REMARK   12  A    between atoms: C_26  and  C_27
REMARK                            x       y       z     vdW  Elec       q    Type
REMARK                         _______ _______ _______ _____ _____    ______ ____
ROOT
ATOM      1  C   UNL     1       2.453   3.636  17.745  0.00  0.00    +0.000 C 
ATOM      2  O   UNL     1       1.983   2.662  17.162  0.00  0.00    +0.000 OA
ENDROOT
BRANCH   1   7
ATOM      3  C   UNL     1       6.085   4.410  18.138  0.00  0.00    +0.000 A 
ATOM      4  N   UNL     1       5.780   3.697  19.271  0.00  0.00    +0.000 N 
ATOM      5  C   UNL     1       4.486   3.246  19.240  0.00  0.00    +0.000 A 
ATOM      6  C   UNL     1       3.970   2.369  20.330  0.00  0.00    +0.000 C 
ATOM      7  C   UNL     1       3.874   3.774  18.105  0.00  0.00    +0.000 A 
ATOM      8  C   UNL     1       4.902   4.513  17.402  0.00  0.00    +0.000 A 
ATOM      9  C   UNL     1       4.764   5.267  16.120  0.00  0.00    +0.000 C 
ATOM     10  H   UNL     1       6.451   3.507  20.007  0.00  0.00    +0.000 HD
BRANCH   3  11
ATOM     11  C   UNL     1       7.417   4.902  17.837  0.00  0.00    +0.000 C 
ATOM     12  O   UNL     1       8.299   4.269  17.262  0.00  0.00    +0.000 OA
BRANCH  11  13
ATOM     13  O   UNL     1       7.574   6.153  18.355  0.00  0.00    +0.000 OA
BRANCH  13  15
ATOM     14  C   UNL     1       8.150   8.510  18.032  0.00  0.00    +0.000 C 
ATOM     15  C   UNL     1       7.589   7.241  17.416  0.00  0.00    +0.000 C 
ENDBRANCH  13  15
ENDBRANCH  11  13
ENDBRANCH   3  11
ENDBRANCH   1   7
BRANCH   1  16
ATOM     16  O   UNL     1       1.727   4.757  18.016  0.00  0.00    +0.000 OA
BRANCH  16  17
ATOM     17  C   UNL     1       1.565   5.056  19.396  0.00  0.00    +0.000 C 
BRANCH  17  18
ATOM     18  C   UNL     1       2.081   6.417  19.857  0.00  0.00    +0.000 C 
ATOM     19  O   UNL     1       2.997   6.996  19.274  0.00  0.00    +0.000 OA
ATOM     20  N   UNL     1       1.422   6.936  20.948  0.00  0.00    +0.000 N 
ATOM     21  H   UNL     1       0.888   6.283  21.518  0.00  0.00    +0.000 HD
BRANCH  20  22
ATOM     22  C   UNL     1       1.841   8.166  21.573  0.00  0.00    +0.000 C 
BRANCH  22  23
ATOM     23  C   UNL     1       0.812   9.251  21.400  0.00  0.00    +0.000 A 
ATOM     24  C   UNL     1       0.174   9.825  22.509  0.00  0.00    +0.000 A 
ATOM     25  C   UNL     1      -0.769  10.842  22.336  0.00  0.00    +0.000 A 
ATOM     26  C   UNL     1      -1.087  11.283  21.053  0.00  0.00    +0.000 A 
ATOM     27 CL   UNL     1      -2.247  12.536  20.842  0.00  0.00    +0.000 Cl
ATOM     28  C   UNL     1      -0.470  10.716  19.939  0.00  0.00    +0.000 A 
ATOM     29  C   UNL     1       0.474   9.702  20.113  0.00  0.00    +0.000 A 
ENDBRANCH  22  23
ENDBRANCH  20  22
ENDBRANCH  17  18
ENDBRANCH  16  17
ENDBRANCH   1  16
TORSDOF 9
ENDMDL
MODEL 9
REMARK VINA RESULT:      -7.8      4.315      7.157
REMARK  Name = 
REMARK  12 active torsions:
REMARK  status: ('A' for Active; 'I' for Inactive)
REMARK    1  A    between atoms: C_1  and  C_2
REMARK    2  A    between atoms: C_2  and  O_3
REMARK    3  A    between atoms: O_3  and  C_4
REMARK    4  A    between atoms: C_4  and  C_6
REMARK    5  A    between atoms: C_8  and  C_9
REMARK    6  A    between atoms: C_10  and  C_11
REMARK    7  A    between atoms: C_11  and  O_13
REMARK    8  A    between atoms: O_13  and  C_14
REMARK    9  A    between atoms: C_14  and  C_15
REMARK   10  A    between atoms: N_17  and  C_18
REMARK   11  A    between atoms: C_18  and  C_19
REMARK   12  A    between atoms: C_26  and  C_27
REMARK                            x       y       z     vdW  Elec       q    Type
REMARK                         _______ _______ _______ _____ _____    ______ ____
ROOT
ATOM      1  C   UNL     1       7.153   4.617  17.815  0.00  0.00    +0.000 C 
ATOM      2  O   UNL     1       8.143   4.139  17.267  0.00  0.00    +0.000 OA
ENDROOT
BRANCH   1   7
ATOM      3  C   UNL     1       3.552   3.706  17.426  0.00  0.00    +0.000 A 
ATOM      4  N   UNL     1       3.864   4.314  16.234  0.00  0.00    +0.000 N 
ATOM      5  C   UNL     1       5.196   4.630  16.172  0.00  0.00    +0.000 A 
ATOM      6  C   UNL     1       5.773   5.215  14.928  0.00  0.00    +0.000 C 
ATOM      7  C   UNL     1       5.767   4.329  17.408  0.00  0.00    +0.000 A 
ATOM      8  C   UNL     1       4.713   3.734  18.203  0.00  0.00    +0.000 A 
ATOM      9  C   UNL     1       4.805   3.233  19.607  0.00  0.00    +0.000 C 
ATOM     10  H   UNL     1       3.189   4.466  15.493  0.00  0.00    +0.000 HD
BRANCH   3  11
ATOM     11  C   UNL     1       2.245   3.149  17.721  0.00  0.00    +0.000 C 
ATOM     12  O   UNL     1       1.939   1.962  17.637  0.00  0.00    +0.000 OA
BRANCH  11  13
ATOM     13  O   UNL     1       1.377   4.152  18.035  0.00  0.00    +0.000 OA
BRANCH  13  15
ATOM     14  C   UNL     1       1.076   3.823  20.442  0.00  0.00    +0.000 C 
ATOM     15  C   UNL     1       1.531   4.754  19.332  0.00  0.00    +0.000 C 
ENDBRANCH  13  15
ENDBRANCH  11  13
ENDBRANCH   3  11
ENDBRANCH   1   7
BRANCH   1  16
ATOM     16  O   UNL     1       7.226   5.378  18.944  0.00  0.00    +0.000 OA
BRANCH  16  17
ATOM     17  C   UNL     1       8.203   6.410  18.917  0.00  0.00    +0.000 C 
BRANCH  17  18
ATOM     18  C   UNL     1       7.871   7.633  18.065  0.00  0.00    +0.000 C 
ATOM     19  O   UNL     1       7.088   7.571  17.118  0.00  0.00    +0.000 OA
ATOM     20  N   UNL     1       8.498   8.791  18.462  0.00  0.00    +0.000 N 
ATOM     21  H   UNL     1       9.318   8.691  19.057  0.00  0.00    +0.000 HD
BRANCH  20  22
ATOM     22  C   UNL     1       8.373  10.016  17.713  0.00  0.00    +0.000 C 
BRANCH  22  23
ATOM     23  C   UNL     1       9.127  11.143  18.368  0.00  0.00    +0.000 A 
ATOM     24  C   UNL     1       9.824  10.944  19.569  0.00  0.00    +0.000 A 
ATOM     25  C   UNL     1      10.532  11.995  20.158  0.00  0.00    +0.000 A 
ATOM     26  C   UNL     1      10.538  13.253  19.558  0.00  0.00    +0.000 A 
ATOM     27 CL   UNL     1      11.412  14.544  20.285  0.00  0.00    +0.000 Cl
ATOM     28  C   UNL     1       9.841  13.469  18.370  0.00  0.00    +0.000 A 
ATOM     29  C   UNL     1       9.136  12.418  17.780  0.00  0.00    +0.000 A 
ENDBRANCH  22  23
ENDBRANCH  20  22
ENDBRANCH  17  18
ENDBRANCH  16  17
ENDBRANCH   1  16
TORSDOF 9
ENDMDL
