MODEL 1
REMARK VINA RESULT:      -6.9      0.000      0.000
REMARK  Name = 
REMARK  6 active torsions:
REMARK  status: ('A' for Active; 'I' for Inactive)
REMARK    1  A    between atoms: C_2  and  C_3
REMARK    2  A    between atoms: N_5  and  C_6
REMARK    3  A    between atoms: C_9  and  S_10
REMARK    4  A    between atoms: S_10  and  C_13
REMARK    5  A    between atoms: C_16  and  N_17
REMARK    6  A    between atoms: C_18  and  C_20
REMARK                            x       y       z     vdW  Elec       q    Type
REMARK                         _______ _______ _______ _____ _____    ______ ____
ROOT
ATOM      1  S   UNL     1       0.819  10.899  20.355  0.00  0.00    +0.000 S 
ATOM      2  O   UNL     1       0.710  10.683  21.787  0.00  0.00    +0.000 OA
ATOM      3  O   UNL     1       1.655  11.972  19.844  0.00  0.00    +0.000 OA
ENDROOT
BRANCH   1   7
ATOM      4  C   UNL     1       2.510   7.028  18.584  0.00  0.00    +0.000 A 
ATOM      5  C   UNL     1       2.077   7.078  19.912  0.00  0.00    +0.000 A 
ATOM      6  C   UNL     1       1.538   8.251  20.445  0.00  0.00    +0.000 A 
ATOM      7  C   UNL     1       1.414   9.383  19.640  0.00  0.00    +0.000 A 
ATOM      8  C   UNL     1       1.843   9.353  18.311  0.00  0.00    +0.000 A 
ATOM      9  C   UNL     1       2.396   8.177  17.789  0.00  0.00    +0.000 A 
BRANCH   4  12
ATOM     10  O   UNL     1       1.272   4.498  17.728  0.00  0.00    +0.000 OA
ATOM     11  C   UNL     1       2.487   4.696  17.687  0.00  0.00    +0.000 C 
ATOM     12  N   UNL     1       3.108   5.888  18.010  0.00  0.00    +0.000 N 
ATOM     13  H   UNL     1       4.096   5.951  17.780  0.00  0.00    +0.000 HD
BRANCH  11  14
ATOM     14  C   UNL     1       3.398   3.568  17.229  0.00  0.00    +0.000 C 
ATOM     15 CL   UNL     1       2.965   1.986  17.913  0.00  0.00    +0.000 Cl
ENDBRANCH  11  14
ENDBRANCH   4  12
ENDBRANCH   1   7
BRANCH   1  16
ATOM     16  C   UNL     1      -0.822  11.167  19.728  0.00  0.00    +0.000 A 
ATOM     17  C   UNL     1      -1.624  12.150  20.308  0.00  0.00    +0.000 A 
ATOM     18  C   UNL     1      -2.885  12.422  19.769  0.00  0.00    +0.000 A 
ATOM     19  C   UNL     1      -3.349  11.730  18.645  0.00  0.00    +0.000 A 
ATOM     20  C   UNL     1      -2.532  10.743  18.074  0.00  0.00    +0.000 A 
ATOM     21  C   UNL     1      -1.266  10.463  18.608  0.00  0.00    +0.000 A 
BRANCH  19  22
ATOM     22  N   UNL     1      -4.594  11.982  18.030  0.00  0.00    +0.000 N 
ATOM     23  C   UNL     1      -5.854  11.809  18.574  0.00  0.00    +0.000 C 
ATOM     24  O   UNL     1      -6.099  11.339  19.685  0.00  0.00    +0.000 OA
ATOM     25  H   UNL     1      -4.566  12.405  17.106  0.00  0.00    +0.000 HD
BRANCH  23  26
ATOM     26  C   UNL     1      -7.008  12.155  17.647  0.00  0.00    +0.000 C 
ATOM     27 CL   UNL     1      -6.772  13.716  16.832  0.00  0.00    +0.000 Cl
ENDBRANCH  23  26
ENDBRANCH  19  22
ENDBRANCH   1  16
TORSDOF 6
ENDMDL
MODEL 2
REMARK VINA RESULT:      -6.9      3.799      5.617
REMARK  Name = 
REMARK  6 active torsions:
REMARK  status: ('A' for Active; 'I' for Inactive)
REMARK    1  A    between atoms: C_2  and  C_3
REMARK    2  A    between atoms: N_5  and  C_6
REMARK    3  A    between atoms: C_9  and  S_10
REMARK    4  A    between atoms: S_10  and  C_13
REMARK    5  A    between atoms: C_16  and  N_17
REMARK    6  A    between atoms: C_18  and  C_20
REMARK                            x       y       z     vdW  Elec       q    Type
REMARK                         _______ _______ _______ _____ _____    ______ ____
ROOT
ATOM      1  S   UNL     1       1.983   4.899  20.417  0.00  0.00    +0.000 S 
ATOM      2  O   UNL     1       0.723   4.233  20.142  0.00  0.00    +0.000 OA
ATOM      3  O   UNL     1       2.676   4.655  21.670  0.00  0.00    +0.000 OA
ENDROOT
BRANCH   1   7
ATOM      4  C   UNL     1       4.872   3.950  16.991  0.00  0.00    +0.000 A 
ATOM      5  C   UNL     1       5.346   4.439  18.212  0.00  0.00    +0.000 A 
ATOM      6  C   UNL     1       4.468   4.705  19.265  0.00  0.00    +0.000 A 
ATOM      7  C   UNL     1       3.103   4.465  19.104  0.00  0.00    +0.000 A 
ATOM      8  C   UNL     1       2.611   3.978  17.892  0.00  0.00    +0.000 A 
ATOM      9  C   UNL     1       3.496   3.728  16.836  0.00  0.00    +0.000 A 
BRANCH   4  12
ATOM     10  O   UNL     1       5.868   5.840  14.963  0.00  0.00    +0.000 OA
ATOM     11  C   UNL     1       6.091   4.629  14.918  0.00  0.00    +0.000 C 
ATOM     12  N   UNL     1       5.706   3.714  15.879  0.00  0.00    +0.000 N 
ATOM     13  H   UNL     1       6.094   2.779  15.784  0.00  0.00    +0.000 HD
BRANCH  11  14
ATOM     14  C   UNL     1       6.866   4.071  13.734  0.00  0.00    +0.000 C 
ATOM     15 CL   UNL     1       5.829   3.346  12.486  0.00  0.00    +0.000 Cl
ENDBRANCH  11  14
ENDBRANCH   4  12
ENDBRANCH   1   7
BRANCH   1  16
ATOM     16  C   UNL     1       1.698   6.650  20.306  0.00  0.00    +0.000 A 
ATOM     17  C   UNL     1       2.113   7.339  19.166  0.00  0.00    +0.000 A 
ATOM     18  C   UNL     1       1.822   8.700  19.035  0.00  0.00    +0.000 A 
ATOM     19  C   UNL     1       1.106   9.378  20.027  0.00  0.00    +0.000 A 
ATOM     20  C   UNL     1       0.697   8.673  21.168  0.00  0.00    +0.000 A 
ATOM     21  C   UNL     1       0.985   7.308  21.309  0.00  0.00    +0.000 A 
BRANCH  19  22
ATOM     22  N   UNL     1       0.746  10.741  19.939  0.00  0.00    +0.000 N 
ATOM     23  C   UNL     1      -0.310  11.290  19.234  0.00  0.00    +0.000 C 
ATOM     24  O   UNL     1      -1.086  10.673  18.504  0.00  0.00    +0.000 OA
ATOM     25  H   UNL     1       1.277  11.388  20.515  0.00  0.00    +0.000 HD
BRANCH  23  26
ATOM     26  C   UNL     1      -0.426  12.803  19.325  0.00  0.00    +0.000 C 
ATOM     27 CL   UNL     1       0.090  13.424  20.908  0.00  0.00    +0.000 Cl
ENDBRANCH  23  26
ENDBRANCH  19  22
ENDBRANCH   1  16
TORSDOF 6
ENDMDL
MODEL 3
REMARK VINA RESULT:      -6.9      4.041      5.642
REMARK  Name = 
REMARK  6 active torsions:
REMARK  status: ('A' for Active; 'I' for Inactive)
REMARK    1  A    between atoms: C_2  and  C_3
REMARK    2  A    between atoms: N_5  and  C_6
REMARK    3  A    between atoms: C_9  and  S_10
REMARK    4  A    between atoms: S_10  and  C_13
REMARK    5  A    between atoms: C_16  and  N_17
REMARK    6  A    between atoms: C_18  and  C_20
REMARK                            x       y       z     vdW  Elec       q    Type
REMARK                         _______ _______ _______ _____ _____    ______ ____
ROOT
ATOM      1  S   UNL     1       1.985   5.170  20.435  0.00  0.00    +0.000 S 
ATOM      2  O   UNL     1       0.743   4.444  20.245  0.00  0.00    +0.000 OA
ATOM      3  O   UNL     1       2.728   5.027  21.676  0.00  0.00    +0.000 OA
ENDROOT
BRANCH   1   7
ATOM      4  C   UNL     1       4.794   4.121  16.973  0.00  0.00    +0.000 A 
ATOM      5  C   UNL     1       5.291   4.685  18.151  0.00  0.00    +0.000 A 
ATOM      6  C   UNL     1       4.438   4.982  19.217  0.00  0.00    +0.000 A 
ATOM      7  C   UNL     1       3.077   4.698  19.112  0.00  0.00    +0.000 A 
ATOM      8  C   UNL     1       2.562   4.136  17.942  0.00  0.00    +0.000 A 
ATOM      9  C   UNL     1       3.422   3.854  16.873  0.00  0.00    +0.000 A 
BRANCH   4  12
ATOM     10  O   UNL     1       5.970   5.984  15.019  0.00  0.00    +0.000 OA
ATOM     11  C   UNL     1       6.073   4.760  14.924  0.00  0.00    +0.000 C 
ATOM     12  N   UNL     1       5.601   3.849  15.849  0.00  0.00    +0.000 N 
ATOM     13  H   UNL     1       5.895   2.885  15.715  0.00  0.00    +0.000 HD
BRANCH  11  14
ATOM     14  C   UNL     1       6.790   4.178  13.715  0.00  0.00    +0.000 C 
ATOM     15 CL   UNL     1       5.694   3.419  12.539  0.00  0.00    +0.000 Cl
ENDBRANCH  11  14
ENDBRANCH   4  12
ENDBRANCH   1   7
BRANCH   1  16
ATOM     16  C   UNL     1       1.631   6.900  20.231  0.00  0.00    +0.000 A 
ATOM     17  C   UNL     1       2.048   7.551  19.070  0.00  0.00    +0.000 A 
ATOM     18  C   UNL     1       1.704   8.890  18.865  0.00  0.00    +0.000 A 
ATOM     19  C   UNL     1       0.934   9.584  19.804  0.00  0.00    +0.000 A 
ATOM     20  C   UNL     1       0.523   8.917  20.967  0.00  0.00    +0.000 A 
ATOM     21  C   UNL     1       0.864   7.574  21.182  0.00  0.00    +0.000 A 
BRANCH  19  22
ATOM     22  N   UNL     1       0.520  10.924  19.641  0.00  0.00    +0.000 N 
ATOM     23  C   UNL     1       0.956  12.032  20.345  0.00  0.00    +0.000 C 
ATOM     24  O   UNL     1       1.746  12.019  21.289  0.00  0.00    +0.000 OA
ATOM     25  H   UNL     1      -0.118  11.111  18.873  0.00  0.00    +0.000 HD
BRANCH  23  26
ATOM     26  C   UNL     1       0.304  13.346  19.945  0.00  0.00    +0.000 C 
ATOM     27 CL   UNL     1      -0.293  13.318  18.271  0.00  0.00    +0.000 Cl
ENDBRANCH  23  26
ENDBRANCH  19  22
ENDBRANCH   1  16
TORSDOF 6
ENDMDL
MODEL 4
REMARK VINA RESULT:      -6.8      3.960      5.640
REMARK  Name = 
REMARK  6 active torsions:
REMARK  status: ('A' for Active; 'I' for Inactive)
REMARK    1  A    between atoms: C_2  and  C_3
REMARK    2  A    between atoms: N_5  and  C_6
REMARK    3  A    between atoms: C_9  and  S_10
REMARK    4  A    between atoms: S_10  and  C_13
REMARK    5  A    between atoms: C_16  and  N_17
REMARK    6  A    between atoms: C_18  and  C_20
REMARK                            x       y       z     vdW  Elec       q    Type
REMARK                         _______ _______ _______ _____ _____    ______ ____
ROOT
ATOM      1  S   UNL     1       1.952   4.901  20.427  0.00  0.00    +0.000 S 
ATOM      2  O   UNL     1       0.720   4.169  20.199  0.00  0.00    +0.000 OA
ATOM      3  O   UNL     1       2.671   4.741  21.680  0.00  0.00    +0.000 OA
ENDROOT
BRANCH   1   7
ATOM      4  C   UNL     1       4.844   3.931  17.009  0.00  0.00    +0.000 A 
ATOM      5  C   UNL     1       5.314   4.450  18.218  0.00  0.00    +0.000 A 
ATOM      6  C   UNL     1       4.436   4.723  19.270  0.00  0.00    +0.000 A 
ATOM      7  C   UNL     1       3.075   4.458  19.119  0.00  0.00    +0.000 A 
ATOM      8  C   UNL     1       2.586   3.941  17.917  0.00  0.00    +0.000 A 
ATOM      9  C   UNL     1       3.471   3.685  16.863  0.00  0.00    +0.000 A 
BRANCH   4  12
ATOM     10  O   UNL     1       5.844   5.806  14.970  0.00  0.00    +0.000 OA
ATOM     11  C   UNL     1       6.064   4.594  14.932  0.00  0.00    +0.000 C 
ATOM     12  N   UNL     1       5.678   3.686  15.899  0.00  0.00    +0.000 N 
ATOM     13  H   UNL     1       6.064   2.750  15.810  0.00  0.00    +0.000 HD
BRANCH  11  14
ATOM     14  C   UNL     1       6.839   4.028  13.751  0.00  0.00    +0.000 C 
ATOM     15 CL   UNL     1       5.797   3.386  12.463  0.00  0.00    +0.000 Cl
ENDBRANCH  11  14
ENDBRANCH   4  12
ENDBRANCH   1   7
BRANCH   1  16
ATOM     16  C   UNL     1       1.590   6.631  20.245  0.00  0.00    +0.000 A 
ATOM     17  C   UNL     1       0.949   7.309  21.283  0.00  0.00    +0.000 A 
ATOM     18  C   UNL     1       0.733   8.686  21.181  0.00  0.00    +0.000 A 
ATOM     19  C   UNL     1       1.164   9.398  20.058  0.00  0.00    +0.000 A 
ATOM     20  C   UNL     1       1.806   8.704  19.022  0.00  0.00    +0.000 A 
ATOM     21  C   UNL     1       2.027   7.322  19.114  0.00  0.00    +0.000 A 
BRANCH  19  22
ATOM     22  N   UNL     1       1.012  10.794  19.909  0.00  0.00    +0.000 N 
ATOM     23  C   UNL     1       0.030  11.464  19.202  0.00  0.00    +0.000 C 
ATOM     24  O   UNL     1      -0.854  10.939  18.524  0.00  0.00    +0.000 OA
ATOM     25  H   UNL     1       1.653  11.378  20.437  0.00  0.00    +0.000 HD
BRANCH  23  26
ATOM     26  C   UNL     1       0.146  12.980  19.219  0.00  0.00    +0.000 C 
ATOM     27 CL   UNL     1       1.597  13.552  18.366  0.00  0.00    +0.000 Cl
ENDBRANCH  23  26
ENDBRANCH  19  22
ENDBRANCH   1  16
TORSDOF 6
ENDMDL
MODEL 5
REMARK VINA RESULT:      -6.8      1.117      8.725
REMARK  Name = 
REMARK  6 active torsions:
REMARK  status: ('A' for Active; 'I' for Inactive)
REMARK    1  A    between atoms: C_2  and  C_3
REMARK    2  A    between atoms: N_5  and  C_6
REMARK    3  A    between atoms: C_9  and  S_10
REMARK    4  A    between atoms: S_10  and  C_13
REMARK    5  A    between atoms: C_16  and  N_17
REMARK    6  A    between atoms: C_18  and  C_20
REMARK                            x       y       z     vdW  Elec       q    Type
REMARK                         _______ _______ _______ _____ _____    ______ ____
ROOT
ATOM      1  S   UNL     1       1.036  11.173  19.911  0.00  0.00    +0.000 S 
ATOM      2  O   UNL     1       1.817  12.024  19.032  0.00  0.00    +0.000 OA
ATOM      3  O   UNL     1       1.155  11.312  21.352  0.00  0.00    +0.000 OA
ENDROOT
BRANCH   1   7
ATOM      4  C   UNL     1      -3.325  11.957  18.748  0.00  0.00    +0.000 A 
ATOM      5  C   UNL     1      -2.484  11.216  17.913  0.00  0.00    +0.000 A 
ATOM      6  C   UNL     1      -1.161  10.956  18.279  0.00  0.00    +0.000 A 
ATOM      7  C   UNL     1      -0.677  11.425  19.499  0.00  0.00    +0.000 A 
ATOM      8  C   UNL     1      -1.502  12.168  20.347  0.00  0.00    +0.000 A 
ATOM      9  C   UNL     1      -2.822  12.437  19.966  0.00  0.00    +0.000 A 
BRANCH   4  12
ATOM     10  O   UNL     1      -5.718  10.244  18.633  0.00  0.00    +0.000 OA
ATOM     11  C   UNL     1      -5.727  11.431  18.303  0.00  0.00    +0.000 C 
ATOM     12  N   UNL     1      -4.651  12.292  18.406  0.00  0.00    +0.000 N 
ATOM     13  H   UNL     1      -4.851  13.275  18.244  0.00  0.00    +0.000 HD
BRANCH  11  14
ATOM     14  C   UNL     1      -7.015  12.029  17.758  0.00  0.00    +0.000 C 
ATOM     15 CL   UNL     1      -6.768  13.541  16.858  0.00  0.00    +0.000 Cl
ENDBRANCH  11  14
ENDBRANCH   4  12
ENDBRANCH   1   7
BRANCH   1  16
ATOM     16  C   UNL     1       1.428   9.486  19.511  0.00  0.00    +0.000 A 
ATOM     17  C   UNL     1       1.882   9.175  18.228  0.00  0.00    +0.000 A 
ATOM     18  C   UNL     1       2.269   7.866  17.929  0.00  0.00    +0.000 A 
ATOM     19  C   UNL     1       2.222   6.864  18.905  0.00  0.00    +0.000 A 
ATOM     20  C   UNL     1       1.763   7.191  20.189  0.00  0.00    +0.000 A 
ATOM     21  C   UNL     1       1.371   8.502  20.498  0.00  0.00    +0.000 A 
BRANCH  19  22
ATOM     22  N   UNL     1       2.635   5.533  18.680  0.00  0.00    +0.000 N 
ATOM     23  C   UNL     1       3.853   4.962  19.002  0.00  0.00    +0.000 C 
ATOM     24  O   UNL     1       4.817   5.552  19.491  0.00  0.00    +0.000 OA
ATOM     25  H   UNL     1       1.936   4.899  18.303  0.00  0.00    +0.000 HD
BRANCH  23  26
ATOM     26  C   UNL     1       4.001   3.500  18.614  0.00  0.00    +0.000 C 
ATOM     27 CL   UNL     1       2.786   2.994  17.420  0.00  0.00    +0.000 Cl
ENDBRANCH  23  26
ENDBRANCH  19  22
ENDBRANCH   1  16
TORSDOF 6
ENDMDL
MODEL 6
REMARK VINA RESULT:      -6.8      0.750      1.227
REMARK  Name = 
REMARK  6 active torsions:
REMARK  status: ('A' for Active; 'I' for Inactive)
REMARK    1  A    between atoms: C_2  and  C_3
REMARK    2  A    between atoms: N_5  and  C_6
REMARK    3  A    between atoms: C_9  and  S_10
REMARK    4  A    between atoms: S_10  and  C_13
REMARK    5  A    between atoms: C_16  and  N_17
REMARK    6  A    between atoms: C_18  and  C_20
REMARK                            x       y       z     vdW  Elec       q    Type
REMARK                         _______ _______ _______ _____ _____    ______ ____
ROOT
ATOM      1  S   UNL     1       0.452  10.327  21.105  0.00  0.00    +0.000 S 
ATOM      2  O   UNL     1      -0.102   9.827  22.349  0.00  0.00    +0.000 OA
ATOM      3  O   UNL     1       1.467  11.367  21.127  0.00  0.00    +0.000 OA
ENDROOT
BRANCH   1   7
ATOM      4  C   UNL     1       2.393   6.774  18.963  0.00  0.00    +0.000 A 
ATOM      5  C   UNL     1       1.918   6.648  20.272  0.00  0.00    +0.000 A 
ATOM      6  C   UNL     1       1.303   7.724  20.916  0.00  0.00    +0.000 A 
ATOM      7  C   UNL     1       1.146   8.935  20.242  0.00  0.00    +0.000 A 
ATOM      8  C   UNL     1       1.616   9.080  18.935  0.00  0.00    +0.000 A 
ATOM      9  C   UNL     1       2.244   8.000  18.301  0.00  0.00    +0.000 A 
BRANCH   4  12
ATOM     10  O   UNL     1       1.288   4.458  17.518  0.00  0.00    +0.000 OA
ATOM     11  C   UNL     1       2.497   4.634  17.677  0.00  0.00    +0.000 C 
ATOM     12  N   UNL     1       3.066   5.737  18.285  0.00  0.00    +0.000 N 
ATOM     13  H   UNL     1       4.076   5.817  18.204  0.00  0.00    +0.000 HD
BRANCH  11  14
ATOM     14  C   UNL     1       3.464   3.582  17.155  0.00  0.00    +0.000 C 
ATOM     15 CL   UNL     1       3.580   2.148  18.198  0.00  0.00    +0.000 Cl
ENDBRANCH  11  14
ENDBRANCH   4  12
ENDBRANCH   1   7
BRANCH   1  16
ATOM     16  C   UNL     1      -0.900  10.933  20.122  0.00  0.00    +0.000 A 
ATOM     17  C   UNL     1      -1.231  10.276  18.936  0.00  0.00    +0.000 A 
ATOM     18  C   UNL     1      -2.342  10.696  18.199  0.00  0.00    +0.000 A 
ATOM     19  C   UNL     1      -3.137  11.758  18.643  0.00  0.00    +0.000 A 
ATOM     20  C   UNL     1      -2.791  12.409  19.836  0.00  0.00    +0.000 A 
ATOM     21  C   UNL     1      -1.677  11.996  20.582  0.00  0.00    +0.000 A 
BRANCH  19  22
ATOM     22  N   UNL     1      -4.292  12.207  17.968  0.00  0.00    +0.000 N 
ATOM     23  C   UNL     1      -5.563  11.660  18.015  0.00  0.00    +0.000 C 
ATOM     24  O   UNL     1      -5.882  10.636  18.620  0.00  0.00    +0.000 OA
ATOM     25  H   UNL     1      -4.203  13.071  17.440  0.00  0.00    +0.000 HD
BRANCH  23  26
ATOM     26  C   UNL     1      -6.599  12.367  17.157  0.00  0.00    +0.000 C 
ATOM     27 CL   UNL     1      -7.809  13.226  18.134  0.00  0.00    +0.000 Cl
ENDBRANCH  23  26
ENDBRANCH  19  22
ENDBRANCH   1  16
TORSDOF 6
ENDMDL
MODEL 7
REMARK VINA RESULT:      -6.8      1.179      1.179
REMARK  Name = 
REMARK  6 active torsions:
REMARK  status: ('A' for Active; 'I' for Inactive)
REMARK    1  A    between atoms: C_2  and  C_3
REMARK    2  A    between atoms: N_5  and  C_6
REMARK    3  A    between atoms: C_9  and  S_10
REMARK    4  A    between atoms: S_10  and  C_13
REMARK    5  A    between atoms: C_16  and  N_17
REMARK    6  A    between atoms: C_18  and  C_20
REMARK                            x       y       z     vdW  Elec       q    Type
REMARK                         _______ _______ _______ _____ _____    ______ ____
ROOT
ATOM      1  S   UNL     1       0.855  10.982  20.301  0.00  0.00    +0.000 S 
ATOM      2  O   UNL     1       0.805  10.926  21.750  0.00  0.00    +0.000 OA
ATOM      3  O   UNL     1       1.709  11.955  19.640  0.00  0.00    +0.000 OA
ENDROOT
BRANCH   1   7
ATOM      4  C   UNL     1       2.305   6.867  18.905  0.00  0.00    +0.000 A 
ATOM      5  C   UNL     1       1.860   7.062  20.216  0.00  0.00    +0.000 A 
ATOM      6  C   UNL     1       1.394   8.310  20.635  0.00  0.00    +0.000 A 
ATOM      7  C   UNL     1       1.357   9.372  19.731  0.00  0.00    +0.000 A 
ATOM      8  C   UNL     1       1.799   9.197  18.418  0.00  0.00    +0.000 A 
ATOM      9  C   UNL     1       2.278   7.946  18.011  0.00  0.00    +0.000 A 
BRANCH   4  12
ATOM     10  O   UNL     1       4.892   5.596  19.513  0.00  0.00    +0.000 OA
ATOM     11  C   UNL     1       4.085   5.124  18.711  0.00  0.00    +0.000 C 
ATOM     12  N   UNL     1       2.832   5.643  18.445  0.00  0.00    +0.000 N 
ATOM     13  H   UNL     1       2.221   5.061  17.879  0.00  0.00    +0.000 HD
BRANCH  11  14
ATOM     14  C   UNL     1       4.460   3.858  17.955  0.00  0.00    +0.000 C 
ATOM     15 CL   UNL     1       4.712   4.120  16.216  0.00  0.00    +0.000 Cl
ENDBRANCH  11  14
ENDBRANCH   4  12
ENDBRANCH   1   7
BRANCH   1  16
ATOM     16  C   UNL     1      -0.801  11.252  19.717  0.00  0.00    +0.000 A 
ATOM     17  C   UNL     1      -1.615  12.176  20.374  0.00  0.00    +0.000 A 
ATOM     18  C   UNL     1      -2.890  12.454  19.873  0.00  0.00    +0.000 A 
ATOM     19  C   UNL     1      -3.357  11.829  18.712  0.00  0.00    +0.000 A 
ATOM     20  C   UNL     1      -2.528  10.902  18.063  0.00  0.00    +0.000 A 
ATOM     21  C   UNL     1      -1.247  10.615  18.559  0.00  0.00    +0.000 A 
BRANCH  19  22
ATOM     22  N   UNL     1      -4.617  12.092  18.133  0.00  0.00    +0.000 N 
ATOM     23  C   UNL     1      -5.860  11.719  18.612  0.00  0.00    +0.000 C 
ATOM     24  O   UNL     1      -6.068  11.029  19.610  0.00  0.00    +0.000 OA
ATOM     25  H   UNL     1      -4.621  12.684  17.307  0.00  0.00    +0.000 HD
BRANCH  23  26
ATOM     26  C   UNL     1      -7.036  12.141  17.747  0.00  0.00    +0.000 C 
ATOM     27 CL   UNL     1      -6.705  13.635  16.844  0.00  0.00    +0.000 Cl
ENDBRANCH  23  26
ENDBRANCH  19  22
ENDBRANCH   1  16
TORSDOF 6
ENDMDL
MODEL 8
REMARK VINA RESULT:      -6.7      3.965      5.865
REMARK  Name = 
REMARK  6 active torsions:
REMARK  status: ('A' for Active; 'I' for Inactive)
REMARK    1  A    between atoms: C_2  and  C_3
REMARK    2  A    between atoms: N_5  and  C_6
REMARK    3  A    between atoms: C_9  and  S_10
REMARK    4  A    between atoms: S_10  and  C_13
REMARK    5  A    between atoms: C_16  and  N_17
REMARK    6  A    between atoms: C_18  and  C_20
REMARK                            x       y       z     vdW  Elec       q    Type
REMARK                         _______ _______ _______ _____ _____    ______ ____
ROOT
ATOM      1  S   UNL     1       2.983   5.365  19.028  0.00  0.00    +0.000 S 
ATOM      2  O   UNL     1       1.832   4.483  18.976  0.00  0.00    +0.000 OA
ATOM      3  O   UNL     1       3.918   5.276  20.137  0.00  0.00    +0.000 OA
ENDROOT
BRANCH   1   7
ATOM      4  C   UNL     1       5.516   4.633  15.282  0.00  0.00    +0.000 A 
ATOM      5  C   UNL     1       4.851   3.578  15.913  0.00  0.00    +0.000 A 
ATOM      6  C   UNL     1       4.058   3.805  17.041  0.00  0.00    +0.000 A 
ATOM      7  C   UNL     1       3.914   5.102  17.535  0.00  0.00    +0.000 A 
ATOM      8  C   UNL     1       4.572   6.168  16.918  0.00  0.00    +0.000 A 
ATOM      9  C   UNL     1       5.376   5.930  15.797  0.00  0.00    +0.000 A 
BRANCH   4  12
ATOM     10  O   UNL     1       4.900   3.589  12.598  0.00  0.00    +0.000 OA
ATOM     11  C   UNL     1       6.039   3.895  12.953  0.00  0.00    +0.000 C 
ATOM     12  N   UNL     1       6.368   4.454  14.173  0.00  0.00    +0.000 N 
ATOM     13  H   UNL     1       7.321   4.796  14.264  0.00  0.00    +0.000 HD
BRANCH  11  14
ATOM     14  C   UNL     1       7.192   3.672  11.985  0.00  0.00    +0.000 C 
ATOM     15 CL   UNL     1       7.187   2.060  11.237  0.00  0.00    +0.000 Cl
ENDBRANCH  11  14
ENDBRANCH   4  12
ENDBRANCH   1   7
BRANCH   1  16
ATOM     16  C   UNL     1       2.380   7.036  18.982  0.00  0.00    +0.000 A 
ATOM     17  C   UNL     1       2.306   7.703  17.759  0.00  0.00    +0.000 A 
ATOM     18  C   UNL     1       1.758   8.988  17.702  0.00  0.00    +0.000 A 
ATOM     19  C   UNL     1       1.268   9.609  18.856  0.00  0.00    +0.000 A 
ATOM     20  C   UNL     1       1.350   8.927  20.079  0.00  0.00    +0.000 A 
ATOM     21  C   UNL     1       1.899   7.639  20.145  0.00  0.00    +0.000 A 
BRANCH  19  22
ATOM     22  N   UNL     1       0.669  10.887  18.862  0.00  0.00    +0.000 N 
ATOM     23  C   UNL     1      -0.643  11.205  18.556  0.00  0.00    +0.000 C 
ATOM     24  O   UNL     1      -1.501  10.415  18.162  0.00  0.00    +0.000 OA
ATOM     25  H   UNL     1       1.242  11.656  19.197  0.00  0.00    +0.000 HD
BRANCH  23  26
ATOM     26  C   UNL     1      -0.983  12.684  18.640  0.00  0.00    +0.000 C 
ATOM     27 CL   UNL     1       0.372  13.652  19.260  0.00  0.00    +0.000 Cl
ENDBRANCH  23  26
ENDBRANCH  19  22
ENDBRANCH   1  16
TORSDOF 6
ENDMDL
MODEL 9
REMARK VINA RESULT:      -6.7      4.235      6.683
REMARK  Name = 
REMARK  6 active torsions:
REMARK  status: ('A' for Active; 'I' for Inactive)
REMARK    1  A    between atoms: C_2  and  C_3
REMARK    2  A    between atoms: N_5  and  C_6
REMARK    3  A    between atoms: C_9  and  S_10
REMARK    4  A    between atoms: S_10  and  C_13
REMARK    5  A    between atoms: C_16  and  N_17
REMARK    6  A    between atoms: C_18  and  C_20
REMARK                            x       y       z     vdW  Elec       q    Type
REMARK                         _______ _______ _______ _____ _____    ______ ____
ROOT
ATOM      1  S   UNL     1       4.758   5.118  19.058  0.00  0.00    +0.000 S 
ATOM      2  O   UNL     1       4.087   3.941  19.580  0.00  0.00    +0.000 OA
ATOM      3  O   UNL     1       5.898   5.678  19.764  0.00  0.00    +0.000 OA
ENDROOT
BRANCH   1   7
ATOM      4  C   UNL     1       6.205   3.947  14.873  0.00  0.00    +0.000 A 
ATOM      5  C   UNL     1       4.940   3.563  15.326  0.00  0.00    +0.000 A 
ATOM      6  C   UNL     1       4.488   3.941  16.593  0.00  0.00    +0.000 A 
ATOM      7  C   UNL     1       5.301   4.725  17.410  0.00  0.00    +0.000 A 
ATOM      8  C   UNL     1       6.569   5.118  16.976  0.00  0.00    +0.000 A 
ATOM      9  C   UNL     1       7.020   4.722  15.710  0.00  0.00    +0.000 A 
BRANCH   4  12
ATOM     10  O   UNL     1       4.833   3.602  12.290  0.00  0.00    +0.000 OA
ATOM     11  C   UNL     1       6.026   3.340  12.456  0.00  0.00    +0.000 C 
ATOM     12  N   UNL     1       6.730   3.551  13.626  0.00  0.00    +0.000 N 
ATOM     13  H   UNL     1       7.738   3.434  13.566  0.00  0.00    +0.000 HD
BRANCH  11  14
ATOM     14  C   UNL     1       6.816   2.759  11.293  0.00  0.00    +0.000 C 
ATOM     15 CL   UNL     1       6.498   1.033  11.013  0.00  0.00    +0.000 Cl
ENDBRANCH  11  14
ENDBRANCH   4  12
ENDBRANCH   1   7
BRANCH   1  16
ATOM     16  C   UNL     1       3.543   6.408  18.917  0.00  0.00    +0.000 A 
ATOM     17  C   UNL     1       2.633   6.607  19.955  0.00  0.00    +0.000 A 
ATOM     18  C   UNL     1       1.727   7.669  19.888  0.00  0.00    +0.000 A 
ATOM     19  C   UNL     1       1.730   8.546  18.799  0.00  0.00    +0.000 A 
ATOM     20  C   UNL     1       2.650   8.333  17.762  0.00  0.00    +0.000 A 
ATOM     21  C   UNL     1       3.562   7.270  17.819  0.00  0.00    +0.000 A 
BRANCH  19  22
ATOM     22  N   UNL     1       0.870   9.660  18.687  0.00  0.00    +0.000 N 
ATOM     23  C   UNL     1       0.628  10.637  19.636  0.00  0.00    +0.000 C 
ATOM     24  O   UNL     1       1.088  10.660  20.778  0.00  0.00    +0.000 OA
ATOM     25  H   UNL     1       0.429   9.803  17.783  0.00  0.00    +0.000 HD
BRANCH  23  26
ATOM     26  C   UNL     1      -0.371  11.705  19.220  0.00  0.00    +0.000 C 
ATOM     27 CL   UNL     1       0.426  13.165  18.597  0.00  0.00    +0.000 Cl
ENDBRANCH  23  26
ENDBRANCH  19  22
ENDBRANCH   1  16
TORSDOF 6
ENDMDL
