MODEL 1
REMARK VINA RESULT:      -8.0      0.000      0.000
REMARK  Name = 
REMARK  4 active torsions:
REMARK  status: ('A' for Active; 'I' for Inactive)
REMARK    1  A    between atoms: C_5  and  O_6
REMARK    2  A    between atoms: O_6  and  C_7
REMARK    3  A    between atoms: C_7  and  C_8
REMARK    4  A    between atoms: C_11  and  C_12
REMARK                            x       y       z     vdW  Elec       q    Type
REMARK                         _______ _______ _______ _____ _____    ______ ____
ROOT
ATOM      1  C   UNL     1       2.348   6.474  19.791  0.00  0.00    +0.000 A 
ATOM      2  N   UNL     1       3.233   6.170  18.881  0.00  0.00    +0.000 NA
ATOM      3  N   UNL     1       3.455   4.832  19.015  0.00  0.00    +0.000 N 
ATOM      4  C   UNL     1       4.282   3.932  18.381  0.00  0.00    +0.000 A 
ATOM      5  N   UNL     1       4.047   2.739  18.927  0.00  0.00    +0.000 NA
ATOM      6  N   UNL     1       3.089   2.869  19.932  0.00  0.00    +0.000 NA
ATOM      7  C   UNL     1       2.781   4.130  19.952  0.00  0.00    +0.000 A 
ATOM      8  S   UNL     1       1.748   5.164  20.839  0.00  0.00    +0.000 S 
ENDROOT
BRANCH   4   9
ATOM      9  C   UNL     1       5.241   4.276  17.325  0.00  0.00    +0.000 A 
ATOM     10  C   UNL     1       4.972   3.889  15.995  0.00  0.00    +0.000 A 
ATOM     11  C   UNL     1       5.840   4.206  14.950  0.00  0.00    +0.000 A 
ATOM     12  C   UNL     1       6.995   4.934  15.209  0.00  0.00    +0.000 A 
ATOM     13  C   UNL     1       7.285   5.326  16.513  0.00  0.00    +0.000 A 
ATOM     14  C   UNL     1       6.422   4.998  17.568  0.00  0.00    +0.000 A 
ATOM     15 CL   UNL     1       6.924   5.486  19.151  0.00  0.00    +0.000 Cl
ENDBRANCH   4   9
BRANCH   1  16
ATOM     16  C   UNL     1       1.820   7.871  20.000  0.00  0.00    +0.000 C 
BRANCH  16  17
ATOM     17  O   UNL     1       1.377   7.962  21.350  0.00  0.00    +0.000 OA
BRANCH  17  22
ATOM     18  F   UNL     1      -1.793  12.370  22.179  0.00  0.00    +0.000 F 
ATOM     19  C   UNL     1      -1.020  11.291  22.006  0.00  0.00    +0.000 A 
ATOM     20  C   UNL     1      -0.426  11.061  20.773  0.00  0.00    +0.000 A 
ATOM     21  C   UNL     1       0.374   9.929  20.597  0.00  0.00    +0.000 A 
ATOM     22  C   UNL     1       0.595   9.043  21.655  0.00  0.00    +0.000 A 
ATOM     23  C   UNL     1      -0.016   9.279  22.890  0.00  0.00    +0.000 A 
ATOM     24  C   UNL     1      -0.826  10.408  23.064  0.00  0.00    +0.000 A 
ENDBRANCH  17  22
ENDBRANCH  16  17
ENDBRANCH   1  16
TORSDOF 4
ENDMDL
MODEL 2
REMARK VINA RESULT:      -7.9      0.230      1.005
REMARK  Name = 
REMARK  4 active torsions:
REMARK  status: ('A' for Active; 'I' for Inactive)
REMARK    1  A    between atoms: C_5  and  O_6
REMARK    2  A    between atoms: O_6  and  C_7
REMARK    3  A    between atoms: C_7  and  C_8
REMARK    4  A    between atoms: C_11  and  C_12
REMARK                            x       y       z     vdW  Elec       q    Type
REMARK                         _______ _______ _______ _____ _____    ______ ____
ROOT
ATOM      1  C   UNL     1       2.378   6.471  19.846  0.00  0.00    +0.000 A 
ATOM      2  N   UNL     1       3.262   6.172  18.933  0.00  0.00    +0.000 NA
ATOM      3  N   UNL     1       3.438   4.823  19.020  0.00  0.00    +0.000 N 
ATOM      4  C   UNL     1       4.240   3.919  18.360  0.00  0.00    +0.000 A 
ATOM      5  N   UNL     1       3.961   2.716  18.860  0.00  0.00    +0.000 NA
ATOM      6  N   UNL     1       2.999   2.841  19.860  0.00  0.00    +0.000 NA
ATOM      7  C   UNL     1       2.732   4.110  19.924  0.00  0.00    +0.000 A 
ATOM      8  S   UNL     1       1.725   5.145  20.840  0.00  0.00    +0.000 S 
ENDROOT
BRANCH   4   9
ATOM      9  C   UNL     1       5.221   4.269  17.326  0.00  0.00    +0.000 A 
ATOM     10  C   UNL     1       4.968   3.911  15.985  0.00  0.00    +0.000 A 
ATOM     11  C   UNL     1       5.857   4.235  14.960  0.00  0.00    +0.000 A 
ATOM     12  C   UNL     1       7.017   4.941  15.251  0.00  0.00    +0.000 A 
ATOM     13  C   UNL     1       7.292   5.305  16.566  0.00  0.00    +0.000 A 
ATOM     14  C   UNL     1       6.408   4.970  17.601  0.00  0.00    +0.000 A 
ATOM     15 CL   UNL     1       6.892   5.422  19.200  0.00  0.00    +0.000 Cl
ENDBRANCH   4   9
BRANCH   1  16
ATOM     16  C   UNL     1       1.895   7.877  20.101  0.00  0.00    +0.000 C 
BRANCH  16  17
ATOM     17  O   UNL     1       0.890   7.806  21.108  0.00  0.00    +0.000 OA
BRANCH  17  22
ATOM     18  F   UNL     1      -1.662  12.428  22.621  0.00  0.00    +0.000 F 
ATOM     19  C   UNL     1      -1.045  11.308  22.224  0.00  0.00    +0.000 A 
ATOM     20  C   UNL     1      -0.720  10.334  23.158  0.00  0.00    +0.000 A 
ATOM     21  C   UNL     1      -0.071   9.171  22.738  0.00  0.00    +0.000 A 
ATOM     22  C   UNL     1       0.234   8.974  21.388  0.00  0.00    +0.000 A 
ATOM     23  C   UNL     1      -0.089   9.966  20.457  0.00  0.00    +0.000 A 
ATOM     24  C   UNL     1      -0.731  11.136  20.880  0.00  0.00    +0.000 A 
ENDBRANCH  17  22
ENDBRANCH  16  17
ENDBRANCH   1  16
TORSDOF 4
ENDMDL
MODEL 3
REMARK VINA RESULT:      -7.9      5.355      8.626
REMARK  Name = 
REMARK  4 active torsions:
REMARK  status: ('A' for Active; 'I' for Inactive)
REMARK    1  A    between atoms: C_5  and  O_6
REMARK    2  A    between atoms: O_6  and  C_7
REMARK    3  A    between atoms: C_7  and  C_8
REMARK    4  A    between atoms: C_11  and  C_12
REMARK                            x       y       z     vdW  Elec       q    Type
REMARK                         _______ _______ _______ _____ _____    ______ ____
ROOT
ATOM      1  C   UNL     1       5.966   5.583  17.095  0.00  0.00    +0.000 A 
ATOM      2  N   UNL     1       5.100   4.928  17.819  0.00  0.00    +0.000 NA
ATOM      3  N   UNL     1       4.093   5.810  18.075  0.00  0.00    +0.000 N 
ATOM      4  C   UNL     1       2.920   5.739  18.794  0.00  0.00    +0.000 A 
ATOM      5  N   UNL     1       2.316   6.921  18.667  0.00  0.00    +0.000 NA
ATOM      6  N   UNL     1       3.107   7.765  17.889  0.00  0.00    +0.000 NA
ATOM      7  C   UNL     1       4.153   7.063  17.575  0.00  0.00    +0.000 A 
ATOM      8  S   UNL     1       5.602   7.280  16.693  0.00  0.00    +0.000 S 
ENDROOT
BRANCH   4   9
ATOM      9  C   UNL     1       2.477   4.569  19.560  0.00  0.00    +0.000 A 
ATOM     10  C   UNL     1       2.381   4.659  20.964  0.00  0.00    +0.000 A 
ATOM     11  C   UNL     1       1.947   3.583  21.740  0.00  0.00    +0.000 A 
ATOM     12  C   UNL     1       1.583   2.393  21.125  0.00  0.00    +0.000 A 
ATOM     13  C   UNL     1       1.669   2.276  19.740  0.00  0.00    +0.000 A 
ATOM     14  C   UNL     1       2.118   3.351  18.959  0.00  0.00    +0.000 A 
ATOM     15 CL   UNL     1       2.242   3.062  17.257  0.00  0.00    +0.000 Cl
ENDBRANCH   4   9
BRANCH   1  16
ATOM     16  C   UNL     1       7.253   4.977  16.594  0.00  0.00    +0.000 C 
BRANCH  16  17
ATOM     17  O   UNL     1       7.519   5.539  15.313  0.00  0.00    +0.000 OA
BRANCH  17  22
ATOM     18  F   UNL     1       5.315   2.658  11.190  0.00  0.00    +0.000 F 
ATOM     19  C   UNL     1       5.877   3.364  12.179  0.00  0.00    +0.000 A 
ATOM     20  C   UNL     1       5.277   3.392  13.431  0.00  0.00    +0.000 A 
ATOM     21  C   UNL     1       5.866   4.136  14.456  0.00  0.00    +0.000 A 
ATOM     22  C   UNL     1       7.058   4.831  14.237  0.00  0.00    +0.000 A 
ATOM     23  C   UNL     1       7.648   4.804  12.970  0.00  0.00    +0.000 A 
ATOM     24  C   UNL     1       7.053   4.066  11.939  0.00  0.00    +0.000 A 
ENDBRANCH  17  22
ENDBRANCH  16  17
ENDBRANCH   1  16
TORSDOF 4
ENDMDL
MODEL 4
REMARK VINA RESULT:      -7.7      5.337      8.591
REMARK  Name = 
REMARK  4 active torsions:
REMARK  status: ('A' for Active; 'I' for Inactive)
REMARK    1  A    between atoms: C_5  and  O_6
REMARK    2  A    between atoms: O_6  and  C_7
REMARK    3  A    between atoms: C_7  and  C_8
REMARK    4  A    between atoms: C_11  and  C_12
REMARK                            x       y       z     vdW  Elec       q    Type
REMARK                         _______ _______ _______ _____ _____    ______ ____
ROOT
ATOM      1  C   UNL     1       5.927   5.707  17.278  0.00  0.00    +0.000 A 
ATOM      2  N   UNL     1       4.996   5.095  17.957  0.00  0.00    +0.000 NA
ATOM      3  N   UNL     1       4.026   6.028  18.175  0.00  0.00    +0.000 N 
ATOM      4  C   UNL     1       2.821   6.017  18.841  0.00  0.00    +0.000 A 
ATOM      5  N   UNL     1       2.288   7.230  18.697  0.00  0.00    +0.000 NA
ATOM      6  N   UNL     1       3.157   8.035  17.962  0.00  0.00    +0.000 NA
ATOM      7  C   UNL     1       4.176   7.280  17.689  0.00  0.00    +0.000 A 
ATOM      8  S   UNL     1       5.673   7.424  16.874  0.00  0.00    +0.000 S 
ENDROOT
BRANCH   4   9
ATOM      9  C   UNL     1       2.281   4.868  19.576  0.00  0.00    +0.000 A 
ATOM     10  C   UNL     1       2.565   4.733  20.951  0.00  0.00    +0.000 A 
ATOM     11  C   UNL     1       2.063   3.670  21.703  0.00  0.00    +0.000 A 
ATOM     12  C   UNL     1       1.249   2.722  21.097  0.00  0.00    +0.000 A 
ATOM     13  C   UNL     1       0.954   2.830  19.741  0.00  0.00    +0.000 A 
ATOM     14  C   UNL     1       1.468   3.889  18.980  0.00  0.00    +0.000 A 
ATOM     15 CL   UNL     1       1.083   3.878  17.292  0.00  0.00    +0.000 Cl
ENDBRANCH   4   9
BRANCH   1  16
ATOM     16  C   UNL     1       7.202   5.036  16.830  0.00  0.00    +0.000 C 
BRANCH  16  17
ATOM     17  O   UNL     1       7.495   5.509  15.519  0.00  0.00    +0.000 OA
BRANCH  17  22
ATOM     18  F   UNL     1       5.547   2.776  11.171  0.00  0.00    +0.000 F 
ATOM     19  C   UNL     1       5.997   3.437  12.245  0.00  0.00    +0.000 A 
ATOM     20  C   UNL     1       7.149   4.204  12.148  0.00  0.00    +0.000 A 
ATOM     21  C   UNL     1       7.616   4.886  13.275  0.00  0.00    +0.000 A 
ATOM     22  C   UNL     1       6.923   4.816  14.486  0.00  0.00    +0.000 A 
ATOM     23  C   UNL     1       5.768   4.033  14.576  0.00  0.00    +0.000 A 
ATOM     24  C   UNL     1       5.305   3.343  13.449  0.00  0.00    +0.000 A 
ENDBRANCH  17  22
ENDBRANCH  16  17
ENDBRANCH   1  16
TORSDOF 4
ENDMDL
MODEL 5
REMARK VINA RESULT:      -7.7      4.452      5.424
REMARK  Name = 
REMARK  4 active torsions:
REMARK  status: ('A' for Active; 'I' for Inactive)
REMARK    1  A    between atoms: C_5  and  O_6
REMARK    2  A    between atoms: O_6  and  C_7
REMARK    3  A    between atoms: C_7  and  C_8
REMARK    4  A    between atoms: C_11  and  C_12
REMARK                            x       y       z     vdW  Elec       q    Type
REMARK                         _______ _______ _______ _____ _____    ______ ____
ROOT
ATOM      1  C   UNL     1       4.351   5.817  17.646  0.00  0.00    +0.000 A 
ATOM      2  N   UNL     1       4.711   5.408  16.461  0.00  0.00    +0.000 NA
ATOM      3  N   UNL     1       5.994   4.969  16.597  0.00  0.00    +0.000 N 
ATOM      4  C   UNL     1       6.926   4.451  15.725  0.00  0.00    +0.000 A 
ATOM      5  N   UNL     1       8.016   4.175  16.441  0.00  0.00    +0.000 NA
ATOM      6  N   UNL     1       7.801   4.538  17.770  0.00  0.00    +0.000 NA
ATOM      7  C   UNL     1       6.595   5.014  17.807  0.00  0.00    +0.000 A 
ATOM      8  S   UNL     1       5.537   5.688  18.969  0.00  0.00    +0.000 S 
ENDROOT
BRANCH   4   9
ATOM      9  C   UNL     1       6.718   4.278  14.284  0.00  0.00    +0.000 A 
ATOM     10  C   UNL     1       5.660   3.463  13.831  0.00  0.00    +0.000 A 
ATOM     11  C   UNL     1       5.405   3.279  12.472  0.00  0.00    +0.000 A 
ATOM     12  C   UNL     1       6.197   3.922  11.529  0.00  0.00    +0.000 A 
ATOM     13  C   UNL     1       7.249   4.732  11.948  0.00  0.00    +0.000 A 
ATOM     14  C   UNL     1       7.516   4.908  13.313  0.00  0.00    +0.000 A 
ATOM     15 CL   UNL     1       8.889   5.886  13.706  0.00  0.00    +0.000 Cl
ENDBRANCH   4   9
BRANCH   1  16
ATOM     16  C   UNL     1       2.990   6.397  17.944  0.00  0.00    +0.000 C 
BRANCH  16  17
ATOM     17  O   UNL     1       2.032   5.365  17.736  0.00  0.00    +0.000 OA
BRANCH  17  22
ATOM     18  F   UNL     1       1.206   2.270  22.198  0.00  0.00    +0.000 F 
ATOM     19  C   UNL     1       1.405   3.000  21.093  0.00  0.00    +0.000 A 
ATOM     20  C   UNL     1       1.822   4.320  21.207  0.00  0.00    +0.000 A 
ATOM     21  C   UNL     1       2.022   5.077  20.050  0.00  0.00    +0.000 A 
ATOM     22  C   UNL     1       1.826   4.513  18.787  0.00  0.00    +0.000 A 
ATOM     23  C   UNL     1       1.397   3.186  18.684  0.00  0.00    +0.000 A 
ATOM     24  C   UNL     1       1.187   2.429  19.844  0.00  0.00    +0.000 A 
ENDBRANCH  17  22
ENDBRANCH  16  17
ENDBRANCH   1  16
TORSDOF 4
ENDMDL
MODEL 6
REMARK VINA RESULT:      -7.6      2.119      2.527
REMARK  Name = 
REMARK  4 active torsions:
REMARK  status: ('A' for Active; 'I' for Inactive)
REMARK    1  A    between atoms: C_5  and  O_6
REMARK    2  A    between atoms: O_6  and  C_7
REMARK    3  A    between atoms: C_7  and  C_8
REMARK    4  A    between atoms: C_11  and  C_12
REMARK                            x       y       z     vdW  Elec       q    Type
REMARK                         _______ _______ _______ _____ _____    ______ ____
ROOT
ATOM      1  C   UNL     1       2.429   8.025  18.362  0.00  0.00    +0.000 A 
ATOM      2  N   UNL     1       3.274   7.346  17.636  0.00  0.00    +0.000 NA
ATOM      3  N   UNL     1       3.579   6.237  18.368  0.00  0.00    +0.000 N 
ATOM      4  C   UNL     1       4.417   5.162  18.172  0.00  0.00    +0.000 A 
ATOM      5  N   UNL     1       4.283   4.367  19.233  0.00  0.00    +0.000 NA
ATOM      6  N   UNL     1       3.380   4.938  20.129  0.00  0.00    +0.000 NA
ATOM      7  C   UNL     1       3.003   6.050  19.576  0.00  0.00    +0.000 A 
ATOM      8  S   UNL     1       1.966   7.358  19.948  0.00  0.00    +0.000 S 
ENDROOT
BRANCH   4   9
ATOM      9  C   UNL     1       5.291   4.984  17.007  0.00  0.00    +0.000 A 
ATOM     10  C   UNL     1       4.774   4.385  15.840  0.00  0.00    +0.000 A 
ATOM     11  C   UNL     1       5.556   4.209  14.698  0.00  0.00    +0.000 A 
ATOM     12  C   UNL     1       6.875   4.643  14.692  0.00  0.00    +0.000 A 
ATOM     13  C   UNL     1       7.412   5.236  15.831  0.00  0.00    +0.000 A 
ATOM     14  C   UNL     1       6.633   5.403  16.985  0.00  0.00    +0.000 A 
ATOM     15 CL   UNL     1       7.432   6.094  18.356  0.00  0.00    +0.000 Cl
ENDBRANCH   4   9
BRANCH   1  16
ATOM     16  C   UNL     1       1.836   9.342  17.926  0.00  0.00    +0.000 C 
BRANCH  16  17
ATOM     17  O   UNL     1       1.199   9.919  19.062  0.00  0.00    +0.000 OA
BRANCH  17  22
ATOM     18  F   UNL     1      -3.823  11.837  17.934  0.00  0.00    +0.000 F 
ATOM     19  C   UNL     1      -2.596  11.391  18.229  0.00  0.00    +0.000 A 
ATOM     20  C   UNL     1      -2.005  10.423  17.428  0.00  0.00    +0.000 A 
ATOM     21  C   UNL     1      -0.726   9.958  17.745  0.00  0.00    +0.000 A 
ATOM     22  C   UNL     1      -0.034  10.473  18.845  0.00  0.00    +0.000 A 
ATOM     23  C   UNL     1      -0.642  11.440  19.650  0.00  0.00    +0.000 A 
ATOM     24  C   UNL     1      -1.927  11.900  19.338  0.00  0.00    +0.000 A 
ENDBRANCH  17  22
ENDBRANCH  16  17
ENDBRANCH   1  16
TORSDOF 4
ENDMDL
MODEL 7
REMARK VINA RESULT:      -7.6      2.197      2.719
REMARK  Name = 
REMARK  4 active torsions:
REMARK  status: ('A' for Active; 'I' for Inactive)
REMARK    1  A    between atoms: C_5  and  O_6
REMARK    2  A    between atoms: O_6  and  C_7
REMARK    3  A    between atoms: C_7  and  C_8
REMARK    4  A    between atoms: C_11  and  C_12
REMARK                            x       y       z     vdW  Elec       q    Type
REMARK                         _______ _______ _______ _____ _____    ______ ____
ROOT
ATOM      1  C   UNL     1       2.324   8.138  18.489  0.00  0.00    +0.000 A 
ATOM      2  N   UNL     1       3.191   7.395  17.857  0.00  0.00    +0.000 NA
ATOM      3  N   UNL     1       3.358   6.285  18.631  0.00  0.00    +0.000 N 
ATOM      4  C   UNL     1       4.142   5.158  18.530  0.00  0.00    +0.000 A 
ATOM      5  N   UNL     1       3.862   4.395  19.586  0.00  0.00    +0.000 NA
ATOM      6  N   UNL     1       2.916   5.036  20.384  0.00  0.00    +0.000 NA
ATOM      7  C   UNL     1       2.660   6.157  19.781  0.00  0.00    +0.000 A 
ATOM      8  S   UNL     1       1.676   7.532  20.034  0.00  0.00    +0.000 S 
ENDROOT
BRANCH   4   9
ATOM      9  C   UNL     1       5.109   4.905  17.456  0.00  0.00    +0.000 A 
ATOM     10  C   UNL     1       4.646   4.455  16.202  0.00  0.00    +0.000 A 
ATOM     11  C   UNL     1       5.520   4.217  15.140  0.00  0.00    +0.000 A 
ATOM     12  C   UNL     1       6.881   4.438  15.304  0.00  0.00    +0.000 A 
ATOM     13  C   UNL     1       7.365   4.880  16.533  0.00  0.00    +0.000 A 
ATOM     14  C   UNL     1       6.492   5.107  17.605  0.00  0.00    +0.000 A 
ATOM     15 CL   UNL     1       7.222   5.593  19.098  0.00  0.00    +0.000 Cl
ENDBRANCH   4   9
BRANCH   1  16
ATOM     16  C   UNL     1       1.856   9.479  17.980  0.00  0.00    +0.000 C 
BRANCH  16  17
ATOM     17  O   UNL     1       1.064  10.071  19.005  0.00  0.00    +0.000 OA
BRANCH  17  22
ATOM     18  F   UNL     1      -3.977  11.881  17.792  0.00  0.00    +0.000 F 
ATOM     19  C   UNL     1      -2.753  11.416  18.070  0.00  0.00    +0.000 A 
ATOM     20  C   UNL     1      -2.011  11.999  19.089  0.00  0.00    +0.000 A 
ATOM     21  C   UNL     1      -0.732  11.513  19.370  0.00  0.00    +0.000 A 
ATOM     22  C   UNL     1      -0.206  10.437  18.650  0.00  0.00    +0.000 A 
ATOM     23  C   UNL     1      -0.958   9.864  17.620  0.00  0.00    +0.000 A 
ATOM     24  C   UNL     1      -2.236  10.357  17.332  0.00  0.00    +0.000 A 
ENDBRANCH  17  22
ENDBRANCH  16  17
ENDBRANCH   1  16
TORSDOF 4
ENDMDL
MODEL 8
REMARK VINA RESULT:      -7.5      1.061      1.652
REMARK  Name = 
REMARK  4 active torsions:
REMARK  status: ('A' for Active; 'I' for Inactive)
REMARK    1  A    between atoms: C_5  and  O_6
REMARK    2  A    between atoms: O_6  and  C_7
REMARK    3  A    between atoms: C_7  and  C_8
REMARK    4  A    between atoms: C_11  and  C_12
REMARK                            x       y       z     vdW  Elec       q    Type
REMARK                         _______ _______ _______ _____ _____    ______ ____
ROOT
ATOM      1  C   UNL     1       2.271   5.974  20.002  0.00  0.00    +0.000 A 
ATOM      2  N   UNL     1       3.183   5.818  19.082  0.00  0.00    +0.000 NA
ATOM      3  N   UNL     1       3.276   4.473  18.880  0.00  0.00    +0.000 N 
ATOM      4  C   UNL     1       4.060   3.680  18.072  0.00  0.00    +0.000 A 
ATOM      5  N   UNL     1       3.686   2.419  18.286  0.00  0.00    +0.000 NA
ATOM      6  N   UNL     1       2.679   2.392  19.251  0.00  0.00    +0.000 NA
ATOM      7  C   UNL     1       2.483   3.632  19.579  0.00  0.00    +0.000 A 
ATOM      8  S   UNL     1       1.490   4.512  20.657  0.00  0.00    +0.000 S 
ENDROOT
BRANCH   4   9
ATOM      9  C   UNL     1       5.113   4.177  17.179  0.00  0.00    +0.000 A 
ATOM     10  C   UNL     1       5.010   3.941  15.792  0.00  0.00    +0.000 A 
ATOM     11  C   UNL     1       5.973   4.407  14.896  0.00  0.00    +0.000 A 
ATOM     12  C   UNL     1       7.057   5.135  15.367  0.00  0.00    +0.000 A 
ATOM     13  C   UNL     1       7.185   5.380  16.731  0.00  0.00    +0.000 A 
ATOM     14  C   UNL     1       6.226   4.902  17.636  0.00  0.00    +0.000 A 
ATOM     15 CL   UNL     1       6.529   5.217  19.311  0.00  0.00    +0.000 Cl
ENDBRANCH   4   9
BRANCH   1  16
ATOM     16  C   UNL     1       1.856   7.321  20.538  0.00  0.00    +0.000 C 
BRANCH  16  17
ATOM     17  O   UNL     1       1.879   8.239  19.449  0.00  0.00    +0.000 OA
BRANCH  17  22
ATOM     18  F   UNL     1      -1.827  12.259  19.971  0.00  0.00    +0.000 F 
ATOM     19  C   UNL     1      -0.928  11.279  19.815  0.00  0.00    +0.000 A 
ATOM     20  C   UNL     1      -0.450  10.601  20.927  0.00  0.00    +0.000 A 
ATOM     21  C   UNL     1       0.492   9.583  20.757  0.00  0.00    +0.000 A 
ATOM     22  C   UNL     1       0.939   9.233  19.480  0.00  0.00    +0.000 A 
ATOM     23  C   UNL     1       0.458   9.930  18.367  0.00  0.00    +0.000 A 
ATOM     24  C   UNL     1      -0.479  10.956  18.538  0.00  0.00    +0.000 A 
ENDBRANCH  17  22
ENDBRANCH  16  17
ENDBRANCH   1  16
TORSDOF 4
ENDMDL
MODEL 9
REMARK VINA RESULT:      -7.5      3.686      7.113
REMARK  Name = 
REMARK  4 active torsions:
REMARK  status: ('A' for Active; 'I' for Inactive)
REMARK    1  A    between atoms: C_5  and  O_6
REMARK    2  A    between atoms: O_6  and  C_7
REMARK    3  A    between atoms: C_7  and  C_8
REMARK    4  A    between atoms: C_11  and  C_12
REMARK                            x       y       z     vdW  Elec       q    Type
REMARK                         _______ _______ _______ _____ _____    ______ ____
ROOT
ATOM      1  C   UNL     1       4.076   4.518  17.516  0.00  0.00    +0.000 A 
ATOM      2  N   UNL     1       3.571   5.694  17.771  0.00  0.00    +0.000 NA
ATOM      3  N   UNL     1       2.949   5.573  18.978  0.00  0.00    +0.000 N 
ATOM      4  C   UNL     1       2.219   6.433  19.768  0.00  0.00    +0.000 A 
ATOM      5  N   UNL     1       1.876   5.757  20.864  0.00  0.00    +0.000 NA
ATOM      6  N   UNL     1       2.360   4.452  20.774  0.00  0.00    +0.000 NA
ATOM      7  C   UNL     1       2.976   4.392  19.633  0.00  0.00    +0.000 A 
ATOM      8  S   UNL     1       3.825   3.225  18.716  0.00  0.00    +0.000 S 
ENDROOT
BRANCH   4   9
ATOM      9  C   UNL     1       1.888   7.818  19.413  0.00  0.00    +0.000 A 
ATOM     10  C   UNL     1       2.150   8.278  18.106  0.00  0.00    +0.000 A 
ATOM     11  C   UNL     1       1.838   9.579  17.709  0.00  0.00    +0.000 A 
ATOM     12  C   UNL     1       1.239  10.449  18.611  0.00  0.00    +0.000 A 
ATOM     13  C   UNL     1       0.970  10.021  19.909  0.00  0.00    +0.000 A 
ATOM     14  C   UNL     1       1.295   8.719  20.314  0.00  0.00    +0.000 A 
ATOM     15 CL   UNL     1       0.971   8.328  21.969  0.00  0.00    +0.000 Cl
ENDBRANCH   4   9
BRANCH   1  16
ATOM     16  C   UNL     1       4.850   4.203  16.260  0.00  0.00    +0.000 C 
BRANCH  16  17
ATOM     17  O   UNL     1       6.197   3.946  16.642  0.00  0.00    +0.000 OA
BRANCH  17  22
ATOM     18  F   UNL     1       8.674   8.321  18.853  0.00  0.00    +0.000 F 
ATOM     19  C   UNL     1       8.082   7.238  18.336  0.00  0.00    +0.000 A 
ATOM     20  C   UNL     1       7.517   7.302  17.069  0.00  0.00    +0.000 A 
ATOM     21  C   UNL     1       6.895   6.169  16.538  0.00  0.00    +0.000 A 
ATOM     22  C   UNL     1       6.855   4.974  17.261  0.00  0.00    +0.000 A 
ATOM     23  C   UNL     1       7.418   4.924  18.540  0.00  0.00    +0.000 A 
ATOM     24  C   UNL     1       8.034   6.061  19.076  0.00  0.00    +0.000 A 
ENDBRANCH  17  22
ENDBRANCH  16  17
ENDBRANCH   1  16
TORSDOF 4
ENDMDL
