MODEL 1
REMARK VINA RESULT:      -5.2      0.000      0.000
REMARK  Name = 
REMARK  4 active torsions:
REMARK  status: ('A' for Active; 'I' for Inactive)
REMARK    1  A    between atoms: C_1  and  C_2
REMARK    2  A    between atoms: C_2  and  C_3
REMARK    3  A    between atoms: C_3  and  C_4
REMARK    4  A    between atoms: N_6  and  C_7
REMARK                            x       y       z     vdW  Elec       q    Type
REMARK                         _______ _______ _______ _____ _____    ______ ____
ROOT
ATOM      1  C   UNL     1       6.394   4.325  17.084  0.00  0.00    +0.000 C 
ATOM      2  O   UNL     1       6.246   4.301  15.865  0.00  0.00    +0.000 OA
ATOM      3  N   UNL     1       5.401   3.996  17.980  0.00  0.00    +0.000 N 
ATOM      4  H   UNL     1       5.526   4.252  18.953  0.00  0.00    +0.000 HD
ENDROOT
BRANCH   3   5
ATOM      5  C   UNL     1       4.095   3.579  17.529  0.00  0.00    +0.000 C 
ATOM      6  C   UNL     1       3.577   2.350  18.267  0.00  0.00    +0.000 C 
ATOM      7  C   UNL     1       2.082   2.368  17.980  0.00  0.00    +0.000 C 
ATOM      8  C   UNL     1       1.707   3.839  17.813  0.00  0.00    +0.000 C 
ATOM      9  C   UNL     1       3.018   4.622  17.803  0.00  0.00    +0.000 C 
ENDBRANCH   3   5
BRANCH   1  10
ATOM     10  C   UNL     1       7.718   4.693  17.719  0.00  0.00    +0.000 C 
BRANCH  10  12
ATOM     11  C   UNL     1       7.544   7.222  17.610  0.00  0.00    +0.000 C 
ATOM     12  C   UNL     1       7.630   5.998  18.511  0.00  0.00    +0.000 C 
ENDBRANCH  10  12
ENDBRANCH   1  10
TORSDOF 3
ENDMDL
MODEL 2
REMARK VINA RESULT:      -5.2      1.397      1.871
REMARK  Name = 
REMARK  4 active torsions:
REMARK  status: ('A' for Active; 'I' for Inactive)
REMARK    1  A    between atoms: C_1  and  C_2
REMARK    2  A    between atoms: C_2  and  C_3
REMARK    3  A    between atoms: C_3  and  C_4
REMARK    4  A    between atoms: N_6  and  C_7
REMARK                            x       y       z     vdW  Elec       q    Type
REMARK                         _______ _______ _______ _____ _____    ______ ____
ROOT
ATOM      1  C   UNL     1       6.012   4.753  18.577  0.00  0.00    +0.000 C 
ATOM      2  O   UNL     1       5.725   5.326  19.625  0.00  0.00    +0.000 OA
ATOM      3  N   UNL     1       5.171   3.871  17.935  0.00  0.00    +0.000 N 
ATOM      4  H   UNL     1       5.558   3.278  17.210  0.00  0.00    +0.000 HD
ENDROOT
BRANCH   3   5
ATOM      5  C   UNL     1       3.862   3.567  18.462  0.00  0.00    +0.000 C 
ATOM      6  C   UNL     1       2.769   4.458  17.884  0.00  0.00    +0.000 C 
ATOM      7  C   UNL     1       1.488   3.699  18.202  0.00  0.00    +0.000 C 
ATOM      8  C   UNL     1       1.870   2.220  18.205  0.00  0.00    +0.000 C 
ATOM      9  C   UNL     1       3.392   2.165  18.093  0.00  0.00    +0.000 C 
ENDBRANCH   3   5
BRANCH   1  10
ATOM     10  C   UNL     1       7.327   4.999  17.868  0.00  0.00    +0.000 C 
BRANCH  10  12
ATOM     11  C   UNL     1       7.628   7.508  17.640  0.00  0.00    +0.000 C 
ATOM     12  C   UNL     1       7.256   6.210  16.937  0.00  0.00    +0.000 C 
ENDBRANCH  10  12
ENDBRANCH   1  10
TORSDOF 3
ENDMDL
MODEL 3
REMARK VINA RESULT:      -5.2      3.487      5.326
REMARK  Name = 
REMARK  4 active torsions:
REMARK  status: ('A' for Active; 'I' for Inactive)
REMARK    1  A    between atoms: C_1  and  C_2
REMARK    2  A    between atoms: C_2  and  C_3
REMARK    3  A    between atoms: C_3  and  C_4
REMARK    4  A    between atoms: N_6  and  C_7
REMARK                            x       y       z     vdW  Elec       q    Type
REMARK                         _______ _______ _______ _____ _____    ______ ____
ROOT
ATOM      1  C   UNL     1       6.855   4.745  14.613  0.00  0.00    +0.000 C 
ATOM      2  O   UNL     1       7.849   5.281  14.129  0.00  0.00    +0.000 OA
ATOM      3  N   UNL     1       6.591   4.705  15.964  0.00  0.00    +0.000 N 
ATOM      4  H   UNL     1       5.882   4.063  16.297  0.00  0.00    +0.000 HD
ENDROOT
BRANCH   3   5
ATOM      5  C   UNL     1       7.483   5.318  16.919  0.00  0.00    +0.000 C 
ATOM      6  C   UNL     1       7.192   6.798  17.138  0.00  0.00    +0.000 C 
ATOM      7  C   UNL     1       7.901   7.109  18.449  0.00  0.00    +0.000 C 
ATOM      8  C   UNL     1       7.876   5.812  19.254  0.00  0.00    +0.000 C 
ATOM      9  C   UNL     1       7.340   4.730  18.318  0.00  0.00    +0.000 C 
ENDBRANCH   3   5
BRANCH   1  10
ATOM     10  C   UNL     1       5.796   4.100  13.745  0.00  0.00    +0.000 C 
BRANCH  10  12
ATOM     11  C   UNL     1       5.582   2.487  11.798  0.00  0.00    +0.000 C 
ATOM     12  C   UNL     1       6.357   3.654  12.394  0.00  0.00    +0.000 C 
ENDBRANCH  10  12
ENDBRANCH   1  10
TORSDOF 3
ENDMDL
MODEL 4
REMARK VINA RESULT:      -5.2      3.490      4.727
REMARK  Name = 
REMARK  4 active torsions:
REMARK  status: ('A' for Active; 'I' for Inactive)
REMARK    1  A    between atoms: C_1  and  C_2
REMARK    2  A    between atoms: C_2  and  C_3
REMARK    3  A    between atoms: C_3  and  C_4
REMARK    4  A    between atoms: N_6  and  C_7
REMARK                            x       y       z     vdW  Elec       q    Type
REMARK                         _______ _______ _______ _____ _____    ______ ____
ROOT
ATOM      1  C   UNL     1       6.847   4.616  13.801  0.00  0.00    +0.000 C 
ATOM      2  O   UNL     1       7.762   5.346  14.176  0.00  0.00    +0.000 OA
ATOM      3  N   UNL     1       5.743   4.320  14.570  0.00  0.00    +0.000 N 
ATOM      4  H   UNL     1       5.153   3.547  14.286  0.00  0.00    +0.000 HD
ENDROOT
BRANCH   3   5
ATOM      5  C   UNL     1       5.583   4.874  15.893  0.00  0.00    +0.000 C 
ATOM      6  C   UNL     1       5.097   6.319  15.875  0.00  0.00    +0.000 C 
ATOM      7  C   UNL     1       4.577   6.535  17.290  0.00  0.00    +0.000 C 
ATOM      8  C   UNL     1       4.079   5.171  17.764  0.00  0.00    +0.000 C 
ATOM      9  C   UNL     1       4.506   4.160  16.702  0.00  0.00    +0.000 C 
ENDBRANCH   3   5
BRANCH   1  10
ATOM     10  C   UNL     1       6.838   3.994  12.421  0.00  0.00    +0.000 C 
BRANCH  10  12
ATOM     11  C   UNL     1       5.744   1.919  11.456  0.00  0.00    +0.000 C 
ATOM     12  C   UNL     1       5.526   3.267  12.129  0.00  0.00    +0.000 C 
ENDBRANCH  10  12
ENDBRANCH   1  10
TORSDOF 3
ENDMDL
MODEL 5
REMARK VINA RESULT:      -5.1      3.144      4.598
REMARK  Name = 
REMARK  4 active torsions:
REMARK  status: ('A' for Active; 'I' for Inactive)
REMARK    1  A    between atoms: C_1  and  C_2
REMARK    2  A    between atoms: C_2  and  C_3
REMARK    3  A    between atoms: C_3  and  C_4
REMARK    4  A    between atoms: N_6  and  C_7
REMARK                            x       y       z     vdW  Elec       q    Type
REMARK                         _______ _______ _______ _____ _____    ______ ____
ROOT
ATOM      1  C   UNL     1       7.502   5.239  16.704  0.00  0.00    +0.000 C 
ATOM      2  O   UNL     1       8.015   4.162  17.002  0.00  0.00    +0.000 OA
ATOM      3  N   UNL     1       7.038   5.540  15.443  0.00  0.00    +0.000 N 
ATOM      4  H   UNL     1       6.838   6.509  15.223  0.00  0.00    +0.000 HD
ENDROOT
BRANCH   3   5
ATOM      5  C   UNL     1       7.117   4.581  14.368  0.00  0.00    +0.000 C 
ATOM      6  C   UNL     1       5.752   4.046  13.950  0.00  0.00    +0.000 C 
ATOM      7  C   UNL     1       6.012   3.445  12.576  0.00  0.00    +0.000 C 
ATOM      8  C   UNL     1       7.149   4.266  11.970  0.00  0.00    +0.000 C 
ATOM      9  C   UNL     1       7.657   5.186  13.078  0.00  0.00    +0.000 C 
ENDBRANCH   3   5
BRANCH   1  10
ATOM     10  C   UNL     1       7.300   6.335  17.729  0.00  0.00    +0.000 C 
BRANCH  10  12
ATOM     11  C   UNL     1       5.643   5.214  19.289  0.00  0.00    +0.000 C 
ATOM     12  C   UNL     1       7.050   5.772  19.128  0.00  0.00    +0.000 C 
ENDBRANCH  10  12
ENDBRANCH   1  10
TORSDOF 3
ENDMDL
MODEL 6
REMARK VINA RESULT:      -5.1      1.488      1.864
REMARK  Name = 
REMARK  4 active torsions:
REMARK  status: ('A' for Active; 'I' for Inactive)
REMARK    1  A    between atoms: C_1  and  C_2
REMARK    2  A    between atoms: C_2  and  C_3
REMARK    3  A    between atoms: C_3  and  C_4
REMARK    4  A    between atoms: N_6  and  C_7
REMARK                            x       y       z     vdW  Elec       q    Type
REMARK                         _______ _______ _______ _____ _____    ______ ____
ROOT
ATOM      1  C   UNL     1       6.319   6.334  17.140  0.00  0.00    +0.000 C 
ATOM      2  O   UNL     1       6.326   6.226  15.916  0.00  0.00    +0.000 OA
ATOM      3  N   UNL     1       5.278   5.913  17.937  0.00  0.00    +0.000 N 
ATOM      4  H   UNL     1       5.247   6.233  18.898  0.00  0.00    +0.000 HD
ENDROOT
BRANCH   3   5
ATOM      5  C   UNL     1       4.105   5.291  17.369  0.00  0.00    +0.000 C 
ATOM      6  C   UNL     1       4.143   3.770  17.450  0.00  0.00    +0.000 C 
ATOM      7  C   UNL     1       2.690   3.367  17.235  0.00  0.00    +0.000 C 
ATOM      8  C   UNL     1       1.853   4.517  17.790  0.00  0.00    +0.000 C 
ATOM      9  C   UNL     1       2.830   5.643  18.125  0.00  0.00    +0.000 C 
ENDBRANCH   3   5
BRANCH   1  10
ATOM     10  C   UNL     1       7.493   6.919  17.896  0.00  0.00    +0.000 C 
BRANCH  10  12
ATOM     11  C   UNL     1       8.612   9.102  18.543  0.00  0.00    +0.000 C 
ATOM     12  C   UNL     1       7.742   8.381  17.524  0.00  0.00    +0.000 C 
ENDBRANCH  10  12
ENDBRANCH   1  10
TORSDOF 3
ENDMDL
MODEL 7
REMARK VINA RESULT:      -5.1      1.987      5.101
REMARK  Name = 
REMARK  4 active torsions:
REMARK  status: ('A' for Active; 'I' for Inactive)
REMARK    1  A    between atoms: C_1  and  C_2
REMARK    2  A    between atoms: C_2  and  C_3
REMARK    3  A    between atoms: C_3  and  C_4
REMARK    4  A    between atoms: N_6  and  C_7
REMARK                            x       y       z     vdW  Elec       q    Type
REMARK                         _______ _______ _______ _____ _____    ______ ____
ROOT
ATOM      1  C   UNL     1       2.855   3.334  17.640  0.00  0.00    +0.000 C 
ATOM      2  O   UNL     1       3.168   2.147  17.699  0.00  0.00    +0.000 OA
ATOM      3  N   UNL     1       3.708   4.328  17.213  0.00  0.00    +0.000 N 
ATOM      4  H   UNL     1       3.456   5.291  17.402  0.00  0.00    +0.000 HD
ENDROOT
BRANCH   3   5
ATOM      5  C   UNL     1       5.053   4.026  16.786  0.00  0.00    +0.000 C 
ATOM      6  C   UNL     1       5.419   4.695  15.466  0.00  0.00    +0.000 C 
ATOM      7  C   UNL     1       6.940   4.629  15.445  0.00  0.00    +0.000 C 
ATOM      8  C   UNL     1       7.380   4.676  16.907  0.00  0.00    +0.000 C 
ATOM      9  C   UNL     1       6.108   4.562  17.746  0.00  0.00    +0.000 C 
ENDBRANCH   3   5
BRANCH   1  10
ATOM     10  C   UNL     1       1.465   3.811  18.006  0.00  0.00    +0.000 C 
BRANCH  10  12
ATOM     11  C   UNL     1       1.099   3.934  20.513  0.00  0.00    +0.000 C 
ATOM     12  C   UNL     1       0.927   3.103  19.250  0.00  0.00    +0.000 C 
ENDBRANCH  10  12
ENDBRANCH   1  10
TORSDOF 3
ENDMDL
MODEL 8
REMARK VINA RESULT:      -5.1      2.682      5.134
REMARK  Name = 
REMARK  4 active torsions:
REMARK  status: ('A' for Active; 'I' for Inactive)
REMARK    1  A    between atoms: C_1  and  C_2
REMARK    2  A    between atoms: C_2  and  C_3
REMARK    3  A    between atoms: C_3  and  C_4
REMARK    4  A    between atoms: N_6  and  C_7
REMARK                            x       y       z     vdW  Elec       q    Type
REMARK                         _______ _______ _______ _____ _____    ______ ____
ROOT
ATOM      1  C   UNL     1       1.607   4.070  18.505  0.00  0.00    +0.000 C 
ATOM      2  O   UNL     1       1.043   3.838  17.439  0.00  0.00    +0.000 OA
ATOM      3  N   UNL     1       2.847   4.663  18.600  0.00  0.00    +0.000 N 
ATOM      4  H   UNL     1       3.336   4.617  19.486  0.00  0.00    +0.000 HD
ENDROOT
BRANCH   3   5
ATOM      5  C   UNL     1       3.572   5.072  17.421  0.00  0.00    +0.000 C 
ATOM      6  C   UNL     1       4.469   6.280  17.665  0.00  0.00    +0.000 C 
ATOM      7  C   UNL     1       5.435   6.249  16.489  0.00  0.00    +0.000 C 
ATOM      8  C   UNL     1       5.585   4.776  16.113  0.00  0.00    +0.000 C 
ATOM      9  C   UNL     1       4.553   4.010  16.938  0.00  0.00    +0.000 C 
ENDBRANCH   3   5
BRANCH   1  10
ATOM     10  C   UNL     1       0.960   3.748  19.836  0.00  0.00    +0.000 C 
BRANCH  10  12
ATOM     11  C   UNL     1       2.347   2.738  21.704  0.00  0.00    +0.000 C 
ATOM     12  C   UNL     1       1.901   4.017  21.010  0.00  0.00    +0.000 C 
ENDBRANCH  10  12
ENDBRANCH   1  10
TORSDOF 3
ENDMDL
MODEL 9
REMARK VINA RESULT:      -5.0      1.710      5.217
REMARK  Name = 
REMARK  4 active torsions:
REMARK  status: ('A' for Active; 'I' for Inactive)
REMARK    1  A    between atoms: C_1  and  C_2
REMARK    2  A    between atoms: C_2  and  C_3
REMARK    3  A    between atoms: C_3  and  C_4
REMARK    4  A    between atoms: N_6  and  C_7
REMARK                            x       y       z     vdW  Elec       q    Type
REMARK                         _______ _______ _______ _____ _____    ______ ____
ROOT
ATOM      1  C   UNL     1       3.280   4.023  17.743  0.00  0.00    +0.000 C 
ATOM      2  O   UNL     1       3.836   2.930  17.676  0.00  0.00    +0.000 OA
ATOM      3  N   UNL     1       3.957   5.222  17.787  0.00  0.00    +0.000 N 
ATOM      4  H   UNL     1       3.447   6.053  18.063  0.00  0.00    +0.000 HD
ENDROOT
BRANCH   3   5
ATOM      5  C   UNL     1       5.399   5.268  17.742  0.00  0.00    +0.000 C 
ATOM      6  C   UNL     1       5.932   6.566  17.145  0.00  0.00    +0.000 C 
ATOM      7  C   UNL     1       7.385   6.596  17.601  0.00  0.00    +0.000 C 
ATOM      8  C   UNL     1       7.416   5.859  18.939  0.00  0.00    +0.000 C 
ATOM      9  C   UNL     1       6.031   5.244  19.129  0.00  0.00    +0.000 C 
ENDBRANCH   3   5
BRANCH   1  10
ATOM     10  C   UNL     1       1.772   4.151  17.749  0.00  0.00    +0.000 C 
BRANCH  10  12
ATOM     11  C   UNL     1       0.954   3.488  20.057  0.00  0.00    +0.000 C 
ATOM     12  C   UNL     1       1.109   3.069  18.602  0.00  0.00    +0.000 C 
ENDBRANCH  10  12
ENDBRANCH   1  10
TORSDOF 3
ENDMDL
