MODEL 1
REMARK VINA RESULT:      -7.4      0.000      0.000
REMARK  Name = 
REMARK  6 active torsions:
REMARK  status: ('A' for Active; 'I' for Inactive)
REMARK    1  A    between atoms: C_1  and  O_2
REMARK    2  A    between atoms: O_2  and  C_3
REMARK    3  A    between atoms: C_8  and  O_9
REMARK    4  A    between atoms: O_9  and  C_10
REMARK    5  A    between atoms: C_11  and  C_12
REMARK    6  A    between atoms: C_20  and  C_22
REMARK                            x       y       z     vdW  Elec       q    Type
REMARK                         _______ _______ _______ _____ _____    ______ ____
ROOT
ATOM      1  C   UNL     1       2.482   7.158  18.743  0.00  0.00    +0.000 A 
ATOM      2  C   UNL     1       2.570   8.320  17.965  0.00  0.00    +0.000 A 
ATOM      3  C   UNL     1       2.026   9.530  18.410  0.00  0.00    +0.000 A 
ATOM      4  C   UNL     1       1.308   9.566  19.612  0.00  0.00    +0.000 A 
ATOM      5  C   UNL     1       1.259   8.411  20.415  0.00  0.00    +0.000 A 
ATOM      6  C   UNL     1       1.864   7.212  20.004  0.00  0.00    +0.000 A 
ATOM      7  C   UNL     1       0.559  10.845  19.996  0.00  0.00    +0.000 C 
ATOM      8  N   UNL     1       1.377  12.036  19.704  0.00  0.00    +0.000 N 
ATOM      9  C   UNL     1       1.282  13.127  20.574  0.00  0.00    +0.000 C 
ATOM     10  O   UNL     1       0.624  13.121  21.614  0.00  0.00    +0.000 OA
ATOM     11  C   UNL     1       2.269  12.028  18.536  0.00  0.00    +0.000 C 
ATOM     12  C   UNL     1       2.168  10.798  17.619  0.00  0.00    +0.000 C 
ENDROOT
BRANCH   9  13
ATOM     13  C   UNL     1       2.012  14.434  20.194  0.00  0.00    +0.000 C 
ATOM     14  O   UNL     1       3.118  14.641  20.689  0.00  0.00    +0.000 OA
ATOM     15  N   UNL     1       1.401  15.284  19.273  0.00  0.00    +0.000 N 
ATOM     16  C   UNL     1       2.143  16.416  18.726  0.00  0.00    +0.000 C 
ATOM     17  C   UNL     1       1.438  17.728  19.059  0.00  0.00    +0.000 C 
ATOM     18  C   UNL     1      -0.025  17.695  18.613  0.00  0.00    +0.000 C 
ATOM     19  C   UNL     1      -0.743  16.452  19.148  0.00  0.00    +0.000 C 
ATOM     20  C   UNL     1       0.019  15.168  18.815  0.00  0.00    +0.000 C 
ENDBRANCH   9  13
BRANCH   7  21
ATOM     21  C   UNL     1      -0.844  10.901  19.354  0.00  0.00    +0.000 A 
ATOM     22  C   UNL     1      -1.173  10.008  18.311  0.00  0.00    +0.000 A 
ATOM     23  C   UNL     1      -2.410  10.074  17.657  0.00  0.00    +0.000 A 
ATOM     24  C   UNL     1      -3.351  11.021  18.052  0.00  0.00    +0.000 A 
ATOM     25 CL   UNL     1      -4.856  11.128  17.225  0.00  0.00    +0.000 Cl
ATOM     26  C   UNL     1      -3.074  11.877  19.108  0.00  0.00    +0.000 A 
ATOM     27  C   UNL     1      -1.833  11.818  19.756  0.00  0.00    +0.000 A 
ENDBRANCH   7  21
BRANCH   1  29
ATOM     28  C   UNL     1       4.325   6.328  17.479  0.00  0.00    +0.000 C 
ATOM     29  O   UNL     1       3.111   6.075  18.179  0.00  0.00    +0.000 OA
ENDBRANCH   1  29
BRANCH   6  30
ATOM     30  O   UNL     1       1.911   6.085  20.777  0.00  0.00    +0.000 OA
ATOM     31  C   UNL     1       1.106   4.972  20.418  0.00  0.00    +0.000 C 
ENDBRANCH   6  30
TORSDOF 4
ENDMDL
MODEL 2
REMARK VINA RESULT:      -7.2      2.809      5.399
REMARK  Name = 
REMARK  6 active torsions:
REMARK  status: ('A' for Active; 'I' for Inactive)
REMARK    1  A    between atoms: C_1  and  O_2
REMARK    2  A    between atoms: O_2  and  C_3
REMARK    3  A    between atoms: C_8  and  O_9
REMARK    4  A    between atoms: O_9  and  C_10
REMARK    5  A    between atoms: C_11  and  C_12
REMARK    6  A    between atoms: C_20  and  C_22
REMARK                            x       y       z     vdW  Elec       q    Type
REMARK                         _______ _______ _______ _____ _____    ______ ____
ROOT
ATOM      1  C   UNL     1      -3.816  11.529  18.316  0.00  0.00    +0.000 A 
ATOM      2  C   UNL     1      -3.175  11.896  19.508  0.00  0.00    +0.000 A 
ATOM      3  C   UNL     1      -1.780  11.987  19.579  0.00  0.00    +0.000 A 
ATOM      4  C   UNL     1      -1.005  11.624  18.471  0.00  0.00    +0.000 A 
ATOM      5  C   UNL     1      -1.649  11.300  17.262  0.00  0.00    +0.000 A 
ATOM      6  C   UNL     1      -3.050  11.275  17.166  0.00  0.00    +0.000 A 
ATOM      7  C   UNL     1       0.517  11.545  18.618  0.00  0.00    +0.000 C 
ATOM      8  N   UNL     1       1.023  12.682  19.409  0.00  0.00    +0.000 N 
ATOM      9  C   UNL     1       2.268  13.219  19.063  0.00  0.00    +0.000 C 
ATOM     10  O   UNL     1       2.925  12.857  18.087  0.00  0.00    +0.000 OA
ATOM     11  C   UNL     1       0.205  13.218  20.505  0.00  0.00    +0.000 C 
ATOM     12  C   UNL     1      -1.082  12.441  20.828  0.00  0.00    +0.000 C 
ENDROOT
BRANCH   9  13
ATOM     13  C   UNL     1       2.878  14.303  19.978  0.00  0.00    +0.000 C 
ATOM     14  O   UNL     1       3.511  13.934  20.965  0.00  0.00    +0.000 OA
ATOM     15  N   UNL     1       2.719  15.639  19.610  0.00  0.00    +0.000 N 
ATOM     16  C   UNL     1       3.454  16.681  20.321  0.00  0.00    +0.000 C 
ATOM     17  C   UNL     1       2.487  17.671  20.964  0.00  0.00    +0.000 C 
ATOM     18  C   UNL     1       1.502  18.226  19.934  0.00  0.00    +0.000 C 
ATOM     19  C   UNL     1       0.811  17.099  19.160  0.00  0.00    +0.000 C 
ATOM     20  C   UNL     1       1.821  16.118  18.563  0.00  0.00    +0.000 C 
ENDBRANCH   9  13
BRANCH   7  21
ATOM     21  C   UNL     1       0.968  10.174  19.168  0.00  0.00    +0.000 A 
ATOM     22  C   UNL     1       1.669   9.280  18.330  0.00  0.00    +0.000 A 
ATOM     23  C   UNL     1       2.034   8.002  18.772  0.00  0.00    +0.000 A 
ATOM     24  C   UNL     1       1.725   7.604  20.069  0.00  0.00    +0.000 A 
ATOM     25 CL   UNL     1       2.139   6.021  20.600  0.00  0.00    +0.000 Cl
ATOM     26  C   UNL     1       1.081   8.482  20.930  0.00  0.00    +0.000 A 
ATOM     27  C   UNL     1       0.706   9.757  20.486  0.00  0.00    +0.000 A 
ENDBRANCH   7  21
BRANCH   1  29
ATOM     28  C   UNL     1      -5.775  12.615  19.132  0.00  0.00    +0.000 C 
ATOM     29  O   UNL     1      -5.186  11.538  18.409  0.00  0.00    +0.000 OA
ENDBRANCH   1  29
BRANCH   6  30
ATOM     30  O   UNL     1      -3.725  11.042  16.000  0.00  0.00    +0.000 OA
ATOM     31  C   UNL     1      -3.069  10.338  14.956  0.00  0.00    +0.000 C 
ENDBRANCH   6  30
TORSDOF 4
ENDMDL
MODEL 3
REMARK VINA RESULT:      -6.9      3.138      5.511
REMARK  Name = 
REMARK  6 active torsions:
REMARK  status: ('A' for Active; 'I' for Inactive)
REMARK    1  A    between atoms: C_1  and  O_2
REMARK    2  A    between atoms: O_2  and  C_3
REMARK    3  A    between atoms: C_8  and  O_9
REMARK    4  A    between atoms: O_9  and  C_10
REMARK    5  A    between atoms: C_11  and  C_12
REMARK    6  A    between atoms: C_20  and  C_22
REMARK                            x       y       z     vdW  Elec       q    Type
REMARK                         _______ _______ _______ _____ _____    ______ ____
ROOT
ATOM      1  C   UNL     1       2.282   7.266  19.781  0.00  0.00    +0.000 A 
ATOM      2  C   UNL     1       1.615   8.000  20.772  0.00  0.00    +0.000 A 
ATOM      3  C   UNL     1       0.967   9.202  20.468  0.00  0.00    +0.000 A 
ATOM      4  C   UNL     1       1.054   9.727  19.172  0.00  0.00    +0.000 A 
ATOM      5  C   UNL     1       1.683   8.968  18.167  0.00  0.00    +0.000 A 
ATOM      6  C   UNL     1       2.275   7.728  18.453  0.00  0.00    +0.000 A 
ATOM      7  C   UNL     1       0.504  11.129  18.897  0.00  0.00    +0.000 C 
ATOM      8  N   UNL     1      -0.787  11.327  19.582  0.00  0.00    +0.000 N 
ATOM      9  C   UNL     1      -1.757  12.105  18.943  0.00  0.00    +0.000 C 
ATOM     10  O   UNL     1      -1.631  12.562  17.806  0.00  0.00    +0.000 OA
ATOM     11  C   UNL     1      -1.014  10.690  20.888  0.00  0.00    +0.000 C 
ATOM     12  C   UNL     1       0.194   9.966  21.503  0.00  0.00    +0.000 C 
ENDROOT
BRANCH   9  13
ATOM     13  C   UNL     1      -3.049  12.447  19.716  0.00  0.00    +0.000 C 
ATOM     14  O   UNL     1      -2.936  12.969  20.823  0.00  0.00    +0.000 OA
ATOM     15  N   UNL     1      -4.272  12.191  19.097  0.00  0.00    +0.000 N 
ATOM     16  C   UNL     1      -5.507  12.690  19.695  0.00  0.00    +0.000 C 
ATOM     17  C   UNL     1      -6.446  11.533  20.027  0.00  0.00    +0.000 C 
ATOM     18  C   UNL     1      -6.685  10.651  18.800  0.00  0.00    +0.000 C 
ATOM     19  C   UNL     1      -5.363  10.213  18.162  0.00  0.00    +0.000 C 
ATOM     20  C   UNL     1      -4.447  11.405  17.879  0.00  0.00    +0.000 C 
ENDBRANCH   9  13
BRANCH   7  21
ATOM     21  C   UNL     1       1.540  12.225  19.228  0.00  0.00    +0.000 A 
ATOM     22  C   UNL     1       2.383  12.723  18.210  0.00  0.00    +0.000 A 
ATOM     23  C   UNL     1       3.380  13.666  18.486  0.00  0.00    +0.000 A 
ATOM     24  C   UNL     1       3.537  14.147  19.782  0.00  0.00    +0.000 A 
ATOM     25 CL   UNL     1       4.787  15.277  20.129  0.00  0.00    +0.000 Cl
ATOM     26  C   UNL     1       2.690  13.714  20.792  0.00  0.00    +0.000 A 
ATOM     27  C   UNL     1       1.699  12.762  20.519  0.00  0.00    +0.000 A 
ENDBRANCH   7  21
BRANCH   1  29
ATOM     28  C   UNL     1       1.903   5.060  20.602  0.00  0.00    +0.000 C 
ATOM     29  O   UNL     1       2.819   6.089  20.242  0.00  0.00    +0.000 OA
ENDBRANCH   1  29
BRANCH   6  30
ATOM     30  O   UNL     1       2.832   6.918  17.503  0.00  0.00    +0.000 OA
ATOM     31  C   UNL     1       4.237   6.955  17.307  0.00  0.00    +0.000 C 
ENDBRANCH   6  30
TORSDOF 4
ENDMDL
MODEL 4
REMARK VINA RESULT:      -6.9      3.073      4.901
REMARK  Name = 
REMARK  6 active torsions:
REMARK  status: ('A' for Active; 'I' for Inactive)
REMARK    1  A    between atoms: C_1  and  O_2
REMARK    2  A    between atoms: O_2  and  C_3
REMARK    3  A    between atoms: C_8  and  O_9
REMARK    4  A    between atoms: O_9  and  C_10
REMARK    5  A    between atoms: C_11  and  C_12
REMARK    6  A    between atoms: C_20  and  C_22
REMARK                            x       y       z     vdW  Elec       q    Type
REMARK                         _______ _______ _______ _____ _____    ______ ____
ROOT
ATOM      1  C   UNL     1       2.523   7.182  19.470  0.00  0.00    +0.000 A 
ATOM      2  C   UNL     1       1.746   7.829  20.441  0.00  0.00    +0.000 A 
ATOM      3  C   UNL     1       1.057   9.011  20.146  0.00  0.00    +0.000 A 
ATOM      4  C   UNL     1       1.212   9.606  18.888  0.00  0.00    +0.000 A 
ATOM      5  C   UNL     1       1.954   8.934  17.899  0.00  0.00    +0.000 A 
ATOM      6  C   UNL     1       2.590   7.711  18.170  0.00  0.00    +0.000 A 
ATOM      7  C   UNL     1       0.608  10.991  18.639  0.00  0.00    +0.000 C 
ATOM      8  N   UNL     1      -0.738  11.088  19.232  0.00  0.00    +0.000 N 
ATOM      9  C   UNL     1      -1.699  11.848  18.558  0.00  0.00    +0.000 C 
ATOM     10  O   UNL     1      -1.514  12.370  17.458  0.00  0.00    +0.000 OA
ATOM     11  C   UNL     1      -1.027  10.374  20.484  0.00  0.00    +0.000 C 
ATOM     12  C   UNL     1       0.170   9.681  21.155  0.00  0.00    +0.000 C 
ENDROOT
BRANCH   9  13
ATOM     13  C   UNL     1      -3.062  12.085  19.245  0.00  0.00    +0.000 C 
ATOM     14  O   UNL     1      -4.035  11.465  18.822  0.00  0.00    +0.000 OA
ATOM     15  N   UNL     1      -3.105  12.951  20.337  0.00  0.00    +0.000 N 
ATOM     16  C   UNL     1      -4.317  13.041  21.145  0.00  0.00    +0.000 C 
ATOM     17  C   UNL     1      -4.865  14.465  21.129  0.00  0.00    +0.000 C 
ATOM     18  C   UNL     1      -3.791  15.472  21.542  0.00  0.00    +0.000 C 
ATOM     19  C   UNL     1      -2.512  15.291  20.720  0.00  0.00    +0.000 C 
ATOM     20  C   UNL     1      -2.021  13.843  20.742  0.00  0.00    +0.000 C 
ENDBRANCH   9  13
BRANCH   7  21
ATOM     21  C   UNL     1       1.557  12.120  19.101  0.00  0.00    +0.000 A 
ATOM     22  C   UNL     1       2.438  12.717  18.173  0.00  0.00    +0.000 A 
ATOM     23  C   UNL     1       3.360  13.695  18.569  0.00  0.00    +0.000 A 
ATOM     24  C   UNL     1       3.400  14.109  19.897  0.00  0.00    +0.000 A 
ATOM     25 CL   UNL     1       4.558  15.281  20.392  0.00  0.00    +0.000 Cl
ATOM     26  C   UNL     1       2.512  13.575  20.819  0.00  0.00    +0.000 A 
ATOM     27  C   UNL     1       1.596  12.590  20.426  0.00  0.00    +0.000 A 
ENDBRANCH   7  21
BRANCH   1  29
ATOM     28  C   UNL     1       2.224   5.089  20.572  0.00  0.00    +0.000 C 
ATOM     29  O   UNL     1       3.087   6.012  19.914  0.00  0.00    +0.000 OA
ENDBRANCH   1  29
BRANCH   6  30
ATOM     30  O   UNL     1       3.258   6.980  17.227  0.00  0.00    +0.000 OA
ATOM     31  C   UNL     1       4.677   6.992  17.229  0.00  0.00    +0.000 C 
ENDBRANCH   6  30
TORSDOF 4
ENDMDL
MODEL 5
REMARK VINA RESULT:      -6.8      3.238      5.839
REMARK  Name = 
REMARK  6 active torsions:
REMARK  status: ('A' for Active; 'I' for Inactive)
REMARK    1  A    between atoms: C_1  and  O_2
REMARK    2  A    between atoms: O_2  and  C_3
REMARK    3  A    between atoms: C_8  and  O_9
REMARK    4  A    between atoms: O_9  and  C_10
REMARK    5  A    between atoms: C_11  and  C_12
REMARK    6  A    between atoms: C_20  and  C_22
REMARK                            x       y       z     vdW  Elec       q    Type
REMARK                         _______ _______ _______ _____ _____    ______ ____
ROOT
ATOM      1  C   UNL     1      -4.632  11.324  17.773  0.00  0.00    +0.000 A 
ATOM      2  C   UNL     1      -4.188  11.858  18.991  0.00  0.00    +0.000 A 
ATOM      3  C   UNL     1      -2.844  12.192  19.186  0.00  0.00    +0.000 A 
ATOM      4  C   UNL     1      -1.909  11.913  18.181  0.00  0.00    +0.000 A 
ATOM      5  C   UNL     1      -2.361  11.421  16.943  0.00  0.00    +0.000 A 
ATOM      6  C   UNL     1      -3.720  11.149  16.719  0.00  0.00    +0.000 A 
ATOM      7  C   UNL     1      -0.418  12.107  18.475  0.00  0.00    +0.000 C 
ATOM      8  N   UNL     1      -0.193  13.353  19.230  0.00  0.00    +0.000 N 
ATOM      9  C   UNL     1       0.972  14.080  18.966  0.00  0.00    +0.000 C 
ATOM     10  O   UNL     1       1.778  13.787  18.082  0.00  0.00    +0.000 OA
ATOM     11  C   UNL     1      -1.199  13.795  20.206  0.00  0.00    +0.000 C 
ATOM     12  C   UNL     1      -2.364  12.825  20.460  0.00  0.00    +0.000 C 
ENDROOT
BRANCH   9  13
ATOM     13  C   UNL     1       1.295  15.299  19.857  0.00  0.00    +0.000 C 
ATOM     14  O   UNL     1       0.854  16.394  19.516  0.00  0.00    +0.000 OA
ATOM     15  N   UNL     1       2.027  15.084  21.024  0.00  0.00    +0.000 N 
ATOM     16  C   UNL     1       2.172  16.161  21.999  0.00  0.00    +0.000 C 
ATOM     17  C   UNL     1       3.645  16.504  22.200  0.00  0.00    +0.000 C 
ATOM     18  C   UNL     1       4.457  15.257  22.556  0.00  0.00    +0.000 C 
ATOM     19  C   UNL     1       4.215  14.129  21.549  0.00  0.00    +0.000 C 
ATOM     20  C   UNL     1       2.724  13.845  21.360  0.00  0.00    +0.000 C 
ENDBRANCH   9  13
BRANCH   7  21
ATOM     21  C   UNL     1       0.197  10.865  19.157  0.00  0.00    +0.000 A 
ATOM     22  C   UNL     1       1.047  10.011  18.421  0.00  0.00    +0.000 A 
ATOM     23  C   UNL     1       1.568   8.840  18.985  0.00  0.00    +0.000 A 
ATOM     24  C   UNL     1       1.267   8.513  20.304  0.00  0.00    +0.000 A 
ATOM     25 CL   UNL     1       1.875   7.055  20.985  0.00  0.00    +0.000 Cl
ATOM     26  C   UNL     1       0.475   9.361  21.065  0.00  0.00    +0.000 A 
ATOM     27  C   UNL     1      -0.055  10.528  20.499  0.00  0.00    +0.000 A 
ENDBRANCH   7  21
BRANCH   1  29
ATOM     28  C   UNL     1      -6.553  10.391  18.835  0.00  0.00    +0.000 C 
ATOM     29  O   UNL     1      -5.987  11.101  17.737  0.00  0.00    +0.000 OA
ENDBRANCH   1  29
BRANCH   6  30
ATOM     30  O   UNL     1      -4.222  10.742  15.514  0.00  0.00    +0.000 OA
ATOM     31  C   UNL     1      -3.334  10.205  14.546  0.00  0.00    +0.000 C 
ENDBRANCH   6  30
TORSDOF 4
ENDMDL
MODEL 6
REMARK VINA RESULT:      -6.7      0.995      1.015
REMARK  Name = 
REMARK  6 active torsions:
REMARK  status: ('A' for Active; 'I' for Inactive)
REMARK    1  A    between atoms: C_1  and  O_2
REMARK    2  A    between atoms: O_2  and  C_3
REMARK    3  A    between atoms: C_8  and  O_9
REMARK    4  A    between atoms: O_9  and  C_10
REMARK    5  A    between atoms: C_11  and  C_12
REMARK    6  A    between atoms: C_20  and  C_22
REMARK                            x       y       z     vdW  Elec       q    Type
REMARK                         _______ _______ _______ _____ _____    ______ ____
ROOT
ATOM      1  C   UNL     1       2.906   7.591  17.944  0.00  0.00    +0.000 A 
ATOM      2  C   UNL     1       2.945   8.931  17.534  0.00  0.00    +0.000 A 
ATOM      3  C   UNL     1       2.213   9.915  18.208  0.00  0.00    +0.000 A 
ATOM      4  C   UNL     1       1.361   9.546  19.256  0.00  0.00    +0.000 A 
ATOM      5  C   UNL     1       1.357   8.210  19.698  0.00  0.00    +0.000 A 
ATOM      6  C   UNL     1       2.143   7.232  19.069  0.00  0.00    +0.000 A 
ATOM      7  C   UNL     1       0.425  10.597  19.861  0.00  0.00    +0.000 C 
ATOM      8  N   UNL     1       1.125  11.884  20.027  0.00  0.00    +0.000 N 
ATOM      9  C   UNL     1       0.800  12.670  21.137  0.00  0.00    +0.000 C 
ATOM     10  O   UNL     1       0.030  12.313  22.029  0.00  0.00    +0.000 OA
ATOM     11  C   UNL     1       2.141  12.283  19.043  0.00  0.00    +0.000 C 
ATOM     12  C   UNL     1       2.295  11.363  17.822  0.00  0.00    +0.000 C 
ENDROOT
BRANCH   9  13
ATOM     13  C   UNL     1       1.409  14.085  21.238  0.00  0.00    +0.000 C 
ATOM     14  O   UNL     1       2.378  14.243  21.977  0.00  0.00    +0.000 OA
ATOM     15  N   UNL     1       0.857  15.095  20.451  0.00  0.00    +0.000 N 
ATOM     16  C   UNL     1       1.528  16.388  20.353  0.00  0.00    +0.000 C 
ATOM     17  C   UNL     1       0.613  17.504  20.850  0.00  0.00    +0.000 C 
ATOM     18  C   UNL     1      -0.736  17.470  20.131  0.00  0.00    +0.000 C 
ATOM     19  C   UNL     1      -1.367  16.076  20.195  0.00  0.00    +0.000 C 
ATOM     20  C   UNL     1      -0.401  14.992  19.716  0.00  0.00    +0.000 C 
ENDBRANCH   9  13
BRANCH   7  21
ATOM     21  C   UNL     1      -0.890  10.720  19.061  0.00  0.00    +0.000 A 
ATOM     22  C   UNL     1      -1.076   9.944  17.896  0.00  0.00    +0.000 A 
ATOM     23  C   UNL     1      -2.226  10.079  17.107  0.00  0.00    +0.000 A 
ATOM     24  C   UNL     1      -3.221  10.976  17.483  0.00  0.00    +0.000 A 
ATOM     25 CL   UNL     1      -4.615  11.170  16.494  0.00  0.00    +0.000 Cl
ATOM     26  C   UNL     1      -3.087  11.714  18.650  0.00  0.00    +0.000 A 
ATOM     27  C   UNL     1      -1.933  11.588  19.434  0.00  0.00    +0.000 A 
ENDBRANCH   7  21
BRANCH   1  29
ATOM     28  C   UNL     1       5.067   6.629  17.647  0.00  0.00    +0.000 C 
ATOM     29  O   UNL     1       3.721   6.770  17.204  0.00  0.00    +0.000 OA
ENDBRANCH   1  29
BRANCH   6  30
ATOM     30  O   UNL     1       2.234   5.938  19.503  0.00  0.00    +0.000 OA
ATOM     31  C   UNL     1       1.820   5.628  20.825  0.00  0.00    +0.000 C 
ENDBRANCH   6  30
TORSDOF 4
ENDMDL
MODEL 7
REMARK VINA RESULT:      -6.4      3.721      6.206
REMARK  Name = 
REMARK  6 active torsions:
REMARK  status: ('A' for Active; 'I' for Inactive)
REMARK    1  A    between atoms: C_1  and  O_2
REMARK    2  A    between atoms: O_2  and  C_3
REMARK    3  A    between atoms: C_8  and  O_9
REMARK    4  A    between atoms: O_9  and  C_10
REMARK    5  A    between atoms: C_11  and  C_12
REMARK    6  A    between atoms: C_20  and  C_22
REMARK                            x       y       z     vdW  Elec       q    Type
REMARK                         _______ _______ _______ _____ _____    ______ ____
ROOT
ATOM      1  C   UNL     1      -4.155  12.582  22.609  0.00  0.00    +0.000 A 
ATOM      2  C   UNL     1      -2.826  12.758  23.019  0.00  0.00    +0.000 A 
ATOM      3  C   UNL     1      -1.853  13.233  22.133  0.00  0.00    +0.000 A 
ATOM      4  C   UNL     1      -2.189  13.457  20.792  0.00  0.00    +0.000 A 
ATOM      5  C   UNL     1      -3.532  13.324  20.391  0.00  0.00    +0.000 A 
ATOM      6  C   UNL     1      -4.526  12.914  21.295  0.00  0.00    +0.000 A 
ATOM      7  C   UNL     1      -1.080  13.793  19.791  0.00  0.00    +0.000 C 
ATOM      8  N   UNL     1      -0.120  14.746  20.378  0.00  0.00    +0.000 N 
ATOM      9  C   UNL     1       0.452  15.705  19.535  0.00  0.00    +0.000 C 
ATOM     10  O   UNL     1       0.138  15.855  18.354  0.00  0.00    +0.000 OA
ATOM     11  C   UNL     1       0.183  14.671  21.814  0.00  0.00    +0.000 C 
ATOM     12  C   UNL     1      -0.441  13.489  22.573  0.00  0.00    +0.000 C 
ENDROOT
BRANCH   9  13
ATOM     13  C   UNL     1       1.572  16.604  20.101  0.00  0.00    +0.000 C 
ATOM     14  O   UNL     1       1.247  17.672  20.616  0.00  0.00    +0.000 OA
ATOM     15  N   UNL     1       2.884  16.136  20.041  0.00  0.00    +0.000 N 
ATOM     16  C   UNL     1       3.943  16.850  20.749  0.00  0.00    +0.000 C 
ATOM     17  C   UNL     1       5.013  17.326  19.771  0.00  0.00    +0.000 C 
ATOM     18  C   UNL     1       5.534  16.167  18.919  0.00  0.00    +0.000 C 
ATOM     19  C   UNL     1       4.384  15.402  18.257  0.00  0.00    +0.000 C 
ATOM     20  C   UNL     1       3.325  14.975  19.274  0.00  0.00    +0.000 C 
ENDBRANCH   9  13
BRANCH   7  21
ATOM     21  C   UNL     1      -0.407  12.520  19.233  0.00  0.00    +0.000 A 
ATOM     22  C   UNL     1      -1.205  11.448  18.779  0.00  0.00    +0.000 A 
ATOM     23  C   UNL     1      -0.631  10.251  18.331  0.00  0.00    +0.000 A 
ATOM     24  C   UNL     1       0.754  10.114  18.308  0.00  0.00    +0.000 A 
ATOM     25 CL   UNL     1       1.459   8.631  17.795  0.00  0.00    +0.000 Cl
ATOM     26  C   UNL     1       1.563  11.171  18.701  0.00  0.00    +0.000 A 
ATOM     27  C   UNL     1       0.990  12.365  19.159  0.00  0.00    +0.000 A 
ENDBRANCH   7  21
BRANCH   1  29
ATOM     28  C   UNL     1      -4.560  12.412  24.952  0.00  0.00    +0.000 C 
ATOM     29  O   UNL     1      -4.985  12.157  23.617  0.00  0.00    +0.000 OA
ENDBRANCH   1  29
BRANCH   6  30
ATOM     30  O   UNL     1      -5.854  12.842  20.978  0.00  0.00    +0.000 OA
ATOM     31  C   UNL     1      -6.337  11.690  20.305  0.00  0.00    +0.000 C 
ENDBRANCH   6  30
TORSDOF 4
ENDMDL
MODEL 8
REMARK VINA RESULT:      -6.3      1.415      2.191
REMARK  Name = 
REMARK  6 active torsions:
REMARK  status: ('A' for Active; 'I' for Inactive)
REMARK    1  A    between atoms: C_1  and  O_2
REMARK    2  A    between atoms: O_2  and  C_3
REMARK    3  A    between atoms: C_8  and  O_9
REMARK    4  A    between atoms: O_9  and  C_10
REMARK    5  A    between atoms: C_11  and  C_12
REMARK    6  A    between atoms: C_20  and  C_22
REMARK                            x       y       z     vdW  Elec       q    Type
REMARK                         _______ _______ _______ _____ _____    ______ ____
ROOT
ATOM      1  C   UNL     1       2.495   7.336  18.759  0.00  0.00    +0.000 A 
ATOM      2  C   UNL     1       2.552   8.489  17.964  0.00  0.00    +0.000 A 
ATOM      3  C   UNL     1       1.993   9.695  18.401  0.00  0.00    +0.000 A 
ATOM      4  C   UNL     1       1.290   9.734  19.611  0.00  0.00    +0.000 A 
ATOM      5  C   UNL     1       1.272   8.590  20.430  0.00  0.00    +0.000 A 
ATOM      6  C   UNL     1       1.892   7.396  20.027  0.00  0.00    +0.000 A 
ATOM      7  C   UNL     1       0.523  11.005  19.988  0.00  0.00    +0.000 C 
ATOM      8  N   UNL     1       1.316  12.207  19.670  0.00  0.00    +0.000 N 
ATOM      9  C   UNL     1       1.213  13.308  20.526  0.00  0.00    +0.000 C 
ATOM     10  O   UNL     1       0.568  13.303  21.575  0.00  0.00    +0.000 OA
ATOM     11  C   UNL     1       2.193  12.199  18.490  0.00  0.00    +0.000 C 
ATOM     12  C   UNL     1       2.102  10.955  17.591  0.00  0.00    +0.000 C 
ENDROOT
BRANCH   9  13
ATOM     13  C   UNL     1       1.915  14.621  20.120  0.00  0.00    +0.000 C 
ATOM     14  O   UNL     1       1.481  15.227  19.142  0.00  0.00    +0.000 OA
ATOM     15  N   UNL     1       2.971  15.074  20.910  0.00  0.00    +0.000 N 
ATOM     16  C   UNL     1       3.522  16.408  20.691  0.00  0.00    +0.000 C 
ATOM     17  C   UNL     1       5.002  16.322  20.332  0.00  0.00    +0.000 C 
ATOM     18  C   UNL     1       5.776  15.515  21.376  0.00  0.00    +0.000 C 
ATOM     19  C   UNL     1       5.119  14.155  21.628  0.00  0.00    +0.000 C 
ATOM     20  C   UNL     1       3.631  14.293  21.953  0.00  0.00    +0.000 C 
ENDBRANCH   9  13
BRANCH   7  21
ATOM     21  C   UNL     1      -0.889  11.028  19.363  0.00  0.00    +0.000 A 
ATOM     22  C   UNL     1      -1.196  10.158  18.294  0.00  0.00    +0.000 A 
ATOM     23  C   UNL     1      -2.443  10.198  17.657  0.00  0.00    +0.000 A 
ATOM     24  C   UNL     1      -3.414  11.093  18.094  0.00  0.00    +0.000 A 
ATOM     25 CL   UNL     1      -4.932  11.170  17.287  0.00  0.00    +0.000 Cl
ATOM     26  C   UNL     1      -3.157  11.924  19.175  0.00  0.00    +0.000 A 
ATOM     27  C   UNL     1      -1.907  11.892  19.807  0.00  0.00    +0.000 A 
ENDBRANCH   7  21
BRANCH   1  29
ATOM     28  C   UNL     1       4.282   6.531  17.402  0.00  0.00    +0.000 C 
ATOM     29  O   UNL     1       3.136   6.257  18.201  0.00  0.00    +0.000 OA
ENDBRANCH   1  29
BRANCH   6  30
ATOM     30  O   UNL     1       1.969   6.280  20.813  0.00  0.00    +0.000 OA
ATOM     31  C   UNL     1       1.207   5.137  20.459  0.00  0.00    +0.000 C 
ENDBRANCH   6  30
TORSDOF 4
ENDMDL
MODEL 9
REMARK VINA RESULT:      -6.3      4.022      5.978
REMARK  Name = 
REMARK  6 active torsions:
REMARK  status: ('A' for Active; 'I' for Inactive)
REMARK    1  A    between atoms: C_1  and  O_2
REMARK    2  A    between atoms: O_2  and  C_3
REMARK    3  A    between atoms: C_8  and  O_9
REMARK    4  A    between atoms: O_9  and  C_10
REMARK    5  A    between atoms: C_11  and  C_12
REMARK    6  A    between atoms: C_20  and  C_22
REMARK                            x       y       z     vdW  Elec       q    Type
REMARK                         _______ _______ _______ _____ _____    ______ ____
ROOT
ATOM      1  C   UNL     1       1.191  12.375  21.000  0.00  0.00    +0.000 A 
ATOM      2  C   UNL     1       0.427  13.436  20.495  0.00  0.00    +0.000 A 
ATOM      3  C   UNL     1      -0.960  13.322  20.348  0.00  0.00    +0.000 A 
ATOM      4  C   UNL     1      -1.588  12.102  20.629  0.00  0.00    +0.000 A 
ATOM      5  C   UNL     1      -0.829  11.052  21.179  0.00  0.00    +0.000 A 
ATOM      6  C   UNL     1       0.553  11.186  21.394  0.00  0.00    +0.000 A 
ATOM      7  C   UNL     1      -3.070  11.930  20.287  0.00  0.00    +0.000 C 
ATOM      8  N   UNL     1      -3.832  13.140  20.647  0.00  0.00    +0.000 N 
ATOM      9  C   UNL     1      -5.138  12.976  21.122  0.00  0.00    +0.000 C 
ATOM     10  O   UNL     1      -5.657  11.881  21.338  0.00  0.00    +0.000 OA
ATOM     11  C   UNL     1      -3.195  14.458  20.516  0.00  0.00    +0.000 C 
ATOM     12  C   UNL     1      -1.800  14.471  19.871  0.00  0.00    +0.000 C 
ENDROOT
BRANCH   9  13
ATOM     13  C   UNL     1      -5.997  14.238  21.353  0.00  0.00    +0.000 C 
ATOM     14  O   UNL     1      -6.645  14.675  20.405  0.00  0.00    +0.000 OA
ATOM     15  N   UNL     1      -6.030  14.784  22.636  0.00  0.00    +0.000 N 
ATOM     16  C   UNL     1      -6.988  15.840  22.951  0.00  0.00    +0.000 C 
ATOM     17  C   UNL     1      -6.259  17.105  23.398  0.00  0.00    +0.000 C 
ATOM     18  C   UNL     1      -5.293  16.806  24.546  0.00  0.00    +0.000 C 
ATOM     19  C   UNL     1      -4.360  15.642  24.200  0.00  0.00    +0.000 C 
ATOM     20  C   UNL     1      -5.135  14.412  23.728  0.00  0.00    +0.000 C 
ENDBRANCH   9  13
BRANCH   7  21
ATOM     21  C   UNL     1      -3.272  11.502  18.817  0.00  0.00    +0.000 A 
ATOM     22  C   UNL     1      -2.289  10.718  18.174  0.00  0.00    +0.000 A 
ATOM     23  C   UNL     1      -2.404  10.368  16.823  0.00  0.00    +0.000 A 
ATOM     24  C   UNL     1      -3.517  10.777  16.095  0.00  0.00    +0.000 A 
ATOM     25 CL   UNL     1      -3.641  10.381  14.426  0.00  0.00    +0.000 Cl
ATOM     26  C   UNL     1      -4.523  11.505  16.715  0.00  0.00    +0.000 A 
ATOM     27  C   UNL     1      -4.404  11.864  18.064  0.00  0.00    +0.000 A 
ENDBRANCH   7  21
BRANCH   1  29
ATOM     28  C   UNL     1       2.923  13.998  20.782  0.00  0.00    +0.000 C 
ATOM     29  O   UNL     1       2.525  12.674  21.125  0.00  0.00    +0.000 OA
ENDBRANCH   1  29
BRANCH   6  30
ATOM     30  O   UNL     1       1.322  10.228  21.993  0.00  0.00    +0.000 OA
ATOM     31  C   UNL     1       1.158   8.873  21.604  0.00  0.00    +0.000 C 
ENDBRANCH   6  30
TORSDOF 4
ENDMDL
