MODEL 1
REMARK VINA RESULT:      -8.1      0.000      0.000
REMARK  Name = 
REMARK  2 active torsions:
REMARK  status: ('A' for Active; 'I' for Inactive)
REMARK    1  A    between atoms: C_1  and  O_2
REMARK    2  A    between atoms: O_2  and  C_3
REMARK                            x       y       z     vdW  Elec       q    Type
REMARK                         _______ _______ _______ _____ _____    ______ ____
ROOT
ATOM      1  C   UNL     1       5.740   4.490  15.361  0.00  0.00    +0.000 A 
ATOM      2  C   UNL     1       5.694   5.866  15.203  0.00  0.00    +0.000 A 
ATOM      3  C   UNL     1       4.955   6.629  16.102  0.00  0.00    +0.000 A 
ATOM      4  C   UNL     1       4.231   6.032  17.145  0.00  0.00    +0.000 A 
ATOM      5  C   UNL     1       3.490   6.840  18.002  0.00  0.00    +0.000 A 
ATOM      6  C   UNL     1       2.737   6.280  19.028  0.00  0.00    +0.000 A 
ATOM      7  C   UNL     1       2.691   4.916  19.243  0.00  0.00    +0.000 A 
ATOM      8  N   UNL     1       1.899   4.509  20.240  0.00  0.00    +0.000 NA
ATOM      9  C   UNL     1       1.813   3.207  20.468  0.00  0.00    +0.000 A 
ATOM     10  N   UNL     1       0.955   2.785  21.462  0.00  0.00    +0.000 N 
ATOM     11  N   UNL     1       2.502   2.282  19.816  0.00  0.00    +0.000 NA
ATOM     12  C   UNL     1       3.286   2.704  18.810  0.00  0.00    +0.000 A 
ATOM     13  N   UNL     1       3.928   1.641  18.168  0.00  0.00    +0.000 N 
ATOM     14  C   UNL     1       3.440   4.057  18.423  0.00  0.00    +0.000 A 
ATOM     15  C   UNL     1       4.237   4.627  17.334  0.00  0.00    +0.000 A 
ATOM     16  C   UNL     1       5.033   3.893  16.412  0.00  0.00    +0.000 A 
ATOM     17  H   UNL     1       0.810   3.525  22.132  0.00  0.00    +0.000 HD
ATOM     18  H   UNL     1       1.247   1.884  21.811  0.00  0.00    +0.000 HD
ATOM     19  H   UNL     1       3.640   0.799  18.663  0.00  0.00    +0.000 HD
ATOM     20  H   UNL     1       3.634   1.590  17.199  0.00  0.00    +0.000 HD
ENDROOT
BRANCH   1  22
ATOM     21  C   UNL     1       6.102   3.719  13.151  0.00  0.00    +0.000 C 
ATOM     22  O   UNL     1       6.396   3.615  14.538  0.00  0.00    +0.000 OA
ENDBRANCH   1  22
TORSDOF 1
ENDMDL
MODEL 2
REMARK VINA RESULT:      -8.1      1.068      1.087
REMARK  Name = 
REMARK  2 active torsions:
REMARK  status: ('A' for Active; 'I' for Inactive)
REMARK    1  A    between atoms: C_1  and  O_2
REMARK    2  A    between atoms: O_2  and  C_3
REMARK                            x       y       z     vdW  Elec       q    Type
REMARK                         _______ _______ _______ _____ _____    ______ ____
ROOT
ATOM      1  C   UNL     1       5.918   5.101  16.338  0.00  0.00    +0.000 A 
ATOM      2  C   UNL     1       5.469   6.372  16.016  0.00  0.00    +0.000 A 
ATOM      3  C   UNL     1       4.464   6.953  16.783  0.00  0.00    +0.000 A 
ATOM      4  C   UNL     1       3.876   6.267  17.856  0.00  0.00    +0.000 A 
ATOM      5  C   UNL     1       2.859   6.887  18.578  0.00  0.00    +0.000 A 
ATOM      6  C   UNL     1       2.233   6.226  19.628  0.00  0.00    +0.000 A 
ATOM      7  C   UNL     1       2.586   4.944  20.002  0.00  0.00    +0.000 A 
ATOM      8  N   UNL     1       1.879   4.413  21.005  0.00  0.00    +0.000 NA
ATOM      9  C   UNL     1       2.175   3.178  21.382  0.00  0.00    +0.000 A 
ATOM     10  N   UNL     1       1.410   2.612  22.380  0.00  0.00    +0.000 N 
ATOM     11  N   UNL     1       3.162   2.452  20.877  0.00  0.00    +0.000 NA
ATOM     12  C   UNL     1       3.857   2.995  19.864  0.00  0.00    +0.000 A 
ATOM     13  N   UNL     1       4.840   2.125  19.382  0.00  0.00    +0.000 N 
ATOM     14  C   UNL     1       3.624   4.283  19.324  0.00  0.00    +0.000 A 
ATOM     15  C   UNL     1       4.293   4.960  18.212  0.00  0.00    +0.000 A 
ATOM     16  C   UNL     1       5.344   4.422  17.420  0.00  0.00    +0.000 A 
ATOM     17  H   UNL     1       0.994   3.333  22.950  0.00  0.00    +0.000 HD
ATOM     18  H   UNL     1       1.933   1.885  22.847  0.00  0.00    +0.000 HD
ATOM     19  H   UNL     1       4.784   1.289  19.961  0.00  0.00    +0.000 HD
ATOM     20  H   UNL     1       4.653   1.889  18.414  0.00  0.00    +0.000 HD
ENDROOT
BRANCH   1  22
ATOM     21  C   UNL     1       6.723   4.347  14.242  0.00  0.00    +0.000 C 
ATOM     22  O   UNL     1       6.872   4.396  15.656  0.00  0.00    +0.000 OA
ENDBRANCH   1  22
TORSDOF 1
ENDMDL
MODEL 3
REMARK VINA RESULT:      -7.4      2.995      5.440
REMARK  Name = 
REMARK  2 active torsions:
REMARK  status: ('A' for Active; 'I' for Inactive)
REMARK    1  A    between atoms: C_1  and  O_2
REMARK    2  A    between atoms: O_2  and  C_3
REMARK                            x       y       z     vdW  Elec       q    Type
REMARK                         _______ _______ _______ _____ _____    ______ ____
ROOT
ATOM      1  C   UNL     1       1.804   3.950  19.977  0.00  0.00    +0.000 A 
ATOM      2  C   UNL     1       1.382   5.197  20.408  0.00  0.00    +0.000 A 
ATOM      3  C   UNL     1       1.889   6.338  19.792  0.00  0.00    +0.000 A 
ATOM      4  C   UNL     1       2.840   6.251  18.764  0.00  0.00    +0.000 A 
ATOM      5  C   UNL     1       3.330   7.423  18.196  0.00  0.00    +0.000 A 
ATOM      6  C   UNL     1       4.294   7.376  17.196  0.00  0.00    +0.000 A 
ATOM      7  C   UNL     1       4.803   6.181  16.724  0.00  0.00    +0.000 A 
ATOM      8  N   UNL     1       5.751   6.280  15.787  0.00  0.00    +0.000 NA
ATOM      9  C   UNL     1       6.277   5.158  15.320  0.00  0.00    +0.000 A 
ATOM     10  N   UNL     1       7.293   5.262  14.393  0.00  0.00    +0.000 N 
ATOM     11  N   UNL     1       5.888   3.941  15.672  0.00  0.00    +0.000 NA
ATOM     12  C   UNL     1       4.942   3.857  16.621  0.00  0.00    +0.000 A 
ATOM     13  N   UNL     1       4.644   2.529  16.943  0.00  0.00    +0.000 N 
ATOM     14  C   UNL     1       4.323   4.968  17.244  0.00  0.00    +0.000 A 
ATOM     15  C   UNL     1       3.311   4.996  18.301  0.00  0.00    +0.000 A 
ATOM     16  C   UNL     1       2.739   3.861  18.938  0.00  0.00    +0.000 A 
ATOM     17  H   UNL     1       7.232   6.146  13.910  0.00  0.00    +0.000 HD
ATOM     18  H   UNL     1       7.339   4.422  13.835  0.00  0.00    +0.000 HD
ATOM     19  H   UNL     1       5.226   1.955  16.337  0.00  0.00    +0.000 HD
ATOM     20  H   UNL     1       4.870   2.346  17.915  0.00  0.00    +0.000 HD
ENDROOT
BRANCH   1  22
ATOM     21  C   UNL     1       1.719   2.549  21.884  0.00  0.00    +0.000 C 
ATOM     22  O   UNL     1       1.417   2.750  20.509  0.00  0.00    +0.000 OA
ENDBRANCH   1  22
TORSDOF 1
ENDMDL
MODEL 4
REMARK VINA RESULT:      -7.4      3.215      5.500
REMARK  Name = 
REMARK  2 active torsions:
REMARK  status: ('A' for Active; 'I' for Inactive)
REMARK    1  A    between atoms: C_1  and  O_2
REMARK    2  A    between atoms: O_2  and  C_3
REMARK                            x       y       z     vdW  Elec       q    Type
REMARK                         _______ _______ _______ _____ _____    ______ ____
ROOT
ATOM      1  C   UNL     1       2.219   4.882  20.942  0.00  0.00    +0.000 A 
ATOM      2  C   UNL     1       1.463   6.042  20.909  0.00  0.00    +0.000 A 
ATOM      3  C   UNL     1       1.704   6.983  19.913  0.00  0.00    +0.000 A 
ATOM      4  C   UNL     1       2.717   6.795  18.960  0.00  0.00    +0.000 A 
ATOM      5  C   UNL     1       2.931   7.778  17.998  0.00  0.00    +0.000 A 
ATOM      6  C   UNL     1       3.945   7.639  17.058  0.00  0.00    +0.000 A 
ATOM      7  C   UNL     1       4.775   6.535  17.032  0.00  0.00    +0.000 A 
ATOM      8  N   UNL     1       5.731   6.545  16.098  0.00  0.00    +0.000 NA
ATOM      9  C   UNL     1       6.560   5.513  16.052  0.00  0.00    +0.000 A 
ATOM     10  N   UNL     1       7.579   5.549  15.124  0.00  0.00    +0.000 N 
ATOM     11  N   UNL     1       6.471   4.440  16.826  0.00  0.00    +0.000 NA
ATOM     12  C   UNL     1       5.511   4.448  17.766  0.00  0.00    +0.000 A 
ATOM     13  N   UNL     1       5.540   3.290  18.549  0.00  0.00    +0.000 N 
ATOM     14  C   UNL     1       4.586   5.501  17.964  0.00  0.00    +0.000 A 
ATOM     15  C   UNL     1       3.526   5.630  18.966  0.00  0.00    +0.000 A 
ATOM     16  C   UNL     1       3.219   4.684  19.981  0.00  0.00    +0.000 A 
ATOM     17  H   UNL     1       7.329   6.157  14.358  0.00  0.00    +0.000 HD
ATOM     18  H   UNL     1       7.879   4.611  14.902  0.00  0.00    +0.000 HD
ATOM     19  H   UNL     1       6.292   2.716  18.174  0.00  0.00    +0.000 HD
ATOM     20  H   UNL     1       5.735   3.528  19.515  0.00  0.00    +0.000 HD
ENDROOT
BRANCH   1  22
ATOM     21  C   UNL     1       2.525   2.592  21.463  0.00  0.00    +0.000 C 
ATOM     22  O   UNL     1       2.115   3.889  21.878  0.00  0.00    +0.000 OA
ENDBRANCH   1  22
TORSDOF 1
ENDMDL
MODEL 5
REMARK VINA RESULT:      -7.2      1.616      3.088
REMARK  Name = 
REMARK  2 active torsions:
REMARK  status: ('A' for Active; 'I' for Inactive)
REMARK    1  A    between atoms: C_1  and  O_2
REMARK    2  A    between atoms: O_2  and  C_3
REMARK                            x       y       z     vdW  Elec       q    Type
REMARK                         _______ _______ _______ _____ _____    ______ ____
ROOT
ATOM      1  C   UNL     1       5.540   6.097  16.629  0.00  0.00    +0.000 A 
ATOM      2  C   UNL     1       5.884   5.102  15.728  0.00  0.00    +0.000 A 
ATOM      3  C   UNL     1       5.356   3.825  15.889  0.00  0.00    +0.000 A 
ATOM      4  C   UNL     1       4.506   3.517  16.962  0.00  0.00    +0.000 A 
ATOM      5  C   UNL     1       4.023   2.217  17.089  0.00  0.00    +0.000 A 
ATOM      6  C   UNL     1       3.203   1.868  18.157  0.00  0.00    +0.000 A 
ATOM      7  C   UNL     1       2.834   2.781  19.126  0.00  0.00    +0.000 A 
ATOM      8  N   UNL     1       2.072   2.304  20.116  0.00  0.00    +0.000 NA
ATOM      9  C   UNL     1       1.711   3.143  21.075  0.00  0.00    +0.000 A 
ATOM     10  N   UNL     1       0.970   2.639  22.123  0.00  0.00    +0.000 N 
ATOM     11  N   UNL     1       1.999   4.437  21.092  0.00  0.00    +0.000 NA
ATOM     12  C   UNL     1       2.773   4.899  20.096  0.00  0.00    +0.000 A 
ATOM     13  N   UNL     1       3.048   6.262  20.241  0.00  0.00    +0.000 N 
ATOM     14  C   UNL     1       3.272   4.112  19.031  0.00  0.00    +0.000 A 
ATOM     15  C   UNL     1       4.140   4.499  17.917  0.00  0.00    +0.000 A 
ATOM     16  C   UNL     1       4.678   5.795  17.691  0.00  0.00    +0.000 A 
ATOM     17  H   UNL     1       0.478   1.807  21.832  0.00  0.00    +0.000 HD
ATOM     18  H   UNL     1       0.434   3.377  22.555  0.00  0.00    +0.000 HD
ATOM     19  H   UNL     1       2.554   6.561  21.080  0.00  0.00    +0.000 HD
ATOM     20  H   UNL     1       4.045   6.407  20.357  0.00  0.00    +0.000 HD
ENDROOT
BRANCH   1  22
ATOM     21  C   UNL     1       7.188   7.630  17.366  0.00  0.00    +0.000 C 
ATOM     22  O   UNL     1       6.006   7.383  16.614  0.00  0.00    +0.000 OA
ENDBRANCH   1  22
TORSDOF 1
ENDMDL
MODEL 6
REMARK VINA RESULT:      -7.1      3.408      5.580
REMARK  Name = 
REMARK  2 active torsions:
REMARK  status: ('A' for Active; 'I' for Inactive)
REMARK    1  A    between atoms: C_1  and  O_2
REMARK    2  A    between atoms: O_2  and  C_3
REMARK                            x       y       z     vdW  Elec       q    Type
REMARK                         _______ _______ _______ _____ _____    ______ ____
ROOT
ATOM      1  C   UNL     1       3.319   3.210  20.675  0.00  0.00    +0.000 A 
ATOM      2  C   UNL     1       4.146   2.597  19.748  0.00  0.00    +0.000 A 
ATOM      3  C   UNL     1       4.560   3.311  18.628  0.00  0.00    +0.000 A 
ATOM      4  C   UNL     1       4.133   4.628  18.403  0.00  0.00    +0.000 A 
ATOM      5  C   UNL     1       4.560   5.290  17.255  0.00  0.00    +0.000 A 
ATOM      6  C   UNL     1       4.133   6.585  16.984  0.00  0.00    +0.000 A 
ATOM      7  C   UNL     1       3.279   7.267  17.830  0.00  0.00    +0.000 A 
ATOM      8  N   UNL     1       2.920   8.491  17.432  0.00  0.00    +0.000 NA
ATOM      9  C   UNL     1       2.088   9.172  18.206  0.00  0.00    +0.000 A 
ATOM     10  N   UNL     1       1.674  10.413  17.769  0.00  0.00    +0.000 N 
ATOM     11  N   UNL     1       1.634   8.750  19.378  0.00  0.00    +0.000 NA
ATOM     12  C   UNL     1       1.996   7.515  19.760  0.00  0.00    +0.000 A 
ATOM     13  N   UNL     1       1.425   7.160  20.986  0.00  0.00    +0.000 N 
ATOM     14  C   UNL     1       2.839   6.655  19.015  0.00  0.00    +0.000 A 
ATOM     15  C   UNL     1       3.274   5.290  19.316  0.00  0.00    +0.000 A 
ATOM     16  C   UNL     1       2.906   4.531  20.461  0.00  0.00    +0.000 A 
ATOM     17  H   UNL     1       2.351  10.797  17.126  0.00  0.00    +0.000 HD
ATOM     18  H   UNL     1       1.396  10.982  18.555  0.00  0.00    +0.000 HD
ATOM     19  H   UNL     1       0.884   7.968  21.288  0.00  0.00    +0.000 HD
ATOM     20  H   UNL     1       0.814   6.360  20.868  0.00  0.00    +0.000 HD
ENDROOT
BRANCH   1  22
ATOM     21  C   UNL     1       1.390   2.575  21.894  0.00  0.00    +0.000 C 
ATOM     22  O   UNL     1       2.808   2.623  21.801  0.00  0.00    +0.000 OA
ENDBRANCH   1  22
TORSDOF 1
ENDMDL
MODEL 7
REMARK VINA RESULT:      -7.0      4.019      6.367
REMARK  Name = 
REMARK  2 active torsions:
REMARK  status: ('A' for Active; 'I' for Inactive)
REMARK    1  A    between atoms: C_1  and  O_2
REMARK    2  A    between atoms: O_2  and  C_3
REMARK                            x       y       z     vdW  Elec       q    Type
REMARK                         _______ _______ _______ _____ _____    ______ ____
ROOT
ATOM      1  C   UNL     1       0.389   8.976  21.416  0.00  0.00    +0.000 A 
ATOM      2  C   UNL     1       0.329  10.049  20.542  0.00  0.00    +0.000 A 
ATOM      3  C   UNL     1       0.982   9.964  19.316  0.00  0.00    +0.000 A 
ATOM      4  C   UNL     1       1.724   8.827  18.961  0.00  0.00    +0.000 A 
ATOM      5  C   UNL     1       2.376   8.803  17.730  0.00  0.00    +0.000 A 
ATOM      6  C   UNL     1       3.144   7.705  17.358  0.00  0.00    +0.000 A 
ATOM      7  C   UNL     1       3.292   6.603  18.178  0.00  0.00    +0.000 A 
ATOM      8  N   UNL     1       4.087   5.633  17.713  0.00  0.00    +0.000 NA
ATOM      9  C   UNL     1       4.270   4.567  18.476  0.00  0.00    +0.000 A 
ATOM     10  N   UNL     1       5.132   3.592  18.021  0.00  0.00    +0.000 N 
ATOM     11  N   UNL     1       3.674   4.364  19.642  0.00  0.00    +0.000 NA
ATOM     12  C   UNL     1       2.886   5.350  20.101  0.00  0.00    +0.000 A 
ATOM     13  N   UNL     1       2.348   5.046  21.355  0.00  0.00    +0.000 N 
ATOM     14  C   UNL     1       2.635   6.564  19.418  0.00  0.00    +0.000 A 
ATOM     15  C   UNL     1       1.825   7.712  19.831  0.00  0.00    +0.000 A 
ATOM     16  C   UNL     1       1.114   7.833  21.056  0.00  0.00    +0.000 A 
ATOM     17  H   UNL     1       5.202   3.633  17.014  0.00  0.00    +0.000 HD
ATOM     18  H   UNL     1       4.904   2.703  18.442  0.00  0.00    +0.000 HD
ATOM     19  H   UNL     1       2.688   4.115  21.589  0.00  0.00    +0.000 HD
ATOM     20  H   UNL     1       2.670   5.715  22.045  0.00  0.00    +0.000 HD
ENDROOT
BRANCH   1  22
ATOM     21  C   UNL     1      -0.754  10.143  23.131  0.00  0.00    +0.000 C 
ATOM     22  O   UNL     1      -0.174   8.932  22.663  0.00  0.00    +0.000 OA
ENDBRANCH   1  22
TORSDOF 1
ENDMDL
MODEL 8
REMARK VINA RESULT:      -7.0      3.017      5.121
REMARK  Name = 
REMARK  2 active torsions:
REMARK  status: ('A' for Active; 'I' for Inactive)
REMARK    1  A    between atoms: C_1  and  O_2
REMARK    2  A    between atoms: O_2  and  C_3
REMARK                            x       y       z     vdW  Elec       q    Type
REMARK                         _______ _______ _______ _____ _____    ______ ____
ROOT
ATOM      1  C   UNL     1       1.420   8.631  19.749  0.00  0.00    +0.000 A 
ATOM      2  C   UNL     1       1.839   9.274  18.596  0.00  0.00    +0.000 A 
ATOM      3  C   UNL     1       2.666   8.599  17.703  0.00  0.00    +0.000 A 
ATOM      4  C   UNL     1       3.109   7.293  17.963  0.00  0.00    +0.000 A 
ATOM      5  C   UNL     1       3.953   6.671  17.047  0.00  0.00    +0.000 A 
ATOM      6  C   UNL     1       4.435   5.389  17.286  0.00  0.00    +0.000 A 
ATOM      7  C   UNL     1       4.102   4.682  18.425  0.00  0.00    +0.000 A 
ATOM      8  N   UNL     1       4.664   3.475  18.547  0.00  0.00    +0.000 NA
ATOM      9  C   UNL     1       4.384   2.771  19.634  0.00  0.00    +0.000 A 
ATOM     10  N   UNL     1       5.006   1.549  19.784  0.00  0.00    +0.000 N 
ATOM     11  N   UNL     1       3.540   3.152  20.581  0.00  0.00    +0.000 NA
ATOM     12  C   UNL     1       2.991   4.371  20.450  0.00  0.00    +0.000 A 
ATOM     13  N   UNL     1       2.155   4.683  21.526  0.00  0.00    +0.000 N 
ATOM     14  C   UNL     1       3.233   5.252  19.369  0.00  0.00    +0.000 A 
ATOM     15  C   UNL     1       2.718   6.603  19.138  0.00  0.00    +0.000 A 
ATOM     16  C   UNL     1       1.846   7.321  20.002  0.00  0.00    +0.000 A 
ATOM     17  H   UNL     1       5.278   1.185  18.883  0.00  0.00    +0.000 HD
ATOM     18  H   UNL     1       4.457   0.953  20.387  0.00  0.00    +0.000 HD
ATOM     19  H   UNL     1       2.164   3.868  22.136  0.00  0.00    +0.000 HD
ATOM     20  H   UNL     1       2.513   5.491  22.024  0.00  0.00    +0.000 HD
ENDROOT
BRANCH   1  22
ATOM     21  C   UNL     1       1.115   9.051  22.060  0.00  0.00    +0.000 C 
ATOM     22  O   UNL     1       0.636   9.181  20.728  0.00  0.00    +0.000 OA
ENDBRANCH   1  22
TORSDOF 1
ENDMDL
MODEL 9
REMARK VINA RESULT:      -6.8      3.456      5.988
REMARK  Name = 
REMARK  2 active torsions:
REMARK  status: ('A' for Active; 'I' for Inactive)
REMARK    1  A    between atoms: C_1  and  O_2
REMARK    2  A    between atoms: O_2  and  C_3
REMARK                            x       y       z     vdW  Elec       q    Type
REMARK                         _______ _______ _______ _____ _____    ______ ____
ROOT
ATOM      1  C   UNL     1       1.846   6.026  20.334  0.00  0.00    +0.000 A 
ATOM      2  C   UNL     1       1.320   4.773  20.600  0.00  0.00    +0.000 A 
ATOM      3  C   UNL     1       1.772   3.676  19.872  0.00  0.00    +0.000 A 
ATOM      4  C   UNL     1       2.728   3.819  18.855  0.00  0.00    +0.000 A 
ATOM      5  C   UNL     1       3.131   2.693  18.143  0.00  0.00    +0.000 A 
ATOM      6  C   UNL     1       4.053   2.802  17.109  0.00  0.00    +0.000 A 
ATOM      7  C   UNL     1       4.608   4.014  16.746  0.00  0.00    +0.000 A 
ATOM      8  N   UNL     1       5.454   3.982  15.711  0.00  0.00    +0.000 NA
ATOM      9  C   UNL     1       5.994   5.127  15.320  0.00  0.00    +0.000 A 
ATOM     10  N   UNL     1       6.825   5.102  14.220  0.00  0.00    +0.000 N 
ATOM     11  N   UNL     1       5.802   6.293  15.919  0.00  0.00    +0.000 NA
ATOM     12  C   UNL     1       4.943   6.312  16.951  0.00  0.00    +0.000 A 
ATOM     13  N   UNL     1       4.785   7.599  17.474  0.00  0.00    +0.000 N 
ATOM     14  C   UNL     1       4.256   5.178  17.449  0.00  0.00    +0.000 A 
ATOM     15  C   UNL     1       3.283   5.085  18.538  0.00  0.00    +0.000 A 
ATOM     16  C   UNL     1       2.814   6.168  19.331  0.00  0.00    +0.000 A 
ATOM     17  H   UNL     1       7.215   4.178  14.101  0.00  0.00    +0.000 HD
ATOM     18  H   UNL     1       7.463   5.883  14.249  0.00  0.00    +0.000 HD
ATOM     19  H   UNL     1       5.402   8.200  16.932  0.00  0.00    +0.000 HD
ATOM     20  H   UNL     1       3.824   7.904  17.369  0.00  0.00    +0.000 HD
ENDROOT
BRANCH   1  22
ATOM     21  C   UNL     1       1.500   8.361  20.133  0.00  0.00    +0.000 C 
ATOM     22  O   UNL     1       1.474   7.193  20.944  0.00  0.00    +0.000 OA
ENDBRANCH   1  22
TORSDOF 1
ENDMDL
