MODEL 1
REMARK VINA RESULT:      -7.3      0.000      0.000
REMARK  Name = 
REMARK  3 active torsions:
REMARK  status: ('A' for Active; 'I' for Inactive)
REMARK    1  A    between atoms: C_1  and  C_18
REMARK    2  A    between atoms: N_2  and  C_3
REMARK    3  A    between atoms: C_6  and  C_7
REMARK                            x       y       z     vdW  Elec       q    Type
REMARK                         _______ _______ _______ _____ _____    ______ ____
ROOT
ATOM      1  C   UNL     1       2.768   7.254  18.443  0.00  0.00    +0.000 A 
ATOM      2  C   UNL     1       2.407   8.380  17.696  0.00  0.00    +0.000 A 
ATOM      3  C   UNL     1       1.610   9.398  18.246  0.00  0.00    +0.000 A 
ATOM      4  C   UNL     1       1.150   9.309  19.568  0.00  0.00    +0.000 A 
ATOM      5  C   UNL     1       1.499   8.168  20.306  0.00  0.00    +0.000 A 
ATOM      6  C   UNL     1       2.279   7.150  19.749  0.00  0.00    +0.000 A 
ENDROOT
BRANCH   4   7
ATOM      7  C   UNL     1       0.264  10.300  20.202  0.00  0.00    +0.000 A 
ATOM      8  N   UNL     1      -0.036  10.267  21.485  0.00  0.00    +0.000 NA
ATOM      9  C   UNL     1      -0.923  11.274  21.804  0.00  0.00    +0.000 A 
ATOM     10  C   UNL     1      -1.494  11.490  23.074  0.00  0.00    +0.000 A 
ATOM     11  C   UNL     1      -2.401  12.537  23.258  0.00  0.00    +0.000 A 
ATOM     12  C   UNL     1      -2.730  13.376  22.197  0.00  0.00    +0.000 A 
ATOM     13  C   UNL     1      -2.163  13.190  20.930  0.00  0.00    +0.000 A 
ATOM     14  C   UNL     1      -1.267  12.123  20.752  0.00  0.00    +0.000 A 
ATOM     15  S   UNL     1      -0.437  11.609  19.332  0.00  0.00    +0.000 S 
ENDBRANCH   4   7
BRANCH   1  17
ATOM     16  C   UNL     1       4.425   6.647  16.933  0.00  0.00    +0.000 C 
ATOM     17  N   UNL     1       3.566   6.271  17.826  0.00  0.00    +0.000 NA
BRANCH  16  18
ATOM     18  C   UNL     1       5.254   5.690  16.255  0.00  0.00    +0.000 A 
ATOM     19  C   UNL     1       5.134   4.312  16.231  0.00  0.00    +0.000 A 
ATOM     20  C   UNL     1       6.203   3.796  15.462  0.00  0.00    +0.000 A 
ATOM     21  C   UNL     1       6.948   4.867  15.026  0.00  0.00    +0.000 A 
ATOM     22  N   UNL     1       6.356   6.012  15.497  0.00  0.00    +0.000 N 
ATOM     23  H   UNL     1       6.674   6.961  15.339  0.00  0.00    +0.000 HD
ENDBRANCH  16  18
ENDBRANCH   1  17
TORSDOF 3
ENDMDL
MODEL 2
REMARK VINA RESULT:      -7.3      0.895      1.340
REMARK  Name = 
REMARK  3 active torsions:
REMARK  status: ('A' for Active; 'I' for Inactive)
REMARK    1  A    between atoms: C_1  and  C_18
REMARK    2  A    between atoms: N_2  and  C_3
REMARK    3  A    between atoms: C_6  and  C_7
REMARK                            x       y       z     vdW  Elec       q    Type
REMARK                         _______ _______ _______ _____ _____    ______ ____
ROOT
ATOM      1  C   UNL     1       2.797   7.046  18.442  0.00  0.00    +0.000 A 
ATOM      2  C   UNL     1       2.383   8.205  17.777  0.00  0.00    +0.000 A 
ATOM      3  C   UNL     1       1.601   9.178  18.421  0.00  0.00    +0.000 A 
ATOM      4  C   UNL     1       1.209   9.009  19.756  0.00  0.00    +0.000 A 
ATOM      5  C   UNL     1       1.610   7.836  20.412  0.00  0.00    +0.000 A 
ATOM      6  C   UNL     1       2.375   6.863  19.762  0.00  0.00    +0.000 A 
ENDROOT
BRANCH   4   7
ATOM      7  C   UNL     1       0.341   9.949  20.487  0.00  0.00    +0.000 A 
ATOM      8  N   UNL     1      -0.329  10.913  19.886  0.00  0.00    +0.000 NA
ATOM      9  C   UNL     1      -1.016  11.676  20.805  0.00  0.00    +0.000 A 
ATOM     10  C   UNL     1      -1.786  12.819  20.510  0.00  0.00    +0.000 A 
ATOM     11  C   UNL     1      -2.415  13.518  21.543  0.00  0.00    +0.000 A 
ATOM     12  C   UNL     1      -2.299  13.081  22.859  0.00  0.00    +0.000 A 
ATOM     13  C   UNL     1      -1.552  11.939  23.175  0.00  0.00    +0.000 A 
ATOM     14  C   UNL     1      -0.909  11.255  22.131  0.00  0.00    +0.000 A 
ATOM     15  S   UNL     1       0.098   9.858  22.188  0.00  0.00    +0.000 S 
ENDBRANCH   4   7
BRANCH   1  17
ATOM     16  C   UNL     1       4.505   6.555  16.947  0.00  0.00    +0.000 C 
ATOM     17  N   UNL     1       3.577   6.112  17.733  0.00  0.00    +0.000 NA
BRANCH  16  18
ATOM     18  C   UNL     1       5.321   5.653  16.182  0.00  0.00    +0.000 A 
ATOM     19  C   UNL     1       5.121   4.305  15.944  0.00  0.00    +0.000 A 
ATOM     20  C   UNL     1       6.209   3.835  15.171  0.00  0.00    +0.000 A 
ATOM     21  C   UNL     1       7.045   4.904  14.947  0.00  0.00    +0.000 A 
ATOM     22  N   UNL     1       6.491   6.006  15.549  0.00  0.00    +0.000 N 
ATOM     23  H   UNL     1       6.875   6.944  15.556  0.00  0.00    +0.000 HD
ENDBRANCH  16  18
ENDBRANCH   1  17
TORSDOF 3
ENDMDL
MODEL 3
REMARK VINA RESULT:      -7.2      1.959      9.603
REMARK  Name = 
REMARK  3 active torsions:
REMARK  status: ('A' for Active; 'I' for Inactive)
REMARK    1  A    between atoms: C_1  and  C_18
REMARK    2  A    between atoms: N_2  and  C_3
REMARK    3  A    between atoms: C_6  and  C_7
REMARK                            x       y       z     vdW  Elec       q    Type
REMARK                         _______ _______ _______ _____ _____    ______ ____
ROOT
ATOM      1  C   UNL     1       0.450   9.660  20.038  0.00  0.00    +0.000 A 
ATOM      2  C   UNL     1       1.012   8.614  20.777  0.00  0.00    +0.000 A 
ATOM      3  C   UNL     1       1.898   7.696  20.188  0.00  0.00    +0.000 A 
ATOM      4  C   UNL     1       2.241   7.804  18.834  0.00  0.00    +0.000 A 
ATOM      5  C   UNL     1       1.659   8.842  18.092  0.00  0.00    +0.000 A 
ATOM      6  C   UNL     1       0.765   9.744  18.678  0.00  0.00    +0.000 A 
ENDROOT
BRANCH   4   7
ATOM      7  C   UNL     1       3.114   6.851  18.125  0.00  0.00    +0.000 A 
ATOM      8  N   UNL     1       4.100   7.239  17.341  0.00  0.00    +0.000 NA
ATOM      9  C   UNL     1       4.720   6.151  16.763  0.00  0.00    +0.000 A 
ATOM     10  C   UNL     1       5.773   6.209  15.829  0.00  0.00    +0.000 A 
ATOM     11  C   UNL     1       6.298   5.026  15.301  0.00  0.00    +0.000 A 
ATOM     12  C   UNL     1       5.797   3.793  15.706  0.00  0.00    +0.000 A 
ATOM     13  C   UNL     1       4.760   3.710  16.644  0.00  0.00    +0.000 A 
ATOM     14  C   UNL     1       4.228   4.906  17.154  0.00  0.00    +0.000 A 
ATOM     15  S   UNL     1       2.945   5.146  18.279  0.00  0.00    +0.000 S 
ENDBRANCH   4   7
BRANCH   1  17
ATOM     16  C   UNL     1       0.033  11.286  21.643  0.00  0.00    +0.000 C 
ATOM     17  N   UNL     1      -0.433  10.540  20.692  0.00  0.00    +0.000 NA
BRANCH  16  18
ATOM     18  C   UNL     1      -0.822  12.190  22.361  0.00  0.00    +0.000 A 
ATOM     19  C   UNL     1      -2.081  11.952  22.883  0.00  0.00    +0.000 A 
ATOM     20  C   UNL     1      -2.542  13.153  23.468  0.00  0.00    +0.000 A 
ATOM     21  C   UNL     1      -1.556  14.097  23.300  0.00  0.00    +0.000 A 
ATOM     22  N   UNL     1      -0.510  13.500  22.643  0.00  0.00    +0.000 N 
ATOM     23  H   UNL     1       0.364  13.941  22.378  0.00  0.00    +0.000 HD
ENDBRANCH  16  18
ENDBRANCH   1  17
TORSDOF 3
ENDMDL
MODEL 4
REMARK VINA RESULT:      -7.2      0.799      1.293
REMARK  Name = 
REMARK  3 active torsions:
REMARK  status: ('A' for Active; 'I' for Inactive)
REMARK    1  A    between atoms: C_1  and  C_18
REMARK    2  A    between atoms: N_2  and  C_3
REMARK    3  A    between atoms: C_6  and  C_7
REMARK                            x       y       z     vdW  Elec       q    Type
REMARK                         _______ _______ _______ _____ _____    ______ ____
ROOT
ATOM      1  C   UNL     1       2.572   7.337  18.395  0.00  0.00    +0.000 A 
ATOM      2  C   UNL     1       2.279   7.104  19.743  0.00  0.00    +0.000 A 
ATOM      3  C   UNL     1       1.611   8.062  20.523  0.00  0.00    +0.000 A 
ATOM      4  C   UNL     1       1.221   9.288  19.967  0.00  0.00    +0.000 A 
ATOM      5  C   UNL     1       1.535   9.525  18.620  0.00  0.00    +0.000 A 
ATOM      6  C   UNL     1       2.214   8.574  17.852  0.00  0.00    +0.000 A 
ENDROOT
BRANCH   4   7
ATOM      7  C   UNL     1       0.571  10.369  20.727  0.00  0.00    +0.000 A 
ATOM      8  N   UNL     1      -0.364  10.142  21.629  0.00  0.00    +0.000 NA
ATOM      9  C   UNL     1      -0.839  11.328  22.149  0.00  0.00    +0.000 A 
ATOM     10  C   UNL     1      -1.879  11.451  23.091  0.00  0.00    +0.000 A 
ATOM     11  C   UNL     1      -2.280  12.719  23.520  0.00  0.00    +0.000 A 
ATOM     12  C   UNL     1      -1.645  13.858  23.035  0.00  0.00    +0.000 A 
ATOM     13  C   UNL     1      -0.599  13.760  22.110  0.00  0.00    +0.000 A 
ATOM     14  C   UNL     1      -0.216  12.481  21.671  0.00  0.00    +0.000 A 
ATOM     15  S   UNL     1       0.992  12.026  20.531  0.00  0.00    +0.000 S 
ENDBRANCH   4   7
BRANCH   1  17
ATOM     16  C   UNL     1       4.373   6.633  17.108  0.00  0.00    +0.000 C 
ATOM     17  N   UNL     1       3.248   6.332  17.675  0.00  0.00    +0.000 NA
BRANCH  16  18
ATOM     18  C   UNL     1       5.100   5.658  16.344  0.00  0.00    +0.000 A 
ATOM     19  C   UNL     1       5.008   4.278  16.399  0.00  0.00    +0.000 A 
ATOM     20  C   UNL     1       5.947   3.744  15.487  0.00  0.00    +0.000 A 
ATOM     21  C   UNL     1       6.587   4.804  14.889  0.00  0.00    +0.000 A 
ATOM     22  N   UNL     1       6.055   5.961  15.401  0.00  0.00    +0.000 N 
ATOM     23  H   UNL     1       6.322   6.906  15.153  0.00  0.00    +0.000 HD
ENDBRANCH  16  18
ENDBRANCH   1  17
TORSDOF 3
ENDMDL
MODEL 5
REMARK VINA RESULT:      -7.2      6.224      8.293
REMARK  Name = 
REMARK  3 active torsions:
REMARK  status: ('A' for Active; 'I' for Inactive)
REMARK    1  A    between atoms: C_1  and  C_18
REMARK    2  A    between atoms: N_2  and  C_3
REMARK    3  A    between atoms: C_6  and  C_7
REMARK                            x       y       z     vdW  Elec       q    Type
REMARK                         _______ _______ _______ _____ _____    ______ ____
ROOT
ATOM      1  C   UNL     1       7.826   8.018  17.881  0.00  0.00    +0.000 A 
ATOM      2  C   UNL     1       7.998   6.886  18.684  0.00  0.00    +0.000 A 
ATOM      3  C   UNL     1       6.990   5.916  18.808  0.00  0.00    +0.000 A 
ATOM      4  C   UNL     1       5.773   6.061  18.127  0.00  0.00    +0.000 A 
ATOM      5  C   UNL     1       5.597   7.208  17.339  0.00  0.00    +0.000 A 
ATOM      6  C   UNL     1       6.598   8.179  17.232  0.00  0.00    +0.000 A 
ENDROOT
BRANCH   4   7
ATOM      7  C   UNL     1       4.643   5.124  18.248  0.00  0.00    +0.000 A 
ATOM      8  N   UNL     1       3.688   5.273  19.146  0.00  0.00    +0.000 NA
ATOM      9  C   UNL     1       2.787   4.231  19.077  0.00  0.00    +0.000 A 
ATOM     10  C   UNL     1       1.680   4.048  19.929  0.00  0.00    +0.000 A 
ATOM     11  C   UNL     1       0.856   2.932  19.765  0.00  0.00    +0.000 A 
ATOM     12  C   UNL     1       1.113   2.011  18.755  0.00  0.00    +0.000 A 
ATOM     13  C   UNL     1       2.198   2.180  17.886  0.00  0.00    +0.000 A 
ATOM     14  C   UNL     1       3.031   3.295  18.072  0.00  0.00    +0.000 A 
ATOM     15  S   UNL     1       4.447   3.766  17.209  0.00  0.00    +0.000 S 
ENDBRANCH   4   7
BRANCH   1  17
ATOM     16  C   UNL     1       8.971   9.849  18.735  0.00  0.00    +0.000 C 
ATOM     17  N   UNL     1       8.878   8.951  17.806  0.00  0.00    +0.000 NA
BRANCH  16  18
ATOM     18  C   UNL     1      10.011  10.840  18.704  0.00  0.00    +0.000 A 
ATOM     19  C   UNL     1      10.576  11.526  19.764  0.00  0.00    +0.000 A 
ATOM     20  C   UNL     1      11.533  12.425  19.239  0.00  0.00    +0.000 A 
ATOM     21  C   UNL     1      11.539  12.265  17.873  0.00  0.00    +0.000 A 
ATOM     22  N   UNL     1      10.626  11.290  17.559  0.00  0.00    +0.000 N 
ATOM     23  H   UNL     1      10.406  10.949  16.630  0.00  0.00    +0.000 HD
ENDBRANCH  16  18
ENDBRANCH   1  17
TORSDOF 3
ENDMDL
MODEL 6
REMARK VINA RESULT:      -7.2      1.943      9.595
REMARK  Name = 
REMARK  3 active torsions:
REMARK  status: ('A' for Active; 'I' for Inactive)
REMARK    1  A    between atoms: C_1  and  C_18
REMARK    2  A    between atoms: N_2  and  C_3
REMARK    3  A    between atoms: C_6  and  C_7
REMARK                            x       y       z     vdW  Elec       q    Type
REMARK                         _______ _______ _______ _____ _____    ______ ____
ROOT
ATOM      1  C   UNL     1       0.355  10.013  20.059  0.00  0.00    +0.000 A 
ATOM      2  C   UNL     1       0.624  10.111  18.690  0.00  0.00    +0.000 A 
ATOM      3  C   UNL     1       1.421   9.161  18.031  0.00  0.00    +0.000 A 
ATOM      4  C   UNL     1       1.977   8.084  18.736  0.00  0.00    +0.000 A 
ATOM      5  C   UNL     1       1.722   8.002  20.112  0.00  0.00    +0.000 A 
ATOM      6  C   UNL     1       0.940   8.959  20.767  0.00  0.00    +0.000 A 
ENDROOT
BRANCH   4   7
ATOM      7  C   UNL     1       2.871   7.079  18.136  0.00  0.00    +0.000 A 
ATOM      8  N   UNL     1       3.897   7.404  17.373  0.00  0.00    +0.000 NA
ATOM      9  C   UNL     1       4.531   6.274  16.901  0.00  0.00    +0.000 A 
ATOM     10  C   UNL     1       5.627   6.259  16.015  0.00  0.00    +0.000 A 
ATOM     11  C   UNL     1       6.163   5.040  15.595  0.00  0.00    +0.000 A 
ATOM     12  C   UNL     1       5.632   3.841  16.062  0.00  0.00    +0.000 A 
ATOM     13  C   UNL     1       4.553   3.831  16.955  0.00  0.00    +0.000 A 
ATOM     14  C   UNL     1       4.010   5.062  17.355  0.00  0.00    +0.000 A 
ATOM     15  S   UNL     1       2.679   5.389  18.400  0.00  0.00    +0.000 S 
ENDBRANCH   4   7
BRANCH   1  17
ATOM     16  C   UNL     1      -0.394  11.152  21.940  0.00  0.00    +0.000 C 
ATOM     17  N   UNL     1      -0.450  11.004  20.655  0.00  0.00    +0.000 NA
BRANCH  16  18
ATOM     18  C   UNL     1      -1.205  12.131  22.608  0.00  0.00    +0.000 A 
ATOM     19  C   UNL     1      -0.875  13.430  22.954  0.00  0.00    +0.000 A 
ATOM     20  C   UNL     1      -1.982  13.994  23.629  0.00  0.00    +0.000 A 
ATOM     21  C   UNL     1      -2.966  13.034  23.676  0.00  0.00    +0.000 A 
ATOM     22  N   UNL     1      -2.493  11.914  23.040  0.00  0.00    +0.000 N 
ATOM     23  H   UNL     1      -2.991  11.041  22.910  0.00  0.00    +0.000 HD
ENDBRANCH  16  18
ENDBRANCH   1  17
TORSDOF 3
ENDMDL
MODEL 7
REMARK VINA RESULT:      -7.1      7.120      8.717
REMARK  Name = 
REMARK  3 active torsions:
REMARK  status: ('A' for Active; 'I' for Inactive)
REMARK    1  A    between atoms: C_1  and  C_18
REMARK    2  A    between atoms: N_2  and  C_3
REMARK    3  A    between atoms: C_6  and  C_7
REMARK                            x       y       z     vdW  Elec       q    Type
REMARK                         _______ _______ _______ _____ _____    ______ ____
ROOT
ATOM      1  C   UNL     1       6.822   6.234  17.894  0.00  0.00    +0.000 A 
ATOM      2  C   UNL     1       6.509   7.388  17.169  0.00  0.00    +0.000 A 
ATOM      3  C   UNL     1       7.223   8.584  17.353  0.00  0.00    +0.000 A 
ATOM      4  C   UNL     1       8.273   8.652  18.279  0.00  0.00    +0.000 A 
ATOM      5  C   UNL     1       8.569   7.498  19.019  0.00  0.00    +0.000 A 
ATOM      6  C   UNL     1       7.846   6.314  18.843  0.00  0.00    +0.000 A 
ENDROOT
BRANCH   4   7
ATOM      7  C   UNL     1       9.032   9.879  18.576  0.00  0.00    +0.000 A 
ATOM      8  N   UNL     1       9.570  10.629  17.634  0.00  0.00    +0.000 NA
ATOM      9  C   UNL     1      10.267  11.682  18.187  0.00  0.00    +0.000 A 
ATOM     10  C   UNL     1      11.009  12.641  17.469  0.00  0.00    +0.000 A 
ATOM     11  C   UNL     1      11.690  13.649  18.157  0.00  0.00    +0.000 A 
ATOM     12  C   UNL     1      11.625  13.719  19.545  0.00  0.00    +0.000 A 
ATOM     13  C   UNL     1      10.882  12.787  20.279  0.00  0.00    +0.000 A 
ATOM     14  C   UNL     1      10.216  11.767  19.579  0.00  0.00    +0.000 A 
ATOM     15  S   UNL     1       9.261  10.464  20.178  0.00  0.00    +0.000 S 
ENDBRANCH   4   7
BRANCH   1  17
ATOM     16  C   UNL     1       5.037   4.844  18.418  0.00  0.00    +0.000 C 
ATOM     17  N   UNL     1       6.062   5.071  17.661  0.00  0.00    +0.000 NA
BRANCH  16  18
ATOM     18  C   UNL     1       4.233   3.666  18.242  0.00  0.00    +0.000 A 
ATOM     19  C   UNL     1       3.097   3.507  17.469  0.00  0.00    +0.000 A 
ATOM     20  C   UNL     1       2.635   2.182  17.643  0.00  0.00    +0.000 A 
ATOM     21  C   UNL     1       3.499   1.557  18.511  0.00  0.00    +0.000 A 
ATOM     22  N   UNL     1       4.475   2.458  18.856  0.00  0.00    +0.000 N 
ATOM     23  H   UNL     1       5.256   2.290  19.480  0.00  0.00    +0.000 HD
ENDBRANCH  16  18
ENDBRANCH   1  17
TORSDOF 3
ENDMDL
MODEL 8
REMARK VINA RESULT:      -7.1      0.993      1.724
REMARK  Name = 
REMARK  3 active torsions:
REMARK  status: ('A' for Active; 'I' for Inactive)
REMARK    1  A    between atoms: C_1  and  C_18
REMARK    2  A    between atoms: N_2  and  C_3
REMARK    3  A    between atoms: C_6  and  C_7
REMARK                            x       y       z     vdW  Elec       q    Type
REMARK                         _______ _______ _______ _____ _____    ______ ____
ROOT
ATOM      1  C   UNL     1       2.674   7.173  18.414  0.00  0.00    +0.000 A 
ATOM      2  C   UNL     1       2.369   6.958  19.762  0.00  0.00    +0.000 A 
ATOM      3  C   UNL     1       1.612   7.886  20.498  0.00  0.00    +0.000 A 
ATOM      4  C   UNL     1       1.143   9.061  19.895  0.00  0.00    +0.000 A 
ATOM      5  C   UNL     1       1.468   9.281  18.549  0.00  0.00    +0.000 A 
ATOM      6  C   UNL     1       2.236   8.362  17.825  0.00  0.00    +0.000 A 
ENDROOT
BRANCH   4   7
ATOM      7  C   UNL     1       0.395  10.111  20.607  0.00  0.00    +0.000 A 
ATOM      8  N   UNL     1       0.146  11.292  20.075  0.00  0.00    +0.000 NA
ATOM      9  C   UNL     1      -0.521  12.100  20.972  0.00  0.00    +0.000 A 
ATOM     10  C   UNL     1      -0.889  13.442  20.749  0.00  0.00    +0.000 A 
ATOM     11  C   UNL     1      -1.543  14.158  21.754  0.00  0.00    +0.000 A 
ATOM     12  C   UNL     1      -1.847  13.548  22.967  0.00  0.00    +0.000 A 
ATOM     13  C   UNL     1      -1.505  12.211  23.206  0.00  0.00    +0.000 A 
ATOM     14  C   UNL     1      -0.831  11.506  22.195  0.00  0.00    +0.000 A 
ATOM     15  S   UNL     1      -0.249   9.884  22.187  0.00  0.00    +0.000 S 
ENDBRANCH   4   7
BRANCH   1  17
ATOM     16  C   UNL     1       4.465   6.596  17.052  0.00  0.00    +0.000 C 
ATOM     17  N   UNL     1       3.441   6.202  17.740  0.00  0.00    +0.000 NA
BRANCH  16  18
ATOM     18  C   UNL     1       5.275   5.657  16.327  0.00  0.00    +0.000 A 
ATOM     19  C   UNL     1       5.023   4.320  16.073  0.00  0.00    +0.000 A 
ATOM     20  C   UNL     1       6.124   3.799  15.355  0.00  0.00    +0.000 A 
ATOM     21  C   UNL     1       7.021   4.827  15.179  0.00  0.00    +0.000 A 
ATOM     22  N   UNL     1       6.491   5.953  15.756  0.00  0.00    +0.000 N 
ATOM     23  H   UNL     1       6.919   6.872  15.786  0.00  0.00    +0.000 HD
ENDBRANCH  16  18
ENDBRANCH   1  17
TORSDOF 3
ENDMDL
MODEL 9
REMARK VINA RESULT:      -7.1      2.000      9.708
REMARK  Name = 
REMARK  3 active torsions:
REMARK  status: ('A' for Active; 'I' for Inactive)
REMARK    1  A    between atoms: C_1  and  C_18
REMARK    2  A    between atoms: N_2  and  C_3
REMARK    3  A    between atoms: C_6  and  C_7
REMARK                            x       y       z     vdW  Elec       q    Type
REMARK                         _______ _______ _______ _____ _____    ______ ____
ROOT
ATOM      1  C   UNL     1       0.057  10.470  20.556  0.00  0.00    +0.000 A 
ATOM      2  C   UNL     1       0.540   9.403  21.321  0.00  0.00    +0.000 A 
ATOM      3  C   UNL     1       1.380   8.425  20.765  0.00  0.00    +0.000 A 
ATOM      4  C   UNL     1       1.757   8.491  19.417  0.00  0.00    +0.000 A 
ATOM      5  C   UNL     1       1.254   9.552  18.649  0.00  0.00    +0.000 A 
ATOM      6  C   UNL     1       0.405  10.515  19.203  0.00  0.00    +0.000 A 
ENDROOT
BRANCH   4   7
ATOM      7  C   UNL     1       2.584   7.477  18.740  0.00  0.00    +0.000 A 
ATOM      8  N   UNL     1       3.382   7.768  17.731  0.00  0.00    +0.000 NA
ATOM      9  C   UNL     1       3.996   6.630  17.252  0.00  0.00    +0.000 A 
ATOM     10  C   UNL     1       4.865   6.574  16.144  0.00  0.00    +0.000 A 
ATOM     11  C   UNL     1       5.405   5.347  15.747  0.00  0.00    +0.000 A 
ATOM     12  C   UNL     1       5.100   4.186  16.451  0.00  0.00    +0.000 A 
ATOM     13  C   UNL     1       4.251   4.220  17.564  0.00  0.00    +0.000 A 
ATOM     14  C   UNL     1       3.700   5.455  17.943  0.00  0.00    +0.000 A 
ATOM     15  S   UNL     1       2.609   5.826  19.224  0.00  0.00    +0.000 S 
ENDBRANCH   4   7
BRANCH   1  17
ATOM     16  C   UNL     1      -1.177  11.181  22.391  0.00  0.00    +0.000 C 
ATOM     17  N   UNL     1      -0.784  11.413  21.179  0.00  0.00    +0.000 NA
BRANCH  16  18
ATOM     18  C   UNL     1      -2.051  12.095  23.073  0.00  0.00    +0.000 A 
ATOM     19  C   UNL     1      -1.858  13.440  23.330  0.00  0.00    +0.000 A 
ATOM     20  C   UNL     1      -2.974  13.907  24.062  0.00  0.00    +0.000 A 
ATOM     21  C   UNL     1      -3.828  12.842  24.231  0.00  0.00    +0.000 A 
ATOM     22  N   UNL     1      -3.269  11.751  23.613  0.00  0.00    +0.000 N 
ATOM     23  H   UNL     1      -3.664  10.820  23.565  0.00  0.00    +0.000 HD
ENDBRANCH  16  18
ENDBRANCH   1  17
TORSDOF 3
ENDMDL
