MODEL 1
REMARK VINA RESULT:      -7.0      0.000      0.000
REMARK  Name = 
REMARK  9 active torsions:
REMARK  status: ('A' for Active; 'I' for Inactive)
REMARK    1  A    between atoms: C_1  and  C_2
REMARK    2  A    between atoms: C_2  and  C_3
REMARK    3  A    between atoms: C_2  and  C_4
REMARK    4  A    between atoms: C_4  and  C_5
REMARK    5  A    between atoms: C_5  and  N_6
REMARK    6  A    between atoms: C_8  and  C_9
REMARK    7  A    between atoms: N_11  and  C_12
REMARK    8  A    between atoms: C_12  and  C_13
REMARK    9  A    between atoms: C_12  and  C_14
REMARK                            x       y       z     vdW  Elec       q    Type
REMARK                         _______ _______ _______ _____ _____    ______ ____
ROOT
ATOM      1  N   UNL     1       5.582   5.297  18.749  0.00  0.00    +0.000 N 
ATOM      2  C   UNL     1       5.220   6.011  17.549  0.00  0.00    +0.000 C 
ATOM      3  C   UNL     1       6.563   6.422  16.963  0.00  0.00    +0.000 C 
ATOM      4  C   UNL     1       7.451   6.587  18.197  0.00  0.00    +0.000 C 
ATOM      5  C   UNL     1       6.869   5.589  19.167  0.00  0.00    +0.000 C 
ATOM      6  O   UNL     1       7.440   5.158  20.151  0.00  0.00    +0.000 OA
ENDROOT
BRANCH   3   7
ATOM      7  C   UNL     1       7.097   5.351  16.018  0.00  0.00    +0.000 C 
ATOM      8  O   UNL     1       7.835   4.443  16.388  0.00  0.00    +0.000 OA
ATOM      9  N   UNL     1       6.635   5.444  14.721  0.00  0.00    +0.000 N 
ATOM     10  H   UNL     1       6.144   6.276  14.422  0.00  0.00    +0.000 HD
BRANCH   9  11
ATOM     11  C   UNL     1       7.092   4.508  13.699  0.00  0.00    +0.000 C 
ATOM     12  C   UNL     1       5.923   3.682  13.180  0.00  0.00    +0.000 C 
ATOM     13  C   UNL     1       7.793   5.241  12.558  0.00  0.00    +0.000 C 
ENDBRANCH   9  11
ENDBRANCH   3   7
BRANCH   1  14
ATOM     14  C   UNL     1       4.720   4.307  19.367  0.00  0.00    +0.000 C 
BRANCH  14  15
ATOM     15  C   UNL     1       3.324   4.839  19.702  0.00  0.00    +0.000 C 
BRANCH  15  17
ATOM     16  C   UNL     1       0.986   3.990  20.221  0.00  0.00    +0.000 C 
ATOM     17  C   UNL     1       2.173   3.918  19.262  0.00  0.00    +0.000 C 
ATOM     18  C   UNL     1       1.717   4.282  17.846  0.00  0.00    +0.000 C 
ENDBRANCH  15  17
ENDBRANCH  14  15
ENDBRANCH   1  14
TORSDOF 5
ENDMDL
MODEL 2
REMARK VINA RESULT:      -6.8      1.327      1.684
REMARK  Name = 
REMARK  9 active torsions:
REMARK  status: ('A' for Active; 'I' for Inactive)
REMARK    1  A    between atoms: C_1  and  C_2
REMARK    2  A    between atoms: C_2  and  C_3
REMARK    3  A    between atoms: C_2  and  C_4
REMARK    4  A    between atoms: C_4  and  C_5
REMARK    5  A    between atoms: C_5  and  N_6
REMARK    6  A    between atoms: C_8  and  C_9
REMARK    7  A    between atoms: N_11  and  C_12
REMARK    8  A    between atoms: C_12  and  C_13
REMARK    9  A    between atoms: C_12  and  C_14
REMARK                            x       y       z     vdW  Elec       q    Type
REMARK                         _______ _______ _______ _____ _____    ______ ____
ROOT
ATOM      1  N   UNL     1       4.562   5.412  17.948  0.00  0.00    +0.000 N 
ATOM      2  C   UNL     1       5.096   6.432  17.077  0.00  0.00    +0.000 C 
ATOM      3  C   UNL     1       6.601   6.260  17.214  0.00  0.00    +0.000 C 
ATOM      4  C   UNL     1       6.770   5.738  18.642  0.00  0.00    +0.000 C 
ATOM      5  C   UNL     1       5.492   4.969  18.871  0.00  0.00    +0.000 C 
ATOM      6  O   UNL     1       5.327   4.135  19.743  0.00  0.00    +0.000 OA
ENDROOT
BRANCH   3   7
ATOM      7  C   UNL     1       7.135   5.273  16.182  0.00  0.00    +0.000 C 
ATOM      8  O   UNL     1       7.974   4.418  16.449  0.00  0.00    +0.000 OA
ATOM      9  N   UNL     1       6.553   5.370  14.935  0.00  0.00    +0.000 N 
ATOM     10  H   UNL     1       5.971   6.168  14.715  0.00  0.00    +0.000 HD
BRANCH   9  11
ATOM     11  C   UNL     1       6.992   4.513  13.839  0.00  0.00    +0.000 C 
ATOM     12  C   UNL     1       5.795   3.827  13.194  0.00  0.00    +0.000 C 
ATOM     13  C   UNL     1       7.789   5.307  12.807  0.00  0.00    +0.000 C 
ENDBRANCH   9  11
ENDBRANCH   3   7
BRANCH   1  14
ATOM     14  C   UNL     1       3.234   4.852  17.782  0.00  0.00    +0.000 C 
BRANCH  14  15
ATOM     15  C   UNL     1       3.222   3.528  17.013  0.00  0.00    +0.000 C 
BRANCH  15  17
ATOM     16  C   UNL     1       3.449   1.509  18.538  0.00  0.00    +0.000 C 
ATOM     17  C   UNL     1       2.489   2.383  17.734  0.00  0.00    +0.000 C 
ATOM     18  C   UNL     1       1.405   2.948  18.656  0.00  0.00    +0.000 C 
ENDBRANCH  15  17
ENDBRANCH  14  15
ENDBRANCH   1  14
TORSDOF 5
ENDMDL
MODEL 3
REMARK VINA RESULT:      -6.8      1.168      1.674
REMARK  Name = 
REMARK  9 active torsions:
REMARK  status: ('A' for Active; 'I' for Inactive)
REMARK    1  A    between atoms: C_1  and  C_2
REMARK    2  A    between atoms: C_2  and  C_3
REMARK    3  A    between atoms: C_2  and  C_4
REMARK    4  A    between atoms: C_4  and  C_5
REMARK    5  A    between atoms: C_5  and  N_6
REMARK    6  A    between atoms: C_8  and  C_9
REMARK    7  A    between atoms: N_11  and  C_12
REMARK    8  A    between atoms: C_12  and  C_13
REMARK    9  A    between atoms: C_12  and  C_14
REMARK                            x       y       z     vdW  Elec       q    Type
REMARK                         _______ _______ _______ _____ _____    ______ ____
ROOT
ATOM      1  N   UNL     1       4.210   4.807  18.134  0.00  0.00    +0.000 N 
ATOM      2  C   UNL     1       4.649   5.934  17.345  0.00  0.00    +0.000 C 
ATOM      3  C   UNL     1       6.161   5.914  17.513  0.00  0.00    +0.000 C 
ATOM      4  C   UNL     1       6.354   5.320  18.909  0.00  0.00    +0.000 C 
ATOM      5  C   UNL     1       5.163   4.406  19.053  0.00  0.00    +0.000 C 
ATOM      6  O   UNL     1       5.070   3.503  19.865  0.00  0.00    +0.000 OA
ENDROOT
BRANCH   3   7
ATOM      7  C   UNL     1       6.820   5.059  16.436  0.00  0.00    +0.000 C 
ATOM      8  O   UNL     1       7.841   4.407  16.634  0.00  0.00    +0.000 OA
ATOM      9  N   UNL     1       6.143   5.022  15.235  0.00  0.00    +0.000 N 
ATOM     10  H   UNL     1       5.388   5.674  15.064  0.00  0.00    +0.000 HD
BRANCH   9  11
ATOM     11  C   UNL     1       6.677   4.274  14.102  0.00  0.00    +0.000 C 
ATOM     12  C   UNL     1       5.542   3.654  13.297  0.00  0.00    +0.000 C 
ATOM     13  C   UNL     1       7.551   5.162  13.220  0.00  0.00    +0.000 C 
ENDBRANCH   9  11
ENDBRANCH   3   7
BRANCH   1  14
ATOM     14  C   UNL     1       2.953   4.121  17.895  0.00  0.00    +0.000 C 
BRANCH  14  15
ATOM     15  C   UNL     1       1.809   4.619  18.782  0.00  0.00    +0.000 C 
BRANCH  15  17
ATOM     16  C   UNL     1       1.311   2.133  18.950  0.00  0.00    +0.000 C 
ATOM     17  C   UNL     1       1.093   3.511  19.573  0.00  0.00    +0.000 C 
ATOM     18  C   UNL     1       1.574   3.504  21.027  0.00  0.00    +0.000 C 
ENDBRANCH  15  17
ENDBRANCH  14  15
ENDBRANCH   1  14
TORSDOF 5
ENDMDL
MODEL 4
REMARK VINA RESULT:      -6.7      1.861      5.906
REMARK  Name = 
REMARK  9 active torsions:
REMARK  status: ('A' for Active; 'I' for Inactive)
REMARK    1  A    between atoms: C_1  and  C_2
REMARK    2  A    between atoms: C_2  and  C_3
REMARK    3  A    between atoms: C_2  and  C_4
REMARK    4  A    between atoms: C_4  and  C_5
REMARK    5  A    between atoms: C_5  and  N_6
REMARK    6  A    between atoms: C_8  and  C_9
REMARK    7  A    between atoms: N_11  and  C_12
REMARK    8  A    between atoms: C_12  and  C_13
REMARK    9  A    between atoms: C_12  and  C_14
REMARK                            x       y       z     vdW  Elec       q    Type
REMARK                         _______ _______ _______ _____ _____    ______ ____
ROOT
ATOM      1  N   UNL     1       6.437   5.163  16.006  0.00  0.00    +0.000 N 
ATOM      2  C   UNL     1       6.799   4.568  17.270  0.00  0.00    +0.000 C 
ATOM      3  C   UNL     1       5.743   5.102  18.227  0.00  0.00    +0.000 C 
ATOM      4  C   UNL     1       5.391   6.469  17.638  0.00  0.00    +0.000 C 
ATOM      5  C   UNL     1       5.616   6.266  16.160  0.00  0.00    +0.000 C 
ATOM      6  O   UNL     1       5.169   6.981  15.282  0.00  0.00    +0.000 OA
ENDROOT
BRANCH   3   7
ATOM      7  C   UNL     1       4.532   4.177  18.277  0.00  0.00    +0.000 C 
ATOM      8  O   UNL     1       4.528   3.056  17.778  0.00  0.00    +0.000 OA
ATOM      9  N   UNL     1       3.457   4.672  18.985  0.00  0.00    +0.000 N 
ATOM     10  H   UNL     1       3.444   5.646  19.262  0.00  0.00    +0.000 HD
BRANCH   9  11
ATOM     11  C   UNL     1       2.216   3.911  19.085  0.00  0.00    +0.000 C 
ATOM     12  C   UNL     1       1.448   4.317  20.336  0.00  0.00    +0.000 C 
ATOM     13  C   UNL     1       1.359   4.092  17.834  0.00  0.00    +0.000 C 
ENDBRANCH   9  11
ENDBRANCH   3   7
BRANCH   1  14
ATOM     14  C   UNL     1       6.812   4.587  14.728  0.00  0.00    +0.000 C 
BRANCH  14  15
ATOM     15  C   UNL     1       5.635   3.968  13.970  0.00  0.00    +0.000 C 
BRANCH  15  17
ATOM     16  C   UNL     1       4.802   3.232  11.685  0.00  0.00    +0.000 C 
ATOM     17  C   UNL     1       6.011   3.351  12.611  0.00  0.00    +0.000 C 
ATOM     18  C   UNL     1       7.102   4.186  11.936  0.00  0.00    +0.000 C 
ENDBRANCH  15  17
ENDBRANCH  14  15
ENDBRANCH   1  14
TORSDOF 5
ENDMDL
MODEL 5
REMARK VINA RESULT:      -6.6      0.907      1.106
REMARK  Name = 
REMARK  9 active torsions:
REMARK  status: ('A' for Active; 'I' for Inactive)
REMARK    1  A    between atoms: C_1  and  C_2
REMARK    2  A    between atoms: C_2  and  C_3
REMARK    3  A    between atoms: C_2  and  C_4
REMARK    4  A    between atoms: C_4  and  C_5
REMARK    5  A    between atoms: C_5  and  N_6
REMARK    6  A    between atoms: C_8  and  C_9
REMARK    7  A    between atoms: N_11  and  C_12
REMARK    8  A    between atoms: C_12  and  C_13
REMARK    9  A    between atoms: C_12  and  C_14
REMARK                            x       y       z     vdW  Elec       q    Type
REMARK                         _______ _______ _______ _____ _____    ______ ____
ROOT
ATOM      1  N   UNL     1       5.643   5.763  18.826  0.00  0.00    +0.000 N 
ATOM      2  C   UNL     1       5.482   6.520  17.608  0.00  0.00    +0.000 C 
ATOM      3  C   UNL     1       6.896   6.597  17.050  0.00  0.00    +0.000 C 
ATOM      4  C   UNL     1       7.772   6.574  18.304  0.00  0.00    +0.000 C 
ATOM      5  C   UNL     1       6.953   5.755  19.271  0.00  0.00    +0.000 C 
ATOM      6  O   UNL     1       7.388   5.221  20.275  0.00  0.00    +0.000 OA
ENDROOT
BRANCH   3   7
ATOM      7  C   UNL     1       7.186   5.415  16.132  0.00  0.00    +0.000 C 
ATOM      8  O   UNL     1       7.832   4.435  16.491  0.00  0.00    +0.000 OA
ATOM      9  N   UNL     1       6.611   5.501  14.881  0.00  0.00    +0.000 N 
ATOM     10  H   UNL     1       6.205   6.376  14.575  0.00  0.00    +0.000 HD
BRANCH   9  11
ATOM     11  C   UNL     1       6.835   4.459  13.885  0.00  0.00    +0.000 C 
ATOM     12  C   UNL     1       5.506   3.879  13.420  0.00  0.00    +0.000 C 
ATOM     13  C   UNL     1       7.642   4.993  12.704  0.00  0.00    +0.000 C 
ENDBRANCH   9  11
ENDBRANCH   3   7
BRANCH   1  14
ATOM     14  C   UNL     1       4.561   5.011  19.434  0.00  0.00    +0.000 C 
BRANCH  14  15
ATOM     15  C   UNL     1       4.633   3.507  19.158  0.00  0.00    +0.000 C 
BRANCH  15  17
ATOM     16  C   UNL     1       2.164   3.450  18.558  0.00  0.00    +0.000 C 
ATOM     17  C   UNL     1       3.570   2.993  18.171  0.00  0.00    +0.000 C 
ATOM     18  C   UNL     1       3.895   3.465  16.751  0.00  0.00    +0.000 C 
ENDBRANCH  15  17
ENDBRANCH  14  15
ENDBRANCH   1  14
TORSDOF 5
ENDMDL
MODEL 6
REMARK VINA RESULT:      -6.6      1.756      5.360
REMARK  Name = 
REMARK  9 active torsions:
REMARK  status: ('A' for Active; 'I' for Inactive)
REMARK    1  A    between atoms: C_1  and  C_2
REMARK    2  A    between atoms: C_2  and  C_3
REMARK    3  A    between atoms: C_2  and  C_4
REMARK    4  A    between atoms: C_4  and  C_5
REMARK    5  A    between atoms: C_5  and  N_6
REMARK    6  A    between atoms: C_8  and  C_9
REMARK    7  A    between atoms: N_11  and  C_12
REMARK    8  A    between atoms: C_12  and  C_13
REMARK    9  A    between atoms: C_12  and  C_14
REMARK                            x       y       z     vdW  Elec       q    Type
REMARK                         _______ _______ _______ _____ _____    ______ ____
ROOT
ATOM      1  N   UNL     1       6.979   5.569  16.212  0.00  0.00    +0.000 N 
ATOM      2  C   UNL     1       7.229   4.314  16.881  0.00  0.00    +0.000 C 
ATOM      3  C   UNL     1       7.098   4.668  18.355  0.00  0.00    +0.000 C 
ATOM      4  C   UNL     1       7.546   6.129  18.409  0.00  0.00    +0.000 C 
ATOM      5  C   UNL     1       7.143   6.655  17.054  0.00  0.00    +0.000 C 
ATOM      6  O   UNL     1       7.022   7.833  16.770  0.00  0.00    +0.000 OA
ENDROOT
BRANCH   3   7
ATOM      7  C   UNL     1       5.661   4.497  18.834  0.00  0.00    +0.000 C 
ATOM      8  O   UNL     1       5.154   5.211  19.694  0.00  0.00    +0.000 OA
ATOM      9  N   UNL     1       4.948   3.515  18.178  0.00  0.00    +0.000 N 
ATOM     10  H   UNL     1       5.432   2.860  17.578  0.00  0.00    +0.000 HD
BRANCH   9  11
ATOM     11  C   UNL     1       3.571   3.214  18.557  0.00  0.00    +0.000 C 
ATOM     12  C   UNL     1       2.600   3.958  17.650  0.00  0.00    +0.000 C 
ATOM     13  C   UNL     1       3.308   1.711  18.524  0.00  0.00    +0.000 C 
ENDBRANCH   9  11
ENDBRANCH   3   7
BRANCH   1  14
ATOM     14  C   UNL     1       6.503   5.651  14.844  0.00  0.00    +0.000 C 
BRANCH  14  15
ATOM     15  C   UNL     1       5.722   4.413  14.396  0.00  0.00    +0.000 C 
BRANCH  15  17
ATOM     16  C   UNL     1       5.214   3.313  12.162  0.00  0.00    +0.000 C 
ATOM     17  C   UNL     1       6.304   3.712  13.155  0.00  0.00    +0.000 C 
ATOM     18  C   UNL     1       7.326   4.620  12.466  0.00  0.00    +0.000 C 
ENDBRANCH  15  17
ENDBRANCH  14  15
ENDBRANCH   1  14
TORSDOF 5
ENDMDL
MODEL 7
REMARK VINA RESULT:      -6.5      2.734      4.340
REMARK  Name = 
REMARK  9 active torsions:
REMARK  status: ('A' for Active; 'I' for Inactive)
REMARK    1  A    between atoms: C_1  and  C_2
REMARK    2  A    between atoms: C_2  and  C_3
REMARK    3  A    between atoms: C_2  and  C_4
REMARK    4  A    between atoms: C_4  and  C_5
REMARK    5  A    between atoms: C_5  and  N_6
REMARK    6  A    between atoms: C_8  and  C_9
REMARK    7  A    between atoms: N_11  and  C_12
REMARK    8  A    between atoms: C_12  and  C_13
REMARK    9  A    between atoms: C_12  and  C_14
REMARK                            x       y       z     vdW  Elec       q    Type
REMARK                         _______ _______ _______ _____ _____    ______ ____
ROOT
ATOM      1  N   UNL     1       1.980   3.300  19.573  0.00  0.00    +0.000 N 
ATOM      2  C   UNL     1       3.149   2.558  19.978  0.00  0.00    +0.000 C 
ATOM      3  C   UNL     1       3.918   2.373  18.678  0.00  0.00    +0.000 C 
ATOM      4  C   UNL     1       2.816   2.329  17.619  0.00  0.00    +0.000 C 
ATOM      5  C   UNL     1       1.743   3.207  18.213  0.00  0.00    +0.000 C 
ATOM      6  O   UNL     1       0.825   3.706  17.589  0.00  0.00    +0.000 OA
ENDROOT
BRANCH   3   7
ATOM      7  C   UNL     1       4.884   3.529  18.445  0.00  0.00    +0.000 C 
ATOM      8  O   UNL     1       5.429   4.139  19.360  0.00  0.00    +0.000 OA
ATOM      9  N   UNL     1       5.151   3.799  17.118  0.00  0.00    +0.000 N 
ATOM     10  H   UNL     1       4.585   3.372  16.396  0.00  0.00    +0.000 HD
BRANCH   9  11
ATOM     11  C   UNL     1       6.029   4.903  16.744  0.00  0.00    +0.000 C 
ATOM     12  C   UNL     1       7.010   4.455  15.668  0.00  0.00    +0.000 C 
ATOM     13  C   UNL     1       5.222   6.112  16.280  0.00  0.00    +0.000 C 
ENDBRANCH   9  11
ENDBRANCH   3   7
BRANCH   1  14
ATOM     14  C   UNL     1       1.220   4.133  20.487  0.00  0.00    +0.000 C 
BRANCH  14  15
ATOM     15  C   UNL     1       1.960   5.404  20.912  0.00  0.00    +0.000 C 
BRANCH  15  17
ATOM     16  C   UNL     1       1.621   7.917  20.761  0.00  0.00    +0.000 C 
ATOM     17  C   UNL     1       1.734   6.609  19.981  0.00  0.00    +0.000 C 
ATOM     18  C   UNL     1       2.872   6.709  18.962  0.00  0.00    +0.000 C 
ENDBRANCH  15  17
ENDBRANCH  14  15
ENDBRANCH   1  14
TORSDOF 5
ENDMDL
MODEL 8
REMARK VINA RESULT:      -6.5      1.065      1.109
REMARK  Name = 
REMARK  9 active torsions:
REMARK  status: ('A' for Active; 'I' for Inactive)
REMARK    1  A    between atoms: C_1  and  C_2
REMARK    2  A    between atoms: C_2  and  C_3
REMARK    3  A    between atoms: C_2  and  C_4
REMARK    4  A    between atoms: C_4  and  C_5
REMARK    5  A    between atoms: C_5  and  N_6
REMARK    6  A    between atoms: C_8  and  C_9
REMARK    7  A    between atoms: N_11  and  C_12
REMARK    8  A    between atoms: C_12  and  C_13
REMARK    9  A    between atoms: C_12  and  C_14
REMARK                            x       y       z     vdW  Elec       q    Type
REMARK                         _______ _______ _______ _____ _____    ______ ____
ROOT
ATOM      1  N   UNL     1       4.630   4.928  18.011  0.00  0.00    +0.000 N 
ATOM      2  C   UNL     1       4.703   5.886  16.934  0.00  0.00    +0.000 C 
ATOM      3  C   UNL     1       6.187   6.212  16.852  0.00  0.00    +0.000 C 
ATOM      4  C   UNL     1       6.667   6.037  18.294  0.00  0.00    +0.000 C 
ATOM      5  C   UNL     1       5.746   4.968  18.827  0.00  0.00    +0.000 C 
ATOM      6  O   UNL     1       5.958   4.297  19.821  0.00  0.00    +0.000 OA
ENDROOT
BRANCH   3   7
ATOM      7  C   UNL     1       6.903   5.266  15.896  0.00  0.00    +0.000 C 
ATOM      8  O   UNL     1       7.817   4.526  16.249  0.00  0.00    +0.000 OA
ATOM      9  N   UNL     1       6.402   5.256  14.611  0.00  0.00    +0.000 N 
ATOM     10  H   UNL     1       5.746   5.971  14.323  0.00  0.00    +0.000 HD
BRANCH   9  11
ATOM     11  C   UNL     1       7.014   4.425  13.579  0.00  0.00    +0.000 C 
ATOM     12  C   UNL     1       5.948   3.614  12.853  0.00  0.00    +0.000 C 
ATOM     13  C   UNL     1       7.818   5.274  12.597  0.00  0.00    +0.000 C 
ENDBRANCH   9  11
ENDBRANCH   3   7
BRANCH   1  14
ATOM     14  C   UNL     1       3.550   3.966  18.138  0.00  0.00    +0.000 C 
BRANCH  14  15
ATOM     15  C   UNL     1       2.719   4.147  19.411  0.00  0.00    +0.000 C 
BRANCH  15  17
ATOM     16  C   UNL     1       1.367   3.046  21.259  0.00  0.00    +0.000 C 
ATOM     17  C   UNL     1       1.978   2.879  19.869  0.00  0.00    +0.000 C 
ATOM     18  C   UNL     1       0.884   2.514  18.862  0.00  0.00    +0.000 C 
ENDBRANCH  15  17
ENDBRANCH  14  15
ENDBRANCH   1  14
TORSDOF 5
ENDMDL
MODEL 9
REMARK VINA RESULT:      -6.5      1.361      1.777
REMARK  Name = 
REMARK  9 active torsions:
REMARK  status: ('A' for Active; 'I' for Inactive)
REMARK    1  A    between atoms: C_1  and  C_2
REMARK    2  A    between atoms: C_2  and  C_3
REMARK    3  A    between atoms: C_2  and  C_4
REMARK    4  A    between atoms: C_4  and  C_5
REMARK    5  A    between atoms: C_5  and  N_6
REMARK    6  A    between atoms: C_8  and  C_9
REMARK    7  A    between atoms: N_11  and  C_12
REMARK    8  A    between atoms: C_12  and  C_13
REMARK    9  A    between atoms: C_12  and  C_14
REMARK                            x       y       z     vdW  Elec       q    Type
REMARK                         _______ _______ _______ _____ _____    ______ ____
ROOT
ATOM      1  N   UNL     1       4.645   4.210  18.546  0.00  0.00    +0.000 N 
ATOM      2  C   UNL     1       3.923   4.419  17.314  0.00  0.00    +0.000 C 
ATOM      3  C   UNL     1       4.817   5.375  16.539  0.00  0.00    +0.000 C 
ATOM      4  C   UNL     1       5.509   6.182  17.638  0.00  0.00    +0.000 C 
ATOM      5  C   UNL     1       5.582   5.200  18.781  0.00  0.00    +0.000 C 
ATOM      6  O   UNL     1       6.321   5.303  19.743  0.00  0.00    +0.000 OA
ENDROOT
BRANCH   3   7
ATOM      7  C   UNL     1       5.819   4.611  15.680  0.00  0.00    +0.000 C 
ATOM      8  O   UNL     1       6.788   4.022  16.149  0.00  0.00    +0.000 OA
ATOM      9  N   UNL     1       5.518   4.578  14.334  0.00  0.00    +0.000 N 
ATOM     10  H   UNL     1       4.795   5.183  13.967  0.00  0.00    +0.000 HD
BRANCH   9  11
ATOM     11  C   UNL     1       6.407   3.914  13.387  0.00  0.00    +0.000 C 
ATOM     12  C   UNL     1       5.603   3.294  12.252  0.00  0.00    +0.000 C 
ATOM     13  C   UNL     1       7.456   4.883  12.848  0.00  0.00    +0.000 C 
ENDBRANCH   9  11
ENDBRANCH   3   7
BRANCH   1  14
ATOM     14  C   UNL     1       4.468   3.030  19.372  0.00  0.00    +0.000 C 
BRANCH  14  15
ATOM     15  C   UNL     1       3.002   2.624  19.548  0.00  0.00    +0.000 C 
BRANCH  15  17
ATOM     16  C   UNL     1       0.936   4.035  19.988  0.00  0.00    +0.000 C 
ATOM     17  C   UNL     1       2.229   3.472  20.574  0.00  0.00    +0.000 C 
ATOM     18  C   UNL     1       1.914   2.638  21.818  0.00  0.00    +0.000 C 
ENDBRANCH  15  17
ENDBRANCH  14  15
ENDBRANCH   1  14
TORSDOF 5
ENDMDL
