MODEL 1
REMARK VINA RESULT:      -8.8      0.000      0.000
REMARK  Name = 
REMARK  6 active torsions:
REMARK  status: ('A' for Active; 'I' for Inactive)
REMARK    1  A    between atoms: C_4  and  C_5
REMARK    2  A    between atoms: C_5  and  O_6
REMARK    3  A    between atoms: O_6  and  C_7
REMARK    4  A    between atoms: N_14  and  C_15
REMARK    5  A    between atoms: C_18  and  N_19
REMARK    6  A    between atoms: N_22  and  C_23
REMARK                            x       y       z     vdW  Elec       q    Type
REMARK                         _______ _______ _______ _____ _____    ______ ____
ROOT
ATOM      1  C   UNL     1       2.706   6.951  18.777  0.00  0.00    +0.000 A 
ATOM      2  C   UNL     1       2.171   7.073  20.060  0.00  0.00    +0.000 A 
ATOM      3  C   UNL     1       1.452   8.212  20.437  0.00  0.00    +0.000 A 
ATOM      4  C   UNL     1       1.223   9.269  19.550  0.00  0.00    +0.000 A 
ATOM      5  C   UNL     1       1.777   9.139  18.269  0.00  0.00    +0.000 A 
ATOM      6  F   UNL     1       1.620  10.111  17.354  0.00  0.00    +0.000 F 
ATOM      7  C   UNL     1       2.514   8.014  17.888  0.00  0.00    +0.000 A 
ENDROOT
BRANCH   1  13
ATOM      8  O   UNL     1       1.798   4.093  18.539  0.00  0.00    +0.000 OA
ATOM      9  C   UNL     1       2.924   4.499  18.302  0.00  0.00    +0.000 C 
ATOM     10  O   UNL     1       3.908   3.662  17.842  0.00  0.00    +0.000 OA
ATOM     11  C   UNL     1       5.149   4.376  17.878  0.00  0.00    +0.000 C 
ATOM     12  C   UNL     1       4.738   5.830  17.838  0.00  0.00    +0.000 C 
ATOM     13  N   UNL     1       3.419   5.792  18.389  0.00  0.00    +0.000 N 
BRANCH  11  14
ATOM     14  C   UNL     1       6.029   4.008  16.692  0.00  0.00    +0.000 C 
BRANCH  14  15
ATOM     15  O   UNL     1       6.322   5.184  15.931  0.00  0.00    +0.000 OA
BRANCH  15  16
ATOM     16  C   UNL     1       6.616   4.886  14.614  0.00  0.00    +0.000 A 
ATOM     17  C   UNL     1       5.809   3.949  13.990  0.00  0.00    +0.000 A 
ATOM     18  C   UNL     1       6.093   3.611  12.669  0.00  0.00    +0.000 A 
ATOM     19  C   UNL     1       7.167   4.221  12.024  0.00  0.00    +0.000 A 
ATOM     20  C   UNL     1       7.914   5.148  12.734  0.00  0.00    +0.000 A 
ATOM     21  N   UNL     1       7.667   5.490  14.015  0.00  0.00    +0.000 NA
ENDBRANCH  15  16
ENDBRANCH  14  15
ENDBRANCH  11  14
ENDBRANCH   1  13
BRANCH   4  22
ATOM     22  N   UNL     1       0.415  10.317  19.964  0.00  0.00    +0.000 N 
ATOM     23  C   UNL     1       0.551  10.875  21.320  0.00  0.00    +0.000 C 
ATOM     24  C   UNL     1       0.054  12.343  21.338  0.00  0.00    +0.000 C 
ATOM     25  N   UNL     1      -1.297  12.462  20.749  0.00  0.00    +0.000 N 
ATOM     26  C   UNL     1      -1.436  11.838  19.414  0.00  0.00    +0.000 C 
ATOM     27  C   UNL     1      -0.974  10.364  19.461  0.00  0.00    +0.000 C 
BRANCH  25  28
ATOM     28  C   UNL     1      -2.310  13.220  21.312  0.00  0.00    +0.000 A 
ATOM     29  C   UNL     1      -3.303  12.559  22.069  0.00  0.00    +0.000 A 
ATOM     30  C   UNL     1      -4.335  13.236  22.725  0.00  0.00    +0.000 A 
ATOM     31  C   UNL     1      -4.403  14.619  22.663  0.00  0.00    +0.000 A 
ATOM     32  C   UNL     1      -3.453  15.313  21.922  0.00  0.00    +0.000 A 
ATOM     33  C   UNL     1      -2.432  14.628  21.239  0.00  0.00    +0.000 A 
ATOM     34 CL   UNL     1      -1.432  15.632  20.234  0.00  0.00    +0.000 Cl
ENDBRANCH  25  28
ENDBRANCH   4  22
TORSDOF 6
ENDMDL
MODEL 2
REMARK VINA RESULT:      -8.8      1.049      1.118
REMARK  Name = 
REMARK  6 active torsions:
REMARK  status: ('A' for Active; 'I' for Inactive)
REMARK    1  A    between atoms: C_4  and  C_5
REMARK    2  A    between atoms: C_5  and  O_6
REMARK    3  A    between atoms: O_6  and  C_7
REMARK    4  A    between atoms: N_14  and  C_15
REMARK    5  A    between atoms: C_18  and  N_19
REMARK    6  A    between atoms: N_22  and  C_23
REMARK                            x       y       z     vdW  Elec       q    Type
REMARK                         _______ _______ _______ _____ _____    ______ ____
ROOT
ATOM      1  C   UNL     1       2.787   6.932  18.856  0.00  0.00    +0.000 A 
ATOM      2  C   UNL     1       2.183   6.901  20.114  0.00  0.00    +0.000 A 
ATOM      3  C   UNL     1       1.382   7.959  20.555  0.00  0.00    +0.000 A 
ATOM      4  C   UNL     1       1.137   9.083  19.759  0.00  0.00    +0.000 A 
ATOM      5  C   UNL     1       1.760   9.107  18.505  0.00  0.00    +0.000 A 
ATOM      6  F   UNL     1       1.593  10.152  17.677  0.00  0.00    +0.000 F 
ATOM      7  C   UNL     1       2.580   8.064  18.061  0.00  0.00    +0.000 A 
ENDROOT
BRANCH   1  13
ATOM      8  O   UNL     1       2.024   4.118  18.117  0.00  0.00    +0.000 OA
ATOM      9  C   UNL     1       3.153   4.577  18.077  0.00  0.00    +0.000 C 
ATOM     10  O   UNL     1       4.215   3.835  17.628  0.00  0.00    +0.000 OA
ATOM     11  C   UNL     1       5.416   4.563  17.913  0.00  0.00    +0.000 C 
ATOM     12  C   UNL     1       4.957   5.998  18.024  0.00  0.00    +0.000 C 
ATOM     13  N   UNL     1       3.585   5.855  18.401  0.00  0.00    +0.000 N 
BRANCH  11  14
ATOM     14  C   UNL     1       6.442   4.385  16.804  0.00  0.00    +0.000 C 
BRANCH  14  15
ATOM     15  O   UNL     1       6.277   5.421  15.829  0.00  0.00    +0.000 OA
BRANCH  15  16
ATOM     16  C   UNL     1       6.582   4.982  14.555  0.00  0.00    +0.000 A 
ATOM     17  C   UNL     1       5.765   4.000  14.020  0.00  0.00    +0.000 A 
ATOM     18  C   UNL     1       6.060   3.521  12.746  0.00  0.00    +0.000 A 
ATOM     19  C   UNL     1       7.151   4.043  12.055  0.00  0.00    +0.000 A 
ATOM     20  C   UNL     1       7.906   5.027  12.675  0.00  0.00    +0.000 A 
ATOM     21  N   UNL     1       7.650   5.504  13.910  0.00  0.00    +0.000 NA
ENDBRANCH  15  16
ENDBRANCH  14  15
ENDBRANCH  11  14
ENDBRANCH   1  13
BRANCH   4  22
ATOM     22  N   UNL     1       0.249  10.042  20.225  0.00  0.00    +0.000 N 
ATOM     23  C   UNL     1      -0.174  10.046  21.635  0.00  0.00    +0.000 C 
ATOM     24  C   UNL     1      -0.607  11.474  22.051  0.00  0.00    +0.000 C 
ATOM     25  N   UNL     1      -1.593  12.037  21.104  0.00  0.00    +0.000 N 
ATOM     26  C   UNL     1      -1.182  11.966  19.683  0.00  0.00    +0.000 C 
ATOM     27  C   UNL     1      -0.808  10.514  19.307  0.00  0.00    +0.000 C 
BRANCH  25  28
ATOM     28  C   UNL     1      -2.734  12.714  21.502  0.00  0.00    +0.000 A 
ATOM     29  C   UNL     1      -2.723  13.372  22.753  0.00  0.00    +0.000 A 
ATOM     30  C   UNL     1      -3.800  14.129  23.222  0.00  0.00    +0.000 A 
ATOM     31  C   UNL     1      -4.935  14.273  22.441  0.00  0.00    +0.000 A 
ATOM     32  C   UNL     1      -4.996  13.637  21.207  0.00  0.00    +0.000 A 
ATOM     33  C   UNL     1      -3.923  12.851  20.749  0.00  0.00    +0.000 A 
ATOM     34 CL   UNL     1      -4.229  11.999  19.266  0.00  0.00    +0.000 Cl
ENDBRANCH  25  28
ENDBRANCH   4  22
TORSDOF 6
ENDMDL
MODEL 3
REMARK VINA RESULT:      -8.8      1.408      2.219
REMARK  Name = 
REMARK  6 active torsions:
REMARK  status: ('A' for Active; 'I' for Inactive)
REMARK    1  A    between atoms: C_4  and  C_5
REMARK    2  A    between atoms: C_5  and  O_6
REMARK    3  A    between atoms: O_6  and  C_7
REMARK    4  A    between atoms: N_14  and  C_15
REMARK    5  A    between atoms: C_18  and  N_19
REMARK    6  A    between atoms: N_22  and  C_23
REMARK                            x       y       z     vdW  Elec       q    Type
REMARK                         _______ _______ _______ _____ _____    ______ ____
ROOT
ATOM      1  C   UNL     1       2.656   7.046  18.720  0.00  0.00    +0.000 A 
ATOM      2  C   UNL     1       2.335   7.981  17.736  0.00  0.00    +0.000 A 
ATOM      3  C   UNL     1       1.576   9.115  18.039  0.00  0.00    +0.000 A 
ATOM      4  C   UNL     1       1.117   9.375  19.334  0.00  0.00    +0.000 A 
ATOM      5  C   UNL     1       1.436   8.421  20.311  0.00  0.00    +0.000 A 
ATOM      6  F   UNL     1       1.026   8.579  21.581  0.00  0.00    +0.000 F 
ATOM      7  C   UNL     1       2.177   7.272  20.015  0.00  0.00    +0.000 A 
ENDROOT
BRANCH   1  13
ATOM      8  O   UNL     1       1.952   4.123  18.805  0.00  0.00    +0.000 OA
ATOM      9  C   UNL     1       3.036   4.579  18.483  0.00  0.00    +0.000 C 
ATOM     10  O   UNL     1       4.063   3.770  18.067  0.00  0.00    +0.000 OA
ATOM     11  C   UNL     1       5.249   4.568  17.981  0.00  0.00    +0.000 C 
ATOM     12  C   UNL     1       4.732   5.978  17.813  0.00  0.00    +0.000 C 
ATOM     13  N   UNL     1       3.438   5.906  18.420  0.00  0.00    +0.000 N 
BRANCH  11  14
ATOM     14  C   UNL     1       6.113   4.142  16.802  0.00  0.00    +0.000 C 
BRANCH  14  15
ATOM     15  O   UNL     1       6.401   5.282  15.985  0.00  0.00    +0.000 OA
BRANCH  15  16
ATOM     16  C   UNL     1       6.622   4.929  14.668  0.00  0.00    +0.000 A 
ATOM     17  C   UNL     1       5.770   3.981  14.123  0.00  0.00    +0.000 A 
ATOM     18  C   UNL     1       5.981   3.588  12.804  0.00  0.00    +0.000 A 
ATOM     19  C   UNL     1       7.026   4.156  12.080  0.00  0.00    +0.000 A 
ATOM     20  C   UNL     1       7.821   5.099  12.713  0.00  0.00    +0.000 A 
ATOM     21  N   UNL     1       7.647   5.494  13.990  0.00  0.00    +0.000 NA
ENDBRANCH  15  16
ENDBRANCH  14  15
ENDBRANCH  11  14
ENDBRANCH   1  13
BRANCH   4  22
ATOM     22  N   UNL     1       0.460  10.571  19.576  0.00  0.00    +0.000 N 
ATOM     23  C   UNL     1      -0.473  11.126  18.581  0.00  0.00    +0.000 C 
ATOM     24  C   UNL     1      -1.507  12.043  19.281  0.00  0.00    +0.000 C 
ATOM     25  N   UNL     1      -0.845  13.047  20.140  0.00  0.00    +0.000 N 
ATOM     26  C   UNL     1       0.139  12.481  21.091  0.00  0.00    +0.000 C 
ATOM     27  C   UNL     1       1.175  11.616  20.338  0.00  0.00    +0.000 C 
BRANCH  25  28
ATOM     28  C   UNL     1      -1.210  14.383  20.174  0.00  0.00    +0.000 A 
ATOM     29  C   UNL     1      -0.519  15.290  19.340  0.00  0.00    +0.000 A 
ATOM     30  C   UNL     1      -0.847  16.646  19.256  0.00  0.00    +0.000 A 
ATOM     31  C   UNL     1      -1.903  17.148  20.000  0.00  0.00    +0.000 A 
ATOM     32  C   UNL     1      -2.607  16.295  20.842  0.00  0.00    +0.000 A 
ATOM     33  C   UNL     1      -2.257  14.937  20.947  0.00  0.00    +0.000 A 
ATOM     34 CL   UNL     1      -3.131  14.054  22.162  0.00  0.00    +0.000 Cl
ENDBRANCH  25  28
ENDBRANCH   4  22
TORSDOF 6
ENDMDL
MODEL 4
REMARK VINA RESULT:      -8.7      1.016      1.129
REMARK  Name = 
REMARK  6 active torsions:
REMARK  status: ('A' for Active; 'I' for Inactive)
REMARK    1  A    between atoms: C_4  and  C_5
REMARK    2  A    between atoms: C_5  and  O_6
REMARK    3  A    between atoms: O_6  and  C_7
REMARK    4  A    between atoms: N_14  and  C_15
REMARK    5  A    between atoms: C_18  and  N_19
REMARK    6  A    between atoms: N_22  and  C_23
REMARK                            x       y       z     vdW  Elec       q    Type
REMARK                         _______ _______ _______ _____ _____    ______ ____
ROOT
ATOM      1  C   UNL     1       3.010   6.877  18.731  0.00  0.00    +0.000 A 
ATOM      2  C   UNL     1       2.389   6.922  19.980  0.00  0.00    +0.000 A 
ATOM      3  C   UNL     1       1.560   7.989  20.336  0.00  0.00    +0.000 A 
ATOM      4  C   UNL     1       1.301   9.049  19.461  0.00  0.00    +0.000 A 
ATOM      5  C   UNL     1       1.941   8.999  18.215  0.00  0.00    +0.000 A 
ATOM      6  F   UNL     1       1.763   9.980  17.314  0.00  0.00    +0.000 F 
ATOM      7  C   UNL     1       2.789   7.946  17.856  0.00  0.00    +0.000 A 
ENDROOT
BRANCH   1  13
ATOM      8  O   UNL     1       2.327   3.990  18.241  0.00  0.00    +0.000 OA
ATOM      9  C   UNL     1       3.442   4.477  18.153  0.00  0.00    +0.000 C 
ATOM     10  O   UNL     1       4.524   3.731  17.760  0.00  0.00    +0.000 OA
ATOM     11  C   UNL     1       5.703   4.516  17.972  0.00  0.00    +0.000 C 
ATOM     12  C   UNL     1       5.202   5.941  17.964  0.00  0.00    +0.000 C 
ATOM     13  N   UNL     1       3.837   5.790  18.363  0.00  0.00    +0.000 N 
BRANCH  11  14
ATOM     14  C   UNL     1       6.728   4.274  16.873  0.00  0.00    +0.000 C 
BRANCH  14  15
ATOM     15  O   UNL     1       6.728   5.383  15.968  0.00  0.00    +0.000 OA
BRANCH  15  16
ATOM     16  C   UNL     1       6.840   4.974  14.653  0.00  0.00    +0.000 A 
ATOM     17  C   UNL     1       5.957   3.997  14.224  0.00  0.00    +0.000 A 
ATOM     18  C   UNL     1       6.059   3.549  12.910  0.00  0.00    +0.000 A 
ATOM     19  C   UNL     1       7.032   4.093  12.075  0.00  0.00    +0.000 A 
ATOM     20  C   UNL     1       7.867   5.069  12.598  0.00  0.00    +0.000 A 
ATOM     21  N   UNL     1       7.798   5.517  13.867  0.00  0.00    +0.000 NA
ENDBRANCH  15  16
ENDBRANCH  14  15
ENDBRANCH  11  14
ENDBRANCH   1  13
BRANCH   4  22
ATOM     22  N   UNL     1       0.386  10.018  19.846  0.00  0.00    +0.000 N 
ATOM     23  C   UNL     1       0.356  10.505  21.236  0.00  0.00    +0.000 C 
ATOM     24  C   UNL     1      -0.241  11.934  21.279  0.00  0.00    +0.000 C 
ATOM     25  N   UNL     1      -1.535  12.001  20.568  0.00  0.00    +0.000 N 
ATOM     26  C   UNL     1      -1.505  11.447  19.195  0.00  0.00    +0.000 C 
ATOM     27  C   UNL     1      -0.948  10.005  19.213  0.00  0.00    +0.000 C 
BRANCH  25  28
ATOM     28  C   UNL     1      -2.647  12.660  21.067  0.00  0.00    +0.000 A 
ATOM     29  C   UNL     1      -3.694  12.982  20.174  0.00  0.00    +0.000 A 
ATOM     30  C   UNL     1      -4.882  13.593  20.585  0.00  0.00    +0.000 A 
ATOM     31  C   UNL     1      -5.076  13.893  21.924  0.00  0.00    +0.000 A 
ATOM     32  C   UNL     1      -4.071  13.603  22.838  0.00  0.00    +0.000 A 
ATOM     33  C   UNL     1      -2.864  13.014  22.419  0.00  0.00    +0.000 A 
ATOM     34 CL   UNL     1      -1.657  12.871  23.660  0.00  0.00    +0.000 Cl
ENDBRANCH  25  28
ENDBRANCH   4  22
TORSDOF 6
ENDMDL
MODEL 5
REMARK VINA RESULT:      -8.6      1.285      1.501
REMARK  Name = 
REMARK  6 active torsions:
REMARK  status: ('A' for Active; 'I' for Inactive)
REMARK    1  A    between atoms: C_4  and  C_5
REMARK    2  A    between atoms: C_5  and  O_6
REMARK    3  A    between atoms: O_6  and  C_7
REMARK    4  A    between atoms: N_14  and  C_15
REMARK    5  A    between atoms: C_18  and  N_19
REMARK    6  A    between atoms: N_22  and  C_23
REMARK                            x       y       z     vdW  Elec       q    Type
REMARK                         _______ _______ _______ _____ _____    ______ ____
ROOT
ATOM      1  C   UNL     1       2.688   6.328  18.956  0.00  0.00    +0.000 A 
ATOM      2  C   UNL     1       2.197   6.286  20.262  0.00  0.00    +0.000 A 
ATOM      3  C   UNL     1       1.530   7.381  20.818  0.00  0.00    +0.000 A 
ATOM      4  C   UNL     1       1.309   8.558  20.095  0.00  0.00    +0.000 A 
ATOM      5  C   UNL     1       1.817   8.592  18.790  0.00  0.00    +0.000 A 
ATOM      6  F   UNL     1       1.664   9.686  18.024  0.00  0.00    +0.000 F 
ATOM      7  C   UNL     1       2.504   7.510  18.230  0.00  0.00    +0.000 A 
ENDROOT
BRANCH   1  13
ATOM      8  O   UNL     1       1.687   3.550  18.387  0.00  0.00    +0.000 OA
ATOM      9  C   UNL     1       2.813   3.957  18.153  0.00  0.00    +0.000 C 
ATOM     10  O   UNL     1       3.751   3.166  17.541  0.00  0.00    +0.000 OA
ATOM     11  C   UNL     1       5.013   3.839  17.613  0.00  0.00    +0.000 C 
ATOM     12  C   UNL     1       4.644   5.295  17.783  0.00  0.00    +0.000 C 
ATOM     13  N   UNL     1       3.349   5.215  18.386  0.00  0.00    +0.000 N 
BRANCH  11  14
ATOM     14  C   UNL     1       5.830   3.611  16.349  0.00  0.00    +0.000 C 
BRANCH  14  15
ATOM     15  O   UNL     1       6.174   4.874  15.769  0.00  0.00    +0.000 OA
BRANCH  15  16
ATOM     16  C   UNL     1       6.585   4.742  14.456  0.00  0.00    +0.000 A 
ATOM     17  C   UNL     1       5.911   3.813  13.680  0.00  0.00    +0.000 A 
ATOM     18  C   UNL     1       6.316   3.641  12.359  0.00  0.00    +0.000 A 
ATOM     19  C   UNL     1       7.371   4.403  11.863  0.00  0.00    +0.000 A 
ATOM     20  C   UNL     1       7.980   5.309  12.718  0.00  0.00    +0.000 A 
ATOM     21  N   UNL     1       7.615   5.492  14.003  0.00  0.00    +0.000 NA
ENDBRANCH  15  16
ENDBRANCH  14  15
ENDBRANCH  11  14
ENDBRANCH   1  13
BRANCH   4  22
ATOM     22  N   UNL     1       0.549   9.561  20.679  0.00  0.00    +0.000 N 
ATOM     23  C   UNL     1       0.375  10.857  20.001  0.00  0.00    +0.000 C 
ATOM     24  C   UNL     1      -0.940  11.526  20.476  0.00  0.00    +0.000 C 
ATOM     25  N   UNL     1      -1.016  11.581  21.951  0.00  0.00    +0.000 N 
ATOM     26  C   UNL     1      -0.773  10.283  22.622  0.00  0.00    +0.000 C 
ATOM     27  C   UNL     1       0.571   9.681  22.151  0.00  0.00    +0.000 C 
BRANCH  25  28
ATOM     28  C   UNL     1      -1.429  12.701  22.653  0.00  0.00    +0.000 A 
ATOM     29  C   UNL     1      -2.659  12.645  23.346  0.00  0.00    +0.000 A 
ATOM     30  C   UNL     1      -3.139  13.698  24.130  0.00  0.00    +0.000 A 
ATOM     31  C   UNL     1      -2.388  14.854  24.265  0.00  0.00    +0.000 A 
ATOM     32  C   UNL     1      -1.175  14.960  23.596  0.00  0.00    +0.000 A 
ATOM     33  C   UNL     1      -0.708  13.911  22.784  0.00  0.00    +0.000 A 
ATOM     34 CL   UNL     1       0.740  14.272  21.894  0.00  0.00    +0.000 Cl
ENDBRANCH  25  28
ENDBRANCH   4  22
TORSDOF 6
ENDMDL
MODEL 6
REMARK VINA RESULT:      -8.6      1.046      1.366
REMARK  Name = 
REMARK  6 active torsions:
REMARK  status: ('A' for Active; 'I' for Inactive)
REMARK    1  A    between atoms: C_4  and  C_5
REMARK    2  A    between atoms: C_5  and  O_6
REMARK    3  A    between atoms: O_6  and  C_7
REMARK    4  A    between atoms: N_14  and  C_15
REMARK    5  A    between atoms: C_18  and  N_19
REMARK    6  A    between atoms: N_22  and  C_23
REMARK                            x       y       z     vdW  Elec       q    Type
REMARK                         _______ _______ _______ _____ _____    ______ ____
ROOT
ATOM      1  C   UNL     1       2.749   7.204  18.539  0.00  0.00    +0.000 A 
ATOM      2  C   UNL     1       2.489   8.242  17.643  0.00  0.00    +0.000 A 
ATOM      3  C   UNL     1       1.703   9.336  18.014  0.00  0.00    +0.000 A 
ATOM      4  C   UNL     1       1.154   9.453  19.295  0.00  0.00    +0.000 A 
ATOM      5  C   UNL     1       1.412   8.398  20.182  0.00  0.00    +0.000 A 
ATOM      6  F   UNL     1       0.915   8.417  21.430  0.00  0.00    +0.000 F 
ATOM      7  C   UNL     1       2.180   7.289  19.815  0.00  0.00    +0.000 A 
ENDROOT
BRANCH   1  13
ATOM      8  O   UNL     1       1.995   4.372  17.864  0.00  0.00    +0.000 OA
ATOM      9  C   UNL     1       3.130   4.818  17.871  0.00  0.00    +0.000 C 
ATOM     10  O   UNL     1       4.208   4.050  17.512  0.00  0.00    +0.000 OA
ATOM     11  C   UNL     1       5.399   4.777  17.838  0.00  0.00    +0.000 C 
ATOM     12  C   UNL     1       4.951   6.220  17.869  0.00  0.00    +0.000 C 
ATOM     13  N   UNL     1       3.558   6.104  18.171  0.00  0.00    +0.000 N 
BRANCH  11  14
ATOM     14  C   UNL     1       6.485   4.547  16.797  0.00  0.00    +0.000 C 
BRANCH  14  15
ATOM     15  O   UNL     1       5.950   3.781  15.711  0.00  0.00    +0.000 OA
BRANCH  15  16
ATOM     16  C   UNL     1       6.490   4.163  14.498  0.00  0.00    +0.000 A 
ATOM     17  C   UNL     1       6.020   3.507  13.371  0.00  0.00    +0.000 A 
ATOM     18  C   UNL     1       6.561   3.855  12.135  0.00  0.00    +0.000 A 
ATOM     19  C   UNL     1       7.541   4.842  12.071  0.00  0.00    +0.000 A 
ATOM     20  C   UNL     1       7.942   5.441  13.255  0.00  0.00    +0.000 A 
ATOM     21  N   UNL     1       7.444   5.121  14.466  0.00  0.00    +0.000 NA
ENDBRANCH  15  16
ENDBRANCH  14  15
ENDBRANCH  11  14
ENDBRANCH   1  13
BRANCH   4  22
ATOM     22  N   UNL     1       0.473  10.616  19.620  0.00  0.00    +0.000 N 
ATOM     23  C   UNL     1       0.833  11.381  20.826  0.00  0.00    +0.000 C 
ATOM     24  C   UNL     1       0.426  12.866  20.648  0.00  0.00    +0.000 C 
ATOM     25  N   UNL     1      -0.987  12.992  20.231  0.00  0.00    +0.000 N 
ATOM     26  C   UNL     1      -1.351  12.166  19.057  0.00  0.00    +0.000 C 
ATOM     27  C   UNL     1      -0.968  10.689  19.304  0.00  0.00    +0.000 C 
BRANCH  25  28
ATOM     28  C   UNL     1      -1.865  13.912  20.779  0.00  0.00    +0.000 A 
ATOM     29  C   UNL     1      -2.887  13.440  21.633  0.00  0.00    +0.000 A 
ATOM     30  C   UNL     1      -3.788  14.288  22.281  0.00  0.00    +0.000 A 
ATOM     31  C   UNL     1      -3.689  15.660  22.111  0.00  0.00    +0.000 A 
ATOM     32  C   UNL     1      -2.705  16.172  21.274  0.00  0.00    +0.000 A 
ATOM     33  C   UNL     1      -1.817  15.315  20.599  0.00  0.00    +0.000 A 
ATOM     34 CL   UNL     1      -0.760  16.107  19.471  0.00  0.00    +0.000 Cl
ENDBRANCH  25  28
ENDBRANCH   4  22
TORSDOF 6
ENDMDL
MODEL 7
REMARK VINA RESULT:      -8.5      1.328      1.784
REMARK  Name = 
REMARK  6 active torsions:
REMARK  status: ('A' for Active; 'I' for Inactive)
REMARK    1  A    between atoms: C_4  and  C_5
REMARK    2  A    between atoms: C_5  and  O_6
REMARK    3  A    between atoms: O_6  and  C_7
REMARK    4  A    between atoms: N_14  and  C_15
REMARK    5  A    between atoms: C_18  and  N_19
REMARK    6  A    between atoms: N_22  and  C_23
REMARK                            x       y       z     vdW  Elec       q    Type
REMARK                         _______ _______ _______ _____ _____    ______ ____
ROOT
ATOM      1  C   UNL     1       2.712   7.098  18.746  0.00  0.00    +0.000 A 
ATOM      2  C   UNL     1       2.462   8.136  17.848  0.00  0.00    +0.000 A 
ATOM      3  C   UNL     1       1.698   9.246  18.222  0.00  0.00    +0.000 A 
ATOM      4  C   UNL     1       1.163   9.376  19.508  0.00  0.00    +0.000 A 
ATOM      5  C   UNL     1       1.410   8.321  20.396  0.00  0.00    +0.000 A 
ATOM      6  F   UNL     1       0.924   8.352  21.648  0.00  0.00    +0.000 F 
ATOM      7  C   UNL     1       2.156   7.196  20.026  0.00  0.00    +0.000 A 
ENDROOT
BRANCH   1  13
ATOM      8  O   UNL     1       2.025   4.170  18.664  0.00  0.00    +0.000 OA
ATOM      9  C   UNL     1       3.105   4.651  18.363  0.00  0.00    +0.000 C 
ATOM     10  O   UNL     1       4.133   3.874  17.895  0.00  0.00    +0.000 OA
ATOM     11  C   UNL     1       5.314   4.683  17.849  0.00  0.00    +0.000 C 
ATOM     12  C   UNL     1       4.788   6.097  17.767  0.00  0.00    +0.000 C 
ATOM     13  N   UNL     1       3.498   5.982  18.375  0.00  0.00    +0.000 N 
BRANCH  11  14
ATOM     14  C   UNL     1       6.173   4.332  16.642  0.00  0.00    +0.000 C 
BRANCH  14  15
ATOM     15  O   UNL     1       5.347   4.254  15.475  0.00  0.00    +0.000 OA
BRANCH  15  16
ATOM     16  C   UNL     1       6.087   4.364  14.313  0.00  0.00    +0.000 A 
ATOM     17  C   UNL     1       5.713   3.551  13.255  0.00  0.00    +0.000 A 
ATOM     18  C   UNL     1       6.453   3.623  12.077  0.00  0.00    +0.000 A 
ATOM     19  C   UNL     1       7.530   4.503  11.999  0.00  0.00    +0.000 A 
ATOM     20  C   UNL     1       7.823   5.276  13.112  0.00  0.00    +0.000 A 
ATOM     21  N   UNL     1       7.130   5.223  14.268  0.00  0.00    +0.000 NA
ENDBRANCH  15  16
ENDBRANCH  14  15
ENDBRANCH  11  14
ENDBRANCH   1  13
BRANCH   4  22
ATOM     22  N   UNL     1       0.505  10.552  19.834  0.00  0.00    +0.000 N 
ATOM     23  C   UNL     1       1.091  11.492  20.805  0.00  0.00    +0.000 C 
ATOM     24  C   UNL     1       0.559  12.923  20.540  0.00  0.00    +0.000 C 
ATOM     25  N   UNL     1      -0.918  12.945  20.467  0.00  0.00    +0.000 N 
ATOM     26  C   UNL     1      -1.496  11.949  19.536  0.00  0.00    +0.000 C 
ATOM     27  C   UNL     1      -0.972  10.535  19.873  0.00  0.00    +0.000 C 
BRANCH  25  28
ATOM     28  C   UNL     1      -1.698  13.906  21.088  0.00  0.00    +0.000 A 
ATOM     29  C   UNL     1      -1.725  15.208  20.540  0.00  0.00    +0.000 A 
ATOM     30  C   UNL     1      -2.522  16.233  21.055  0.00  0.00    +0.000 A 
ATOM     31  C   UNL     1      -3.347  15.987  22.141  0.00  0.00    +0.000 A 
ATOM     32  C   UNL     1      -3.349  14.724  22.720  0.00  0.00    +0.000 A 
ATOM     33  C   UNL     1      -2.524  13.701  22.218  0.00  0.00    +0.000 A 
ATOM     34 CL   UNL     1      -2.528  12.239  23.157  0.00  0.00    +0.000 Cl
ENDBRANCH  25  28
ENDBRANCH   4  22
TORSDOF 6
ENDMDL
MODEL 8
REMARK VINA RESULT:      -8.5      1.466      2.237
REMARK  Name = 
REMARK  6 active torsions:
REMARK  status: ('A' for Active; 'I' for Inactive)
REMARK    1  A    between atoms: C_4  and  C_5
REMARK    2  A    between atoms: C_5  and  O_6
REMARK    3  A    between atoms: O_6  and  C_7
REMARK    4  A    between atoms: N_14  and  C_15
REMARK    5  A    between atoms: C_18  and  N_19
REMARK    6  A    between atoms: N_22  and  C_23
REMARK                            x       y       z     vdW  Elec       q    Type
REMARK                         _______ _______ _______ _____ _____    ______ ____
ROOT
ATOM      1  C   UNL     1       3.174   6.842  18.517  0.00  0.00    +0.000 A 
ATOM      2  C   UNL     1       2.864   7.901  17.663  0.00  0.00    +0.000 A 
ATOM      3  C   UNL     1       1.959   8.896  18.046  0.00  0.00    +0.000 A 
ATOM      4  C   UNL     1       1.337   8.888  19.299  0.00  0.00    +0.000 A 
ATOM      5  C   UNL     1       1.648   7.812  20.142  0.00  0.00    +0.000 A 
ATOM      6  F   UNL     1       1.088   7.713  21.359  0.00  0.00    +0.000 F 
ATOM      7  C   UNL     1       2.536   6.801  19.761  0.00  0.00    +0.000 A 
ENDROOT
BRANCH   1  13
ATOM      8  O   UNL     1       2.752   3.935  17.874  0.00  0.00    +0.000 OA
ATOM      9  C   UNL     1       3.826   4.514  17.854  0.00  0.00    +0.000 C 
ATOM     10  O   UNL     1       4.980   3.877  17.477  0.00  0.00    +0.000 OA
ATOM     11  C   UNL     1       6.081   4.744  17.773  0.00  0.00    +0.000 C 
ATOM     12  C   UNL     1       5.465   6.123  17.805  0.00  0.00    +0.000 C 
ATOM     13  N   UNL     1       4.102   5.844  18.138  0.00  0.00    +0.000 N 
BRANCH  11  14
ATOM     14  C   UNL     1       7.165   4.637  16.709  0.00  0.00    +0.000 C 
BRANCH  14  15
ATOM     15  O   UNL     1       6.884   5.555  15.647  0.00  0.00    +0.000 OA
BRANCH  15  16
ATOM     16  C   UNL     1       6.789   4.915  14.426  0.00  0.00    +0.000 A 
ATOM     17  C   UNL     1       7.677   5.315  13.440  0.00  0.00    +0.000 A 
ATOM     18  C   UNL     1       7.592   4.704  12.192  0.00  0.00    +0.000 A 
ATOM     19  C   UNL     1       6.631   3.719  11.977  0.00  0.00    +0.000 A 
ATOM     20  C   UNL     1       5.791   3.386  13.028  0.00  0.00    +0.000 A 
ATOM     21  N   UNL     1       5.844   3.965  14.245  0.00  0.00    +0.000 NA
ENDBRANCH  15  16
ENDBRANCH  14  15
ENDBRANCH  11  14
ENDBRANCH   1  13
BRANCH   4  22
ATOM     22  N   UNL     1       0.533   9.963  19.645  0.00  0.00    +0.000 N 
ATOM     23  C   UNL     1      -0.244  10.677  18.618  0.00  0.00    +0.000 C 
ATOM     24  C   UNL     1      -1.476  11.356  19.266  0.00  0.00    +0.000 C 
ATOM     25  N   UNL     1      -1.088  12.177  20.434  0.00  0.00    +0.000 N 
ATOM     26  C   UNL     1      -0.252  11.465  21.427  0.00  0.00    +0.000 C 
ATOM     27  C   UNL     1       0.987  10.847  20.739  0.00  0.00    +0.000 C 
BRANCH  25  28
ATOM     28  C   UNL     1      -1.581  13.449  20.670  0.00  0.00    +0.000 A 
ATOM     29  C   UNL     1      -0.939  14.545  20.051  0.00  0.00    +0.000 A 
ATOM     30  C   UNL     1      -1.391  15.861  20.178  0.00  0.00    +0.000 A 
ATOM     31  C   UNL     1      -2.526  16.132  20.925  0.00  0.00    +0.000 A 
ATOM     32  C   UNL     1      -3.186  15.088  21.561  0.00  0.00    +0.000 A 
ATOM     33  C   UNL     1      -2.714  13.767  21.456  0.00  0.00    +0.000 A 
ATOM     34 CL   UNL     1      -3.559  12.613  22.442  0.00  0.00    +0.000 Cl
ENDBRANCH  25  28
ENDBRANCH   4  22
TORSDOF 6
ENDMDL
MODEL 9
REMARK VINA RESULT:      -8.5      1.306      1.961
REMARK  Name = 
REMARK  6 active torsions:
REMARK  status: ('A' for Active; 'I' for Inactive)
REMARK    1  A    between atoms: C_4  and  C_5
REMARK    2  A    between atoms: C_5  and  O_6
REMARK    3  A    between atoms: O_6  and  C_7
REMARK    4  A    between atoms: N_14  and  C_15
REMARK    5  A    between atoms: C_18  and  N_19
REMARK    6  A    between atoms: N_22  and  C_23
REMARK                            x       y       z     vdW  Elec       q    Type
REMARK                         _______ _______ _______ _____ _____    ______ ____
ROOT
ATOM      1  C   UNL     1       3.150   6.843  18.525  0.00  0.00    +0.000 A 
ATOM      2  C   UNL     1       2.824   7.908  17.684  0.00  0.00    +0.000 A 
ATOM      3  C   UNL     1       1.921   8.896  18.087  0.00  0.00    +0.000 A 
ATOM      4  C   UNL     1       1.316   8.875  19.348  0.00  0.00    +0.000 A 
ATOM      5  C   UNL     1       1.642   7.794  20.178  0.00  0.00    +0.000 A 
ATOM      6  F   UNL     1       1.099   7.684  21.402  0.00  0.00    +0.000 F 
ATOM      7  C   UNL     1       2.528   6.789  19.778  0.00  0.00    +0.000 A 
ENDROOT
BRANCH   1  13
ATOM      8  O   UNL     1       2.715   3.967  17.761  0.00  0.00    +0.000 OA
ATOM      9  C   UNL     1       3.794   4.536  17.786  0.00  0.00    +0.000 C 
ATOM     10  O   UNL     1       4.950   3.903  17.406  0.00  0.00    +0.000 OA
ATOM     11  C   UNL     1       6.052   4.748  17.757  0.00  0.00    +0.000 C 
ATOM     12  C   UNL     1       5.448   6.130  17.831  0.00  0.00    +0.000 C 
ATOM     13  N   UNL     1       4.076   5.851  18.126  0.00  0.00    +0.000 N 
BRANCH  11  14
ATOM     14  C   UNL     1       7.156   4.672  16.712  0.00  0.00    +0.000 C 
BRANCH  14  15
ATOM     15  O   UNL     1       6.871   5.588  15.649  0.00  0.00    +0.000 OA
BRANCH  15  16
ATOM     16  C   UNL     1       6.796   4.949  14.426  0.00  0.00    +0.000 A 
ATOM     17  C   UNL     1       7.715   5.334  13.463  0.00  0.00    +0.000 A 
ATOM     18  C   UNL     1       7.651   4.725  12.212  0.00  0.00    +0.000 A 
ATOM     19  C   UNL     1       6.680   3.755  11.973  0.00  0.00    +0.000 A 
ATOM     20  C   UNL     1       5.808   3.437  13.003  0.00  0.00    +0.000 A 
ATOM     21  N   UNL     1       5.840   4.015  14.221  0.00  0.00    +0.000 NA
ENDBRANCH  15  16
ENDBRANCH  14  15
ENDBRANCH  11  14
ENDBRANCH   1  13
BRANCH   4  22
ATOM     22  N   UNL     1       0.512   9.945  19.714  0.00  0.00    +0.000 N 
ATOM     23  C   UNL     1      -0.285  10.661  18.703  0.00  0.00    +0.000 C 
ATOM     24  C   UNL     1      -1.509  11.331  19.376  0.00  0.00    +0.000 C 
ATOM     25  N   UNL     1      -1.106  12.146  20.542  0.00  0.00    +0.000 N 
ATOM     26  C   UNL     1      -0.251  11.432  21.517  0.00  0.00    +0.000 C 
ATOM     27  C   UNL     1       0.980  10.824  20.805  0.00  0.00    +0.000 C 
BRANCH  25  28
ATOM     28  C   UNL     1      -1.601  13.415  20.794  0.00  0.00    +0.000 A 
ATOM     29  C   UNL     1      -2.565  13.570  21.815  0.00  0.00    +0.000 A 
ATOM     30  C   UNL     1      -3.085  14.812  22.187  0.00  0.00    +0.000 A 
ATOM     31  C   UNL     1      -2.642  15.963  21.554  0.00  0.00    +0.000 A 
ATOM     32  C   UNL     1      -1.701  15.860  20.537  0.00  0.00    +0.000 A 
ATOM     33  C   UNL     1      -1.200  14.606  20.144  0.00  0.00    +0.000 A 
ATOM     34 CL   UNL     1      -0.160  14.643  18.753  0.00  0.00    +0.000 Cl
ENDBRANCH  25  28
ENDBRANCH   4  22
TORSDOF 6
ENDMDL
