MODEL 1
REMARK VINA RESULT:      -9.4      0.000      0.000
REMARK  Name = 
REMARK  7 active torsions:
REMARK  status: ('A' for Active; 'I' for Inactive)
REMARK    1  A    between atoms: C_2  and  C_16
REMARK    2  A    between atoms: N_3  and  C_4
REMARK    3  A    between atoms: C_4  and  C_5
REMARK    4  A    between atoms: C_5  and  N_6
REMARK    5  A    between atoms: C_16  and  C_17
REMARK    6  A    between atoms: C_16  and  N_24
REMARK    7  A    between atoms: C_17  and  C_18
REMARK                            x       y       z     vdW  Elec       q    Type
REMARK                         _______ _______ _______ _____ _____    ______ ____
ROOT
ATOM      1  C   UNL     1       4.301   5.487  17.936  0.00  0.00    +0.000 C 
ENDROOT
BRANCH   1   2
ATOM      2  N   UNL     1       5.730   5.435  17.610  0.00  0.00    +0.000 N 
ATOM      3  C   UNL     1       6.147   5.043  16.389  0.00  0.00    +0.000 A 
ATOM      4  N   UNL     1       7.158   5.559  15.740  0.00  0.00    +0.000 NA
ATOM      5  C   UNL     1       7.062   4.998  14.492  0.00  0.00    +0.000 A 
ATOM      6  C   UNL     1       7.807   5.226  13.329  0.00  0.00    +0.000 A 
ATOM      7  C   UNL     1       7.409   4.574  12.153  0.00  0.00    +0.000 A 
ATOM      8  C   UNL     1       6.342   3.668  12.156  0.00  0.00    +0.000 A 
ATOM      9  C   UNL     1       5.622   3.386  13.329  0.00  0.00    +0.000 A 
ATOM     10  C   UNL     1       6.005   4.108  14.460  0.00  0.00    +0.000 A 
ATOM     11  O   UNL     1       5.413   4.120  15.690  0.00  0.00    +0.000 OA
ATOM     12  H   UNL     1       6.263   6.213  17.997  0.00  0.00    +0.000 HD
ENDBRANCH   1   2
BRANCH   1  14
ATOM     13  O   UNL     1       4.105   7.760  17.079  0.00  0.00    +0.000 OA
ATOM     14  C   UNL     1       3.687   6.917  17.874  0.00  0.00    +0.000 C 
ATOM     15  N   UNL     1       2.662   7.200  18.760  0.00  0.00    +0.000 N 
ATOM     16  H   UNL     1       2.552   6.573  19.549  0.00  0.00    +0.000 HD
BRANCH  15  17
ATOM     17  C   UNL     1       2.122   8.551  18.912  0.00  0.00    +0.000 C 
BRANCH  17  18
ATOM     18  C   UNL     1       1.042   8.939  17.881  0.00  0.00    +0.000 C 
BRANCH  18  19
ATOM     19  N   UNL     1       0.169  10.003  18.360  0.00  0.00    +0.000 N 
ATOM     20  C   UNL     1       0.455  10.758  19.582  0.00  0.00    +0.000 C 
ATOM     21  C   UNL     1      -0.769  11.654  19.872  0.00  0.00    +0.000 C 
ATOM     22  C   UNL     1      -1.720  11.241  18.794  0.00  0.00    +0.000 A 
ATOM     23  C   UNL     1      -3.010  11.705  18.577  0.00  0.00    +0.000 A 
ATOM     24  C   UNL     1      -3.713  11.166  17.506  0.00  0.00    +0.000 A 
ATOM     25  F   UNL     1      -4.961  11.582  17.260  0.00  0.00    +0.000 F 
ATOM     26  C   UNL     1      -3.142  10.200  16.676  0.00  0.00    +0.000 A 
ATOM     27  C   UNL     1      -1.836   9.754  16.910  0.00  0.00    +0.000 A 
ATOM     28  C   UNL     1      -1.123  10.279  17.974  0.00  0.00    +0.000 A 
ENDBRANCH  18  19
ENDBRANCH  17  18
ENDBRANCH  15  17
ENDBRANCH   1  14
BRANCH   1  29
ATOM     29  C   UNL     1       4.019   4.768  19.279  0.00  0.00    +0.000 C 
BRANCH  29  30
ATOM     30  C   UNL     1       3.665   3.254  19.275  0.00  0.00    +0.000 C 
ATOM     31  C   UNL     1       3.016   2.731  20.565  0.00  0.00    +0.000 C 
ATOM     32  C   UNL     1       1.606   3.274  20.776  0.00  0.00    +0.000 C 
ATOM     33  C   UNL     1       0.698   2.925  19.603  0.00  0.00    +0.000 C 
ATOM     34  C   UNL     1       1.289   3.382  18.273  0.00  0.00    +0.000 C 
ATOM     35  C   UNL     1       2.734   2.906  18.086  0.00  0.00    +0.000 C 
ENDBRANCH  29  30
ENDBRANCH   1  29
TORSDOF 7
ENDMDL
MODEL 2
REMARK VINA RESULT:      -9.4      1.655      2.372
REMARK  Name = 
REMARK  7 active torsions:
REMARK  status: ('A' for Active; 'I' for Inactive)
REMARK    1  A    between atoms: C_2  and  C_16
REMARK    2  A    between atoms: N_3  and  C_4
REMARK    3  A    between atoms: C_4  and  C_5
REMARK    4  A    between atoms: C_5  and  N_6
REMARK    5  A    between atoms: C_16  and  C_17
REMARK    6  A    between atoms: C_16  and  N_24
REMARK    7  A    between atoms: C_17  and  C_18
REMARK                            x       y       z     vdW  Elec       q    Type
REMARK                         _______ _______ _______ _____ _____    ______ ____
ROOT
ATOM      1  C   UNL     1       4.373   5.431  17.757  0.00  0.00    +0.000 C 
ENDROOT
BRANCH   1   2
ATOM      2  N   UNL     1       5.799   5.436  17.414  0.00  0.00    +0.000 N 
ATOM      3  C   UNL     1       6.217   5.043  16.194  0.00  0.00    +0.000 A 
ATOM      4  N   UNL     1       7.198   5.591  15.525  0.00  0.00    +0.000 NA
ATOM      5  C   UNL     1       7.111   5.007  14.287  0.00  0.00    +0.000 A 
ATOM      6  C   UNL     1       7.831   5.248  13.111  0.00  0.00    +0.000 A 
ATOM      7  C   UNL     1       7.449   4.561  11.951  0.00  0.00    +0.000 A 
ATOM      8  C   UNL     1       6.421   3.610  11.980  0.00  0.00    +0.000 A 
ATOM      9  C   UNL     1       5.728   3.316  13.167  0.00  0.00    +0.000 A 
ATOM     10  C   UNL     1       6.093   4.071  14.281  0.00  0.00    +0.000 A 
ATOM     11  O   UNL     1       5.516   4.078  15.519  0.00  0.00    +0.000 OA
ATOM     12  H   UNL     1       6.302   6.242  17.783  0.00  0.00    +0.000 HD
ENDBRANCH   1   2
BRANCH   1  14
ATOM     13  O   UNL     1       4.016   7.651  16.818  0.00  0.00    +0.000 OA
ATOM     14  C   UNL     1       3.696   6.832  17.681  0.00  0.00    +0.000 C 
ATOM     15  N   UNL     1       2.733   7.118  18.632  0.00  0.00    +0.000 N 
ATOM     16  H   UNL     1       2.711   6.526  19.454  0.00  0.00    +0.000 HD
BRANCH  15  17
ATOM     17  C   UNL     1       2.150   8.454  18.765  0.00  0.00    +0.000 C 
BRANCH  17  18
ATOM     18  C   UNL     1       1.411   8.709  20.095  0.00  0.00    +0.000 C 
BRANCH  18  19
ATOM     19  N   UNL     1       0.369   9.720  19.969  0.00  0.00    +0.000 N 
ATOM     20  C   UNL     1       0.135  10.450  18.722  0.00  0.00    +0.000 C 
ATOM     21  C   UNL     1      -0.900  11.558  19.018  0.00  0.00    +0.000 C 
ATOM     22  C   UNL     1      -1.100  11.411  20.494  0.00  0.00    +0.000 A 
ATOM     23  C   UNL     1      -1.915  12.172  21.319  0.00  0.00    +0.000 A 
ATOM     24  C   UNL     1      -1.937  11.850  22.671  0.00  0.00    +0.000 A 
ATOM     25  F   UNL     1      -2.706  12.558  23.506  0.00  0.00    +0.000 F 
ATOM     26  C   UNL     1      -1.171  10.800  23.179  0.00  0.00    +0.000 A 
ATOM     27  C   UNL     1      -0.362  10.041  22.324  0.00  0.00    +0.000 A 
ATOM     28  C   UNL     1      -0.328  10.349  20.975  0.00  0.00    +0.000 A 
ENDBRANCH  18  19
ENDBRANCH  17  18
ENDBRANCH  15  17
ENDBRANCH   1  14
BRANCH   1  29
ATOM     29  C   UNL     1       4.138   4.723  19.115  0.00  0.00    +0.000 C 
BRANCH  29  30
ATOM     30  C   UNL     1       3.753   3.217  19.134  0.00  0.00    +0.000 C 
ATOM     31  C   UNL     1       3.130   2.717  20.446  0.00  0.00    +0.000 C 
ATOM     32  C   UNL     1       1.737   3.292  20.692  0.00  0.00    +0.000 C 
ATOM     33  C   UNL     1       0.790   2.953  19.547  0.00  0.00    +0.000 C 
ATOM     34  C   UNL     1       1.354   3.386  18.197  0.00  0.00    +0.000 C 
ATOM     35  C   UNL     1       2.782   2.879  17.974  0.00  0.00    +0.000 C 
ENDBRANCH  29  30
ENDBRANCH   1  29
TORSDOF 7
ENDMDL
MODEL 3
REMARK VINA RESULT:      -9.1      0.762      1.030
REMARK  Name = 
REMARK  7 active torsions:
REMARK  status: ('A' for Active; 'I' for Inactive)
REMARK    1  A    between atoms: C_2  and  C_16
REMARK    2  A    between atoms: N_3  and  C_4
REMARK    3  A    between atoms: C_4  and  C_5
REMARK    4  A    between atoms: C_5  and  N_6
REMARK    5  A    between atoms: C_16  and  C_17
REMARK    6  A    between atoms: C_16  and  N_24
REMARK    7  A    between atoms: C_17  and  C_18
REMARK                            x       y       z     vdW  Elec       q    Type
REMARK                         _______ _______ _______ _____ _____    ______ ____
ROOT
ATOM      1  C   UNL     1       4.225   5.547  17.685  0.00  0.00    +0.000 C 
ENDROOT
BRANCH   1   2
ATOM      2  N   UNL     1       5.656   5.402  17.395  0.00  0.00    +0.000 N 
ATOM      3  C   UNL     1       6.077   4.993  16.181  0.00  0.00    +0.000 A 
ATOM      4  N   UNL     1       7.137   5.445  15.563  0.00  0.00    +0.000 NA
ATOM      5  C   UNL     1       7.036   4.903  14.307  0.00  0.00    +0.000 A 
ATOM      6  C   UNL     1       7.824   5.090  13.167  0.00  0.00    +0.000 A 
ATOM      7  C   UNL     1       7.415   4.476  11.974  0.00  0.00    +0.000 A 
ATOM      8  C   UNL     1       6.290   3.644  11.940  0.00  0.00    +0.000 A 
ATOM      9  C   UNL     1       5.522   3.400  13.092  0.00  0.00    +0.000 A 
ATOM     10  C   UNL     1       5.923   4.085  14.239  0.00  0.00    +0.000 A 
ATOM     11  O   UNL     1       5.301   4.127  15.455  0.00  0.00    +0.000 OA
ATOM     12  H   UNL     1       6.229   6.139  17.803  0.00  0.00    +0.000 HD
ENDBRANCH   1   2
BRANCH   1  14
ATOM     13  O   UNL     1       4.497   7.962  17.509  0.00  0.00    +0.000 OA
ATOM     14  C   UNL     1       3.737   7.024  17.753  0.00  0.00    +0.000 C 
ATOM     15  N   UNL     1       2.417   7.234  18.112  0.00  0.00    +0.000 N 
ATOM     16  H   UNL     1       1.933   6.460  18.551  0.00  0.00    +0.000 HD
BRANCH  15  17
ATOM     17  C   UNL     1       1.890   8.574  18.372  0.00  0.00    +0.000 C 
BRANCH  17  18
ATOM     18  C   UNL     1       1.298   8.776  19.782  0.00  0.00    +0.000 C 
BRANCH  18  19
ATOM     19  N   UNL     1       0.539  10.015  19.897  0.00  0.00    +0.000 N 
ATOM     20  C   UNL     1       0.738  10.953  21.004  0.00  0.00    +0.000 C 
ATOM     21  C   UNL     1      -0.359  12.035  20.900  0.00  0.00    +0.000 C 
ATOM     22  C   UNL     1      -1.175  11.542  19.747  0.00  0.00    +0.000 A 
ATOM     23  C   UNL     1      -2.321  12.113  19.214  0.00  0.00    +0.000 A 
ATOM     24  C   UNL     1      -2.916  11.468  18.136  0.00  0.00    +0.000 A 
ATOM     25  F   UNL     1      -4.026  11.980  17.591  0.00  0.00    +0.000 F 
ATOM     26  C   UNL     1      -2.379  10.293  17.607  0.00  0.00    +0.000 A 
ATOM     27  C   UNL     1      -1.216   9.741  18.157  0.00  0.00    +0.000 A 
ATOM     28  C   UNL     1      -0.612  10.370  19.233  0.00  0.00    +0.000 A 
ENDBRANCH  18  19
ENDBRANCH  17  18
ENDBRANCH  15  17
ENDBRANCH   1  14
BRANCH   1  29
ATOM     29  C   UNL     1       3.835   4.726  18.939  0.00  0.00    +0.000 C 
BRANCH  29  30
ATOM     30  C   UNL     1       2.999   3.425  18.771  0.00  0.00    +0.000 C 
ATOM     31  C   UNL     1       3.278   2.328  19.809  0.00  0.00    +0.000 C 
ATOM     32  C   UNL     1       2.797   2.706  21.207  0.00  0.00    +0.000 C 
ATOM     33  C   UNL     1       1.304   3.009  21.215  0.00  0.00    +0.000 C 
ATOM     34  C   UNL     1       0.935   4.069  20.181  0.00  0.00    +0.000 C 
ATOM     35  C   UNL     1       1.480   3.737  18.789  0.00  0.00    +0.000 C 
ENDBRANCH  29  30
ENDBRANCH   1  29
TORSDOF 7
ENDMDL
MODEL 4
REMARK VINA RESULT:      -9.1      2.086      2.539
REMARK  Name = 
REMARK  7 active torsions:
REMARK  status: ('A' for Active; 'I' for Inactive)
REMARK    1  A    between atoms: C_2  and  C_16
REMARK    2  A    between atoms: N_3  and  C_4
REMARK    3  A    between atoms: C_4  and  C_5
REMARK    4  A    between atoms: C_5  and  N_6
REMARK    5  A    between atoms: C_16  and  C_17
REMARK    6  A    between atoms: C_16  and  N_24
REMARK    7  A    between atoms: C_17  and  C_18
REMARK                            x       y       z     vdW  Elec       q    Type
REMARK                         _______ _______ _______ _____ _____    ______ ____
ROOT
ATOM      1  C   UNL     1       4.530   4.587  18.028  0.00  0.00    +0.000 C 
ENDROOT
BRANCH   1   2
ATOM      2  N   UNL     1       5.954   4.614  17.675  0.00  0.00    +0.000 N 
ATOM      3  C   UNL     1       6.352   4.466  16.395  0.00  0.00    +0.000 A 
ATOM      4  N   UNL     1       7.347   5.107  15.841  0.00  0.00    +0.000 NA
ATOM      5  C   UNL     1       7.233   4.794  14.510  0.00  0.00    +0.000 A 
ATOM      6  C   UNL     1       7.955   5.246  13.401  0.00  0.00    +0.000 A 
ATOM      7  C   UNL     1       7.542   4.826  12.129  0.00  0.00    +0.000 A 
ATOM      8  C   UNL     1       6.482   3.925  11.975  0.00  0.00    +0.000 A 
ATOM      9  C   UNL     1       5.785   3.416  13.085  0.00  0.00    +0.000 A 
ATOM     10  C   UNL     1       6.182   3.914  14.326  0.00  0.00    +0.000 A 
ATOM     11  O   UNL     1       5.612   3.685  15.546  0.00  0.00    +0.000 OA
ATOM     12  H   UNL     1       6.487   5.309  18.195  0.00  0.00    +0.000 HD
ENDBRANCH   1   2
BRANCH   1  14
ATOM     13  O   UNL     1       4.246   6.712  16.869  0.00  0.00    +0.000 OA
ATOM     14  C   UNL     1       3.751   5.874  17.624  0.00  0.00    +0.000 C 
ATOM     15  N   UNL     1       2.487   6.038  18.162  0.00  0.00    +0.000 N 
ATOM     16  H   UNL     1       2.253   5.467  18.966  0.00  0.00    +0.000 HD
BRANCH  15  17
ATOM     17  C   UNL     1       1.730   7.279  17.992  0.00  0.00    +0.000 C 
BRANCH  17  18
ATOM     18  C   UNL     1       2.399   8.535  18.586  0.00  0.00    +0.000 C 
BRANCH  18  19
ATOM     19  N   UNL     1       1.431   9.538  19.008  0.00  0.00    +0.000 N 
ATOM     20  C   UNL     1       1.229  10.788  18.271  0.00  0.00    +0.000 C 
ATOM     21  C   UNL     1       0.281  11.674  19.109  0.00  0.00    +0.000 C 
ATOM     22  C   UNL     1       0.097  10.852  20.345  0.00  0.00    +0.000 A 
ATOM     23  C   UNL     1      -0.647  11.170  21.472  0.00  0.00    +0.000 A 
ATOM     24  C   UNL     1      -0.668  10.243  22.508  0.00  0.00    +0.000 A 
ATOM     25  F   UNL     1      -1.370  10.508  23.616  0.00  0.00    +0.000 F 
ATOM     26  C   UNL     1       0.029   9.037  22.417  0.00  0.00    +0.000 A 
ATOM     27  C   UNL     1       0.766   8.736  21.265  0.00  0.00    +0.000 A 
ATOM     28  C   UNL     1       0.799   9.649  20.225  0.00  0.00    +0.000 A 
ENDBRANCH  18  19
ENDBRANCH  17  18
ENDBRANCH  15  17
ENDBRANCH   1  14
BRANCH   1  29
ATOM     29  C   UNL     1       4.342   4.213  19.519  0.00  0.00    +0.000 C 
BRANCH  29  30
ATOM     30  C   UNL     1       3.826   2.794  19.892  0.00  0.00    +0.000 C 
ATOM     31  C   UNL     1       2.720   2.758  20.956  0.00  0.00    +0.000 C 
ATOM     32  C   UNL     1       1.399   3.335  20.450  0.00  0.00    +0.000 C 
ATOM     33  C   UNL     1       0.907   2.588  19.216  0.00  0.00    +0.000 C 
ATOM     34  C   UNL     1       1.966   2.547  18.119  0.00  0.00    +0.000 C 
ATOM     35  C   UNL     1       3.318   2.043  18.635  0.00  0.00    +0.000 C 
ENDBRANCH  29  30
ENDBRANCH   1  29
TORSDOF 7
ENDMDL
MODEL 5
REMARK VINA RESULT:      -9.0      1.360      1.775
REMARK  Name = 
REMARK  7 active torsions:
REMARK  status: ('A' for Active; 'I' for Inactive)
REMARK    1  A    between atoms: C_2  and  C_16
REMARK    2  A    between atoms: N_3  and  C_4
REMARK    3  A    between atoms: C_4  and  C_5
REMARK    4  A    between atoms: C_5  and  N_6
REMARK    5  A    between atoms: C_16  and  C_17
REMARK    6  A    between atoms: C_16  and  N_24
REMARK    7  A    between atoms: C_17  and  C_18
REMARK                            x       y       z     vdW  Elec       q    Type
REMARK                         _______ _______ _______ _____ _____    ______ ____
ROOT
ATOM      1  C   UNL     1       4.697   4.944  18.065  0.00  0.00    +0.000 C 
ENDROOT
BRANCH   1   2
ATOM      2  N   UNL     1       6.084   5.120  17.621  0.00  0.00    +0.000 N 
ATOM      3  C   UNL     1       6.445   4.840  16.353  0.00  0.00    +0.000 A 
ATOM      4  N   UNL     1       7.307   5.525  15.649  0.00  0.00    +0.000 NA
ATOM      5  C   UNL     1       7.186   5.001  14.387  0.00  0.00    +0.000 A 
ATOM      6  C   UNL     1       7.783   5.380  13.180  0.00  0.00    +0.000 A 
ATOM      7  C   UNL     1       7.384   4.718  12.010  0.00  0.00    +0.000 A 
ATOM      8  C   UNL     1       6.467   3.662  12.056  0.00  0.00    +0.000 A 
ATOM      9  C   UNL     1       5.902   3.232  13.270  0.00  0.00    +0.000 A 
ATOM     10  C   UNL     1       6.273   3.963  14.399  0.00  0.00    +0.000 A 
ATOM     11  O   UNL     1       5.796   3.842  15.673  0.00  0.00    +0.000 OA
ATOM     12  H   UNL     1       6.528   5.956  18.001  0.00  0.00    +0.000 HD
ENDBRANCH   1   2
BRANCH   1  14
ATOM     13  O   UNL     1       4.081   7.209  17.409  0.00  0.00    +0.000 OA
ATOM     14  C   UNL     1       3.895   6.273  18.189  0.00  0.00    +0.000 C 
ATOM     15  N   UNL     1       2.977   6.361  19.221  0.00  0.00    +0.000 N 
ATOM     16  H   UNL     1       3.064   5.683  19.970  0.00  0.00    +0.000 HD
BRANCH  15  17
ATOM     17  C   UNL     1       2.289   7.612  19.540  0.00  0.00    +0.000 C 
BRANCH  17  18
ATOM     18  C   UNL     1       1.301   7.526  20.721  0.00  0.00    +0.000 C 
BRANCH  18  19
ATOM     19  N   UNL     1       0.768   8.828  21.100  0.00  0.00    +0.000 N 
ATOM     20  C   UNL     1       0.628   9.239  22.499  0.00  0.00    +0.000 C 
ATOM     21  C   UNL     1      -0.140  10.578  22.516  0.00  0.00    +0.000 C 
ATOM     22  C   UNL     1      -0.464  10.771  21.068  0.00  0.00    +0.000 A 
ATOM     23  C   UNL     1      -1.176  11.811  20.490  0.00  0.00    +0.000 A 
ATOM     24  C   UNL     1      -1.357  11.775  19.112  0.00  0.00    +0.000 A 
ATOM     25  F   UNL     1      -2.040  12.755  18.510  0.00  0.00    +0.000 F 
ATOM     26  C   UNL     1      -0.838  10.735  18.339  0.00  0.00    +0.000 A 
ATOM     27  C   UNL     1      -0.115   9.701  18.946  0.00  0.00    +0.000 A 
ATOM     28  C   UNL     1       0.073   9.721  20.317  0.00  0.00    +0.000 A 
ENDBRANCH  18  19
ENDBRANCH  17  18
ENDBRANCH  15  17
ENDBRANCH   1  14
BRANCH   1  29
ATOM     29  C   UNL     1       4.639   4.085  19.353  0.00  0.00    +0.000 C 
BRANCH  29  30
ATOM     30  C   UNL     1       4.001   2.668  19.297  0.00  0.00    +0.000 C 
ATOM     31  C   UNL     1       2.976   2.367  20.399  0.00  0.00    +0.000 C 
ATOM     32  C   UNL     1       1.693   3.180  20.247  0.00  0.00    +0.000 C 
ATOM     33  C   UNL     1       1.036   2.927  18.895  0.00  0.00    +0.000 C 
ATOM     34  C   UNL     1       2.004   3.169  17.740  0.00  0.00    +0.000 C 
ATOM     35  C   UNL     1       3.326   2.418  17.923  0.00  0.00    +0.000 C 
ENDBRANCH  29  30
ENDBRANCH   1  29
TORSDOF 7
ENDMDL
MODEL 6
REMARK VINA RESULT:      -8.9      2.053      2.411
REMARK  Name = 
REMARK  7 active torsions:
REMARK  status: ('A' for Active; 'I' for Inactive)
REMARK    1  A    between atoms: C_2  and  C_16
REMARK    2  A    between atoms: N_3  and  C_4
REMARK    3  A    between atoms: C_4  and  C_5
REMARK    4  A    between atoms: C_5  and  N_6
REMARK    5  A    between atoms: C_16  and  C_17
REMARK    6  A    between atoms: C_16  and  N_24
REMARK    7  A    between atoms: C_17  and  C_18
REMARK                            x       y       z     vdW  Elec       q    Type
REMARK                         _______ _______ _______ _____ _____    ______ ____
ROOT
ATOM      1  C   UNL     1       4.927   4.326  18.156  0.00  0.00    +0.000 C 
ENDROOT
BRANCH   1   2
ATOM      2  N   UNL     1       6.312   4.363  17.674  0.00  0.00    +0.000 N 
ATOM      3  C   UNL     1       6.587   4.281  16.356  0.00  0.00    +0.000 A 
ATOM      4  N   UNL     1       7.534   4.944  15.745  0.00  0.00    +0.000 NA
ATOM      5  C   UNL     1       7.293   4.704  14.417  0.00  0.00    +0.000 A 
ATOM      6  C   UNL     1       7.914   5.211  13.270  0.00  0.00    +0.000 A 
ATOM      7  C   UNL     1       7.380   4.862  12.021  0.00  0.00    +0.000 A 
ATOM      8  C   UNL     1       6.299   3.978  11.920  0.00  0.00    +0.000 A 
ATOM      9  C   UNL     1       5.703   3.415  13.062  0.00  0.00    +0.000 A 
ATOM     10  C   UNL     1       6.220   3.842  14.285  0.00  0.00    +0.000 A 
ATOM     11  O   UNL     1       5.763   3.552  15.539  0.00  0.00    +0.000 OA
ATOM     12  H   UNL     1       6.900   5.026  18.177  0.00  0.00    +0.000 HD
ENDBRANCH   1   2
BRANCH   1  14
ATOM     13  O   UNL     1       4.135   6.016  19.724  0.00  0.00    +0.000 OA
ATOM     14  C   UNL     1       4.354   5.720  18.548  0.00  0.00    +0.000 C 
ATOM     15  N   UNL     1       4.091   6.605  17.517  0.00  0.00    +0.000 N 
ATOM     16  H   UNL     1       4.038   6.216  16.582  0.00  0.00    +0.000 HD
BRANCH  15  17
ATOM     17  C   UNL     1       3.399   7.874  17.744  0.00  0.00    +0.000 C 
BRANCH  17  18
ATOM     18  C   UNL     1       1.915   7.741  18.145  0.00  0.00    +0.000 C 
BRANCH  18  19
ATOM     19  N   UNL     1       1.604   8.450  19.379  0.00  0.00    +0.000 N 
ATOM     20  C   UNL     1       1.545   7.773  20.676  0.00  0.00    +0.000 C 
ATOM     21  C   UNL     1       1.004   8.788  21.707  0.00  0.00    +0.000 C 
ATOM     22  C   UNL     1       0.703   9.975  20.847  0.00  0.00    +0.000 A 
ATOM     23  C   UNL     1       0.163  11.191  21.240  0.00  0.00    +0.000 A 
ATOM     24  C   UNL     1      -0.034  12.152  20.255  0.00  0.00    +0.000 A 
ATOM     25  F   UNL     1      -0.555  13.339  20.586  0.00  0.00    +0.000 F 
ATOM     26  C   UNL     1       0.302  11.906  18.923  0.00  0.00    +0.000 A 
ATOM     27  C   UNL     1       0.854  10.673  18.553  0.00  0.00    +0.000 A 
ATOM     28  C   UNL     1       1.055   9.704  19.522  0.00  0.00    +0.000 A 
ENDBRANCH  18  19
ENDBRANCH  17  18
ENDBRANCH  15  17
ENDBRANCH   1  14
BRANCH   1  29
ATOM     29  C   UNL     1       4.766   3.272  19.279  0.00  0.00    +0.000 C 
BRANCH  29  30
ATOM     30  C   UNL     1       3.640   2.206  19.169  0.00  0.00    +0.000 C 
ATOM     31  C   UNL     1       2.472   2.384  20.150  0.00  0.00    +0.000 C 
ATOM     32  C   UNL     1       1.624   3.615  19.838  0.00  0.00    +0.000 C 
ATOM     33  C   UNL     1       1.062   3.554  18.423  0.00  0.00    +0.000 C 
ATOM     34  C   UNL     1       2.160   3.341  17.385  0.00  0.00    +0.000 C 
ATOM     35  C   UNL     1       3.064   2.154  17.731  0.00  0.00    +0.000 C 
ENDBRANCH  29  30
ENDBRANCH   1  29
TORSDOF 7
ENDMDL
MODEL 7
REMARK VINA RESULT:      -8.8      1.731      2.437
REMARK  Name = 
REMARK  7 active torsions:
REMARK  status: ('A' for Active; 'I' for Inactive)
REMARK    1  A    between atoms: C_2  and  C_16
REMARK    2  A    between atoms: N_3  and  C_4
REMARK    3  A    between atoms: C_4  and  C_5
REMARK    4  A    between atoms: C_5  and  N_6
REMARK    5  A    between atoms: C_16  and  C_17
REMARK    6  A    between atoms: C_16  and  N_24
REMARK    7  A    between atoms: C_17  and  C_18
REMARK                            x       y       z     vdW  Elec       q    Type
REMARK                         _______ _______ _______ _____ _____    ______ ____
ROOT
ATOM      1  C   UNL     1       4.180   5.517  17.952  0.00  0.00    +0.000 C 
ENDROOT
BRANCH   1   2
ATOM      2  N   UNL     1       5.607   5.331  17.665  0.00  0.00    +0.000 N 
ATOM      3  C   UNL     1       6.021   4.951  16.439  0.00  0.00    +0.000 A 
ATOM      4  N   UNL     1       7.101   5.387  15.844  0.00  0.00    +0.000 NA
ATOM      5  C   UNL     1       6.990   4.894  14.569  0.00  0.00    +0.000 A 
ATOM      6  C   UNL     1       7.792   5.094  13.440  0.00  0.00    +0.000 A 
ATOM      7  C   UNL     1       7.369   4.538  12.224  0.00  0.00    +0.000 A 
ATOM      8  C   UNL     1       6.215   3.749  12.153  0.00  0.00    +0.000 A 
ATOM      9  C   UNL     1       5.431   3.493  13.291  0.00  0.00    +0.000 A 
ATOM     10  C   UNL     1       5.848   4.121  14.465  0.00  0.00    +0.000 A 
ATOM     11  O   UNL     1       5.220   4.141  15.678  0.00  0.00    +0.000 OA
ATOM     12  H   UNL     1       6.203   6.031  18.103  0.00  0.00    +0.000 HD
ENDBRANCH   1   2
BRANCH   1  14
ATOM     13  O   UNL     1       4.312   7.739  16.959  0.00  0.00    +0.000 OA
ATOM     14  C   UNL     1       3.647   6.943  17.624  0.00  0.00    +0.000 C 
ATOM     15  N   UNL     1       2.401   7.279  18.124  0.00  0.00    +0.000 N 
ATOM     16  H   UNL     1       2.035   6.697  18.870  0.00  0.00    +0.000 HD
BRANCH  15  17
ATOM     17  C   UNL     1       1.869   8.638  18.027  0.00  0.00    +0.000 C 
BRANCH  17  18
ATOM     18  C   UNL     1       1.242   9.185  19.326  0.00  0.00    +0.000 C 
BRANCH  18  19
ATOM     19  N   UNL     1       0.360  10.319  19.087  0.00  0.00    +0.000 N 
ATOM     20  C   UNL     1      -0.984  10.159  18.525  0.00  0.00    +0.000 C 
ATOM     21  C   UNL     1      -1.538  11.572  18.236  0.00  0.00    +0.000 C 
ATOM     22  C   UNL     1      -0.372  12.442  18.587  0.00  0.00    +0.000 A 
ATOM     23  C   UNL     1      -0.289  13.824  18.497  0.00  0.00    +0.000 A 
ATOM     24  C   UNL     1       0.908  14.419  18.879  0.00  0.00    +0.000 A 
ATOM     25  F   UNL     1       1.036  15.749  18.807  0.00  0.00    +0.000 F 
ATOM     26  C   UNL     1       1.983  13.657  19.339  0.00  0.00    +0.000 A 
ATOM     27  C   UNL     1       1.871  12.264  19.429  0.00  0.00    +0.000 A 
ATOM     28  C   UNL     1       0.686  11.655  19.051  0.00  0.00    +0.000 A 
ENDBRANCH  18  19
ENDBRANCH  17  18
ENDBRANCH  15  17
ENDBRANCH   1  14
BRANCH   1  29
ATOM     29  C   UNL     1       3.849   5.068  19.397  0.00  0.00    +0.000 C 
BRANCH  29  30
ATOM     30  C   UNL     1       3.628   3.558  19.696  0.00  0.00    +0.000 C 
ATOM     31  C   UNL     1       2.691   3.254  20.873  0.00  0.00    +0.000 C 
ATOM     32  C   UNL     1       1.239   3.623  20.580  0.00  0.00    +0.000 C 
ATOM     33  C   UNL     1       0.721   2.890  19.348  0.00  0.00    +0.000 C 
ATOM     34  C   UNL     1       1.620   3.112  18.136  0.00  0.00    +0.000 C 
ATOM     35  C   UNL     1       3.092   2.818  18.443  0.00  0.00    +0.000 C 
ENDBRANCH  29  30
ENDBRANCH   1  29
TORSDOF 7
ENDMDL
MODEL 8
REMARK VINA RESULT:      -8.7      2.171      2.882
REMARK  Name = 
REMARK  7 active torsions:
REMARK  status: ('A' for Active; 'I' for Inactive)
REMARK    1  A    between atoms: C_2  and  C_16
REMARK    2  A    between atoms: N_3  and  C_4
REMARK    3  A    between atoms: C_4  and  C_5
REMARK    4  A    between atoms: C_5  and  N_6
REMARK    5  A    between atoms: C_16  and  C_17
REMARK    6  A    between atoms: C_16  and  N_24
REMARK    7  A    between atoms: C_17  and  C_18
REMARK                            x       y       z     vdW  Elec       q    Type
REMARK                         _______ _______ _______ _____ _____    ______ ____
ROOT
ATOM      1  C   UNL     1       3.310   6.005  17.446  0.00  0.00    +0.000 C 
ENDROOT
BRANCH   1   2
ATOM      2  N   UNL     1       4.765   5.822  17.448  0.00  0.00    +0.000 N 
ATOM      3  C   UNL     1       5.402   5.337  16.363  0.00  0.00    +0.000 A 
ATOM      4  N   UNL     1       6.572   5.736  15.939  0.00  0.00    +0.000 NA
ATOM      5  C   UNL     1       6.702   5.123  14.719  0.00  0.00    +0.000 A 
ATOM      6  C   UNL     1       7.700   5.231  13.744  0.00  0.00    +0.000 A 
ATOM      7  C   UNL     1       7.513   4.554  12.531  0.00  0.00    +0.000 A 
ATOM      8  C   UNL     1       6.394   3.738  12.325  0.00  0.00    +0.000 A 
ATOM      9  C   UNL     1       5.413   3.574  13.318  0.00  0.00    +0.000 A 
ATOM     10  C   UNL     1       5.602   4.319  14.481  0.00  0.00    +0.000 A 
ATOM     11  O   UNL     1       4.759   4.441  15.549  0.00  0.00    +0.000 OA
ATOM     12  H   UNL     1       5.267   6.574  17.919  0.00  0.00    +0.000 HD
ENDBRANCH   1   2
BRANCH   1  14
ATOM     13  O   UNL     1       2.644   7.317  19.389  0.00  0.00    +0.000 OA
ATOM     14  C   UNL     1       2.830   7.297  18.171  0.00  0.00    +0.000 C 
ATOM     15  N   UNL     1       2.611   8.415  17.385  0.00  0.00    +0.000 N 
ATOM     16  H   UNL     1       2.522   8.262  16.387  0.00  0.00    +0.000 HD
BRANCH  15  17
ATOM     17  C   UNL     1       2.002   9.631  17.923  0.00  0.00    +0.000 C 
BRANCH  17  18
ATOM     18  C   UNL     1       0.460   9.655  17.891  0.00  0.00    +0.000 C 
BRANCH  18  19
ATOM     19  N   UNL     1      -0.113  10.318  19.054  0.00  0.00    +0.000 N 
ATOM     20  C   UNL     1      -0.647  11.681  18.994  0.00  0.00    +0.000 C 
ATOM     21  C   UNL     1      -0.984  12.113  20.438  0.00  0.00    +0.000 C 
ATOM     22  C   UNL     1      -0.504  10.941  21.234  0.00  0.00    +0.000 A 
ATOM     23  C   UNL     1      -0.529  10.785  22.613  0.00  0.00    +0.000 A 
ATOM     24  C   UNL     1      -0.019   9.601  23.132  0.00  0.00    +0.000 A 
ATOM     25  F   UNL     1      -0.020   9.406  24.456  0.00  0.00    +0.000 F 
ATOM     26  C   UNL     1       0.495   8.605  22.300  0.00  0.00    +0.000 A 
ATOM     27  C   UNL     1       0.502   8.783  20.911  0.00  0.00    +0.000 A 
ATOM     28  C   UNL     1      -0.001   9.957  20.378  0.00  0.00    +0.000 A 
ENDBRANCH  18  19
ENDBRANCH  17  18
ENDBRANCH  15  17
ENDBRANCH   1  14
BRANCH   1  29
ATOM     29  C   UNL     1       2.597   4.728  17.959  0.00  0.00    +0.000 C 
BRANCH  29  30
ATOM     30  C   UNL     1       3.325   3.802  18.973  0.00  0.00    +0.000 C 
ATOM     31  C   UNL     1       3.269   4.261  20.437  0.00  0.00    +0.000 C 
ATOM     32  C   UNL     1       1.866   4.160  21.031  0.00  0.00    +0.000 C 
ATOM     33  C   UNL     1       1.335   2.734  20.952  0.00  0.00    +0.000 C 
ATOM     34  C   UNL     1       1.390   2.186  19.529  0.00  0.00    +0.000 C 
ATOM     35  C   UNL     1       2.775   2.355  18.896  0.00  0.00    +0.000 C 
ENDBRANCH  29  30
ENDBRANCH   1  29
TORSDOF 7
ENDMDL
MODEL 9
REMARK VINA RESULT:      -8.5      0.982      1.073
REMARK  Name = 
REMARK  7 active torsions:
REMARK  status: ('A' for Active; 'I' for Inactive)
REMARK    1  A    between atoms: C_2  and  C_16
REMARK    2  A    between atoms: N_3  and  C_4
REMARK    3  A    between atoms: C_4  and  C_5
REMARK    4  A    between atoms: C_5  and  N_6
REMARK    5  A    between atoms: C_16  and  C_17
REMARK    6  A    between atoms: C_16  and  N_24
REMARK    7  A    between atoms: C_17  and  C_18
REMARK                            x       y       z     vdW  Elec       q    Type
REMARK                         _______ _______ _______ _____ _____    ______ ____
ROOT
ATOM      1  C   UNL     1       4.446   5.193  17.727  0.00  0.00    +0.000 C 
ENDROOT
BRANCH   1   2
ATOM      2  N   UNL     1       5.847   5.421  17.358  0.00  0.00    +0.000 N 
ATOM      3  C   UNL     1       6.304   5.081  16.136  0.00  0.00    +0.000 A 
ATOM      4  N   UNL     1       7.172   5.769  15.442  0.00  0.00    +0.000 NA
ATOM      5  C   UNL     1       7.161   5.160  14.213  0.00  0.00    +0.000 A 
ATOM      6  C   UNL     1       7.815   5.494  13.022  0.00  0.00    +0.000 A 
ATOM      7  C   UNL     1       7.529   4.737  11.878  0.00  0.00    +0.000 A 
ATOM      8  C   UNL     1       6.669   3.634  11.938  0.00  0.00    +0.000 A 
ATOM      9  C   UNL     1       6.051   3.251  13.141  0.00  0.00    +0.000 A 
ATOM     10  C   UNL     1       6.307   4.072  14.239  0.00  0.00    +0.000 A 
ATOM     11  O   UNL     1       5.756   4.006  15.487  0.00  0.00    +0.000 OA
ATOM     12  H   UNL     1       6.220   6.303  17.707  0.00  0.00    +0.000 HD
ENDBRANCH   1   2
BRANCH   1  14
ATOM     13  O   UNL     1       3.360   6.464  19.500  0.00  0.00    +0.000 OA
ATOM     14  C   UNL     1       3.735   6.442  18.327  0.00  0.00    +0.000 C 
ATOM     15  N   UNL     1       3.534   7.519  17.481  0.00  0.00    +0.000 N 
ATOM     16  H   UNL     1       3.617   7.341  16.487  0.00  0.00    +0.000 HD
BRANCH  15  17
ATOM     17  C   UNL     1       2.733   8.676  17.880  0.00  0.00    +0.000 C 
BRANCH  17  18
ATOM     18  C   UNL     1       1.632   8.378  18.918  0.00  0.00    +0.000 C 
BRANCH  18  19
ATOM     19  N   UNL     1       0.860   9.562  19.271  0.00  0.00    +0.000 N 
ATOM     20  C   UNL     1       1.041  10.263  20.544  0.00  0.00    +0.000 C 
ATOM     21  C   UNL     1      -0.066  11.335  20.647  0.00  0.00    +0.000 C 
ATOM     22  C   UNL     1      -0.868  11.074  19.412  0.00  0.00    +0.000 A 
ATOM     23  C   UNL     1      -2.017  11.729  18.993  0.00  0.00    +0.000 A 
ATOM     24  C   UNL     1      -2.598  11.307  17.802  0.00  0.00    +0.000 A 
ATOM     25  F   UNL     1      -3.708  11.908  17.360  0.00  0.00    +0.000 F 
ATOM     26  C   UNL     1      -2.044  10.266  17.055  0.00  0.00    +0.000 A 
ATOM     27  C   UNL     1      -0.879   9.625  17.495  0.00  0.00    +0.000 A 
ATOM     28  C   UNL     1      -0.290  10.033  18.680  0.00  0.00    +0.000 A 
ENDBRANCH  18  19
ENDBRANCH  17  18
ENDBRANCH  15  17
ENDBRANCH   1  14
BRANCH   1  29
ATOM     29  C   UNL     1       4.313   3.937  18.623  0.00  0.00    +0.000 C 
BRANCH  29  30
ATOM     30  C   UNL     1       3.536   2.699  18.093  0.00  0.00    +0.000 C 
ATOM     31  C   UNL     1       3.023   1.735  19.172  0.00  0.00    +0.000 C 
ATOM     32  C   UNL     1       1.903   2.339  20.016  0.00  0.00    +0.000 C 
ATOM     33  C   UNL     1       0.724   2.762  19.147  0.00  0.00    +0.000 C 
ATOM     34  C   UNL     1       1.156   3.697  18.021  0.00  0.00    +0.000 C 
ATOM     35  C   UNL     1       2.332   3.134  17.217  0.00  0.00    +0.000 C 
ENDBRANCH  29  30
ENDBRANCH   1  29
TORSDOF 7
ENDMDL
