MODEL 1
REMARK VINA RESULT:      -8.0      0.000      0.000
REMARK  Name = 
REMARK  10 active torsions:
REMARK  status: ('A' for Active; 'I' for Inactive)
REMARK    1  A    between atoms: C_1  and  N_2
REMARK    2  A    between atoms: N_2  and  C_3
REMARK    3  A    between atoms: N_2  and  C_4
REMARK    4  A    between atoms: C_4  and  C_5
REMARK    5  A    between atoms: C_5  and  N_6
REMARK    6  A    between atoms: C_11  and  N_12
REMARK    7  A    between atoms: C_13  and  C_15
REMARK    8  A    between atoms: C_15  and  N_16
REMARK    9  A    between atoms: N_16  and  C_17
REMARK   10  A    between atoms: N_16  and  C_18
REMARK                            x       y       z     vdW  Elec       q    Type
REMARK                         _______ _______ _______ _____ _____    ______ ____
ROOT
ATOM      1  N   UNL     1       0.424  11.091  19.304  0.00  0.00    +0.000 N 
ATOM      2  C   UNL     1       1.279  10.241  18.599  0.00  0.00    +0.000 A 
ATOM      3  O   UNL     1       1.794  10.554  17.524  0.00  0.00    +0.000 OA
ATOM      4  C   UNL     1       1.581   8.920  19.148  0.00  0.00    +0.000 A 
ATOM      5  C   UNL     1       2.336   8.056  18.339  0.00  0.00    +0.000 A 
ATOM      6  C   UNL     1       2.656   6.774  18.755  0.00  0.00    +0.000 A 
ATOM      7  C   UNL     1       2.252   6.394  20.033  0.00  0.00    +0.000 A 
ATOM      8  C   UNL     1       1.492   7.269  20.845  0.00  0.00    +0.000 A 
ATOM      9  C   UNL     1       1.122   8.562  20.411  0.00  0.00    +0.000 A 
ATOM     10  C   UNL     1       0.309   9.536  21.183  0.00  0.00    +0.000 A 
ATOM     11  C   UNL     1      -0.159   9.256  22.461  0.00  0.00    +0.000 A 
ATOM     12  N   UNL     1      -0.911  10.078  23.224  0.00  0.00    +0.000 NA
ATOM     13  C   UNL     1      -1.235  11.280  22.747  0.00  0.00    +0.000 A 
ATOM     14  C   UNL     1      -2.010  12.077  23.595  0.00  0.00    +0.000 A 
ATOM     15  C   UNL     1      -2.388  13.340  23.203  0.00  0.00    +0.000 A 
ATOM     16  C   UNL     1      -1.989  13.828  22.003  0.00  0.00    +0.000 A 
ATOM     17  C   UNL     1      -1.213  13.080  21.149  0.00  0.00    +0.000 A 
ATOM     18  C   UNL     1      -0.819  11.741  21.461  0.00  0.00    +0.000 A 
ATOM     19  C   UNL     1      -0.036  10.808  20.648  0.00  0.00    +0.000 A 
ATOM     20  O   UNL     1      -2.424  15.090  21.762  0.00  0.00    +0.000 OA
ATOM     21  C   UNL     1      -3.192  15.334  22.955  0.00  0.00    +0.000 C 
ATOM     22  O   UNL     1      -3.139  14.235  23.895  0.00  0.00    +0.000 OA
ENDROOT
BRANCH   6  23
ATOM     23  N   UNL     1       3.371   5.879  17.934  0.00  0.00    +0.000 N 
ATOM     24  C   UNL     1       4.587   6.145  17.309  0.00  0.00    +0.000 C 
ATOM     25  O   UNL     1       5.214   7.201  17.340  0.00  0.00    +0.000 OA
ATOM     26  H   UNL     1       2.908   5.032  17.620  0.00  0.00    +0.000 HD
BRANCH  24  27
ATOM     27  C   UNL     1       5.132   4.966  16.504  0.00  0.00    +0.000 C 
BRANCH  27  28
ATOM     28  N   UNL     1       6.561   5.157  16.162  0.00  0.00    +0.000 NA
ATOM     29  C   UNL     1       7.421   4.530  17.177  0.00  0.00    +0.000 C 
ATOM     30  C   UNL     1       6.820   4.523  14.864  0.00  0.00    +0.000 C 
ENDBRANCH  27  28
ENDBRANCH  24  27
ENDBRANCH   6  23
BRANCH   1  31
ATOM     31  C   UNL     1       0.155  12.321  18.578  0.00  0.00    +0.000 C 
BRANCH  31  32
ATOM     32  C   UNL     1      -1.125  12.193  17.721  0.00  0.00    +0.000 C 
BRANCH  32  34
ATOM     33  C   UNL     1      -3.327  11.562  18.430  0.00  0.00    +0.000 C 
ATOM     34  N   UNL     1      -1.993  11.058  18.087  0.00  0.00    +0.000 NA
ATOM     35  C   UNL     1      -2.097  10.101  16.981  0.00  0.00    +0.000 C 
ENDBRANCH  32  34
ENDBRANCH  31  32
ENDBRANCH   1  31
TORSDOF 6
ENDMDL
MODEL 2
REMARK VINA RESULT:      -7.8      1.036      1.036
REMARK  Name = 
REMARK  10 active torsions:
REMARK  status: ('A' for Active; 'I' for Inactive)
REMARK    1  A    between atoms: C_1  and  N_2
REMARK    2  A    between atoms: N_2  and  C_3
REMARK    3  A    between atoms: N_2  and  C_4
REMARK    4  A    between atoms: C_4  and  C_5
REMARK    5  A    between atoms: C_5  and  N_6
REMARK    6  A    between atoms: C_11  and  N_12
REMARK    7  A    between atoms: C_13  and  C_15
REMARK    8  A    between atoms: C_15  and  N_16
REMARK    9  A    between atoms: N_16  and  C_17
REMARK   10  A    between atoms: N_16  and  C_18
REMARK                            x       y       z     vdW  Elec       q    Type
REMARK                         _______ _______ _______ _____ _____    ______ ____
ROOT
ATOM      1  N   UNL     1       0.185  11.080  19.303  0.00  0.00    +0.000 N 
ATOM      2  C   UNL     1       1.082  10.226  18.658  0.00  0.00    +0.000 A 
ATOM      3  O   UNL     1       1.585  10.487  17.564  0.00  0.00    +0.000 OA
ATOM      4  C   UNL     1       1.446   8.963  19.299  0.00  0.00    +0.000 A 
ATOM      5  C   UNL     1       2.244   8.081  18.552  0.00  0.00    +0.000 A 
ATOM      6  C   UNL     1       2.624   6.849  19.056  0.00  0.00    +0.000 A 
ATOM      7  C   UNL     1       2.235   6.540  20.357  0.00  0.00    +0.000 A 
ATOM      8  C   UNL     1       1.432   7.431  21.107  0.00  0.00    +0.000 A 
ATOM      9  C   UNL     1       1.001   8.671  20.584  0.00  0.00    +0.000 A 
ATOM     10  C   UNL     1       0.139   9.657  21.285  0.00  0.00    +0.000 A 
ATOM     11  C   UNL     1      -0.319   9.444  22.581  0.00  0.00    +0.000 A 
ATOM     12  N   UNL     1      -1.112  10.280  23.284  0.00  0.00    +0.000 NA
ATOM     13  C   UNL     1      -1.492  11.429  22.725  0.00  0.00    +0.000 A 
ATOM     14  C   UNL     1      -2.307  12.245  23.515  0.00  0.00    +0.000 A 
ATOM     15  C   UNL     1      -2.745  13.457  23.036  0.00  0.00    +0.000 A 
ATOM     16  C   UNL     1      -2.366  13.879  21.804  0.00  0.00    +0.000 A 
ATOM     17  C   UNL     1      -1.552  13.112  21.005  0.00  0.00    +0.000 A 
ATOM     18  C   UNL     1      -1.095  11.819  21.410  0.00  0.00    +0.000 A 
ATOM     19  C   UNL     1      -0.265  10.870  20.664  0.00  0.00    +0.000 A 
ATOM     20  O   UNL     1      -2.861  15.099  21.476  0.00  0.00    +0.000 OA
ATOM     21  C   UNL     1      -3.643  15.388  22.649  0.00  0.00    +0.000 C 
ATOM     22  O   UNL     1      -3.540  14.361  23.664  0.00  0.00    +0.000 OA
ENDROOT
BRANCH   6  23
ATOM     23  N   UNL     1       3.384   5.934  18.299  0.00  0.00    +0.000 N 
ATOM     24  C   UNL     1       2.892   4.788  17.679  0.00  0.00    +0.000 C 
ATOM     25  O   UNL     1       1.738   4.369  17.717  0.00  0.00    +0.000 OA
ATOM     26  H   UNL     1       4.396   5.999  18.333  0.00  0.00    +0.000 HD
BRANCH  24  27
ATOM     27  C   UNL     1       3.954   4.008  16.906  0.00  0.00    +0.000 C 
BRANCH  27  28
ATOM     28  N   UNL     1       5.112   4.865  16.560  0.00  0.00    +0.000 NA
ATOM     29  C   UNL     1       6.285   4.497  17.369  0.00  0.00    +0.000 C 
ATOM     30  C   UNL     1       5.434   4.667  15.142  0.00  0.00    +0.000 C 
ENDBRANCH  27  28
ENDBRANCH  24  27
ENDBRANCH   6  23
BRANCH   1  31
ATOM     31  C   UNL     1      -0.141  12.243  18.493  0.00  0.00    +0.000 C 
BRANCH  31  32
ATOM     32  C   UNL     1      -1.364  11.966  17.589  0.00  0.00    +0.000 C 
BRANCH  32  34
ATOM     33  C   UNL     1      -3.597  11.578  18.374  0.00  0.00    +0.000 C 
ATOM     34  N   UNL     1      -2.296  10.951  18.117  0.00  0.00    +0.000 NA
ATOM     35  C   UNL     1      -2.460   9.847  17.166  0.00  0.00    +0.000 C 
ENDBRANCH  32  34
ENDBRANCH  31  32
ENDBRANCH   1  31
TORSDOF 6
ENDMDL
MODEL 3
REMARK VINA RESULT:      -7.6      1.341      2.123
REMARK  Name = 
REMARK  10 active torsions:
REMARK  status: ('A' for Active; 'I' for Inactive)
REMARK    1  A    between atoms: C_1  and  N_2
REMARK    2  A    between atoms: N_2  and  C_3
REMARK    3  A    between atoms: N_2  and  C_4
REMARK    4  A    between atoms: C_4  and  C_5
REMARK    5  A    between atoms: C_5  and  N_6
REMARK    6  A    between atoms: C_11  and  N_12
REMARK    7  A    between atoms: C_13  and  C_15
REMARK    8  A    between atoms: C_15  and  N_16
REMARK    9  A    between atoms: N_16  and  C_17
REMARK   10  A    between atoms: N_16  and  C_18
REMARK                            x       y       z     vdW  Elec       q    Type
REMARK                         _______ _______ _______ _____ _____    ______ ____
ROOT
ATOM      1  N   UNL     1       0.739  11.024  19.271  0.00  0.00    +0.000 N 
ATOM      2  C   UNL     1       1.570  10.110  18.620  0.00  0.00    +0.000 A 
ATOM      3  O   UNL     1       2.173  10.379  17.580  0.00  0.00    +0.000 OA
ATOM      4  C   UNL     1       1.740   8.773  19.188  0.00  0.00    +0.000 A 
ATOM      5  C   UNL     1       2.477   7.852  18.427  0.00  0.00    +0.000 A 
ATOM      6  C   UNL     1       2.675   6.552  18.862  0.00  0.00    +0.000 A 
ATOM      7  C   UNL     1       2.166   6.209  20.112  0.00  0.00    +0.000 A 
ATOM      8  C   UNL     1       1.424   7.141  20.875  0.00  0.00    +0.000 A 
ATOM      9  C   UNL     1       1.178   8.456  20.419  0.00  0.00    +0.000 A 
ATOM     10  C   UNL     1       0.393   9.490  21.139  0.00  0.00    +0.000 A 
ATOM     11  C   UNL     1      -0.174   9.251  22.386  0.00  0.00    +0.000 A 
ATOM     12  N   UNL     1      -0.908  10.130  23.100  0.00  0.00    +0.000 NA
ATOM     13  C   UNL     1      -1.112  11.351  22.604  0.00  0.00    +0.000 A 
ATOM     14  C   UNL     1      -1.877  12.207  23.402  0.00  0.00    +0.000 A 
ATOM     15  C   UNL     1      -2.136  13.492  22.988  0.00  0.00    +0.000 A 
ATOM     16  C   UNL     1      -1.628  13.944  21.814  0.00  0.00    +0.000 A 
ATOM     17  C   UNL     1      -0.858  13.137  21.011  0.00  0.00    +0.000 A 
ATOM     18  C   UNL     1      -0.584  11.774  21.347  0.00  0.00    +0.000 A 
ATOM     19  C   UNL     1       0.177  10.782  20.584  0.00  0.00    +0.000 A 
ATOM     20  O   UNL     1      -1.953  15.234  21.547  0.00  0.00    +0.000 OA
ATOM     21  C   UNL     1      -2.773  15.539  22.690  0.00  0.00    +0.000 C 
ATOM     22  O   UNL     1      -2.860  14.443  23.632  0.00  0.00    +0.000 OA
ENDROOT
BRANCH   6  23
ATOM     23  N   UNL     1       3.372   5.603  18.087  0.00  0.00    +0.000 N 
ATOM     24  C   UNL     1       4.601   5.034  18.412  0.00  0.00    +0.000 C 
ATOM     25  O   UNL     1       5.290   5.287  19.397  0.00  0.00    +0.000 OA
ATOM     26  H   UNL     1       3.060   5.429  17.137  0.00  0.00    +0.000 HD
BRANCH  24  27
ATOM     27  C   UNL     1       5.092   4.013  17.387  0.00  0.00    +0.000 C 
BRANCH  27  28
ATOM     28  N   UNL     1       6.022   4.629  16.411  0.00  0.00    +0.000 NA
ATOM     29  C   UNL     1       7.406   4.565  16.907  0.00  0.00    +0.000 C 
ATOM     30  C   UNL     1       5.937   3.884  15.149  0.00  0.00    +0.000 C 
ENDBRANCH  27  28
ENDBRANCH  24  27
ENDBRANCH   6  23
BRANCH   1  31
ATOM     31  C   UNL     1       0.608  12.268  18.530  0.00  0.00    +0.000 C 
BRANCH  31  32
ATOM     32  C   UNL     1       1.932  13.065  18.543  0.00  0.00    +0.000 C 
BRANCH  32  34
ATOM     33  C   UNL     1       2.727  14.145  20.531  0.00  0.00    +0.000 C 
ATOM     34  N   UNL     1       1.890  14.307  19.338  0.00  0.00    +0.000 NA
ATOM     35  C   UNL     1       2.368  15.448  18.551  0.00  0.00    +0.000 C 
ENDBRANCH  32  34
ENDBRANCH  31  32
ENDBRANCH   1  31
TORSDOF 6
ENDMDL
MODEL 4
REMARK VINA RESULT:      -7.5      1.595      1.774
REMARK  Name = 
REMARK  10 active torsions:
REMARK  status: ('A' for Active; 'I' for Inactive)
REMARK    1  A    between atoms: C_1  and  N_2
REMARK    2  A    between atoms: N_2  and  C_3
REMARK    3  A    between atoms: N_2  and  C_4
REMARK    4  A    between atoms: C_4  and  C_5
REMARK    5  A    between atoms: C_5  and  N_6
REMARK    6  A    between atoms: C_11  and  N_12
REMARK    7  A    between atoms: C_13  and  C_15
REMARK    8  A    between atoms: C_15  and  N_16
REMARK    9  A    between atoms: N_16  and  C_17
REMARK   10  A    between atoms: N_16  and  C_18
REMARK                            x       y       z     vdW  Elec       q    Type
REMARK                         _______ _______ _______ _____ _____    ______ ____
ROOT
ATOM      1  N   UNL     1      -0.039  11.033  19.198  0.00  0.00    +0.000 N 
ATOM      2  C   UNL     1       0.844  10.140  18.589  0.00  0.00    +0.000 A 
ATOM      3  O   UNL     1       1.274  10.300  17.445  0.00  0.00    +0.000 OA
ATOM      4  C   UNL     1       1.284   8.959  19.330  0.00  0.00    +0.000 A 
ATOM      5  C   UNL     1       2.063   8.025  18.628  0.00  0.00    +0.000 A 
ATOM      6  C   UNL     1       2.511   6.861  19.229  0.00  0.00    +0.000 A 
ATOM      7  C   UNL     1       2.209   6.677  20.576  0.00  0.00    +0.000 A 
ATOM      8  C   UNL     1       1.424   7.621  21.280  0.00  0.00    +0.000 A 
ATOM      9  C   UNL     1       0.925   8.790  20.662  0.00  0.00    +0.000 A 
ATOM     10  C   UNL     1       0.076   9.820  21.313  0.00  0.00    +0.000 A 
ATOM     11  C   UNL     1      -0.299   9.730  22.649  0.00  0.00    +0.000 A 
ATOM     12  N   UNL     1      -1.074  10.614  23.312  0.00  0.00    +0.000 NA
ATOM     13  C   UNL     1      -1.522  11.690  22.664  0.00  0.00    +0.000 A 
ATOM     14  C   UNL     1      -2.313  12.562  23.417  0.00  0.00    +0.000 A 
ATOM     15  C   UNL     1      -2.816  13.707  22.846  0.00  0.00    +0.000 A 
ATOM     16  C   UNL     1      -2.523  14.011  21.557  0.00  0.00    +0.000 A 
ATOM     17  C   UNL     1      -1.735  13.185  20.790  0.00  0.00    +0.000 A 
ATOM     18  C   UNL     1      -1.214  11.953  21.295  0.00  0.00    +0.000 A 
ATOM     19  C   UNL     1      -0.402  10.953  20.598  0.00  0.00    +0.000 A 
ATOM     20  O   UNL     1      -3.074  15.178  21.139  0.00  0.00    +0.000 OA
ATOM     21  C   UNL     1      -3.794  15.566  22.323  0.00  0.00    +0.000 C 
ATOM     22  O   UNL     1      -3.600  14.651  23.428  0.00  0.00    +0.000 OA
ENDROOT
BRANCH   6  23
ATOM     23  N   UNL     1       3.253   5.892  18.523  0.00  0.00    +0.000 N 
ATOM     24  C   UNL     1       2.718   4.832  17.795  0.00  0.00    +0.000 C 
ATOM     25  O   UNL     1       1.529   4.547  17.677  0.00  0.00    +0.000 OA
ATOM     26  H   UNL     1       4.254   5.840  18.678  0.00  0.00    +0.000 HD
BRANCH  24  27
ATOM     27  C   UNL     1       3.774   3.963  17.114  0.00  0.00    +0.000 C 
BRANCH  27  28
ATOM     28  N   UNL     1       4.174   2.823  17.972  0.00  0.00    +0.000 NA
ATOM     29  C   UNL     1       4.477   3.285  19.335  0.00  0.00    +0.000 C 
ATOM     30  C   UNL     1       3.058   1.870  18.033  0.00  0.00    +0.000 C 
ENDBRANCH  27  28
ENDBRANCH  24  27
ENDBRANCH   6  23
BRANCH   1  31
ATOM     31  C   UNL     1      -0.447  12.098  18.297  0.00  0.00    +0.000 C 
BRANCH  31  32
ATOM     32  C   UNL     1      -1.894  11.880  17.797  0.00  0.00    +0.000 C 
BRANCH  32  34
ATOM     33  C   UNL     1      -2.939   9.721  17.758  0.00  0.00    +0.000 C 
ATOM     34  N   UNL     1      -2.087  10.649  17.006  0.00  0.00    +0.000 NA
ATOM     35  C   UNL     1      -2.708  10.951  15.713  0.00  0.00    +0.000 C 
ENDBRANCH  32  34
ENDBRANCH  31  32
ENDBRANCH   1  31
TORSDOF 6
ENDMDL
MODEL 5
REMARK VINA RESULT:      -7.4      1.308      1.566
REMARK  Name = 
REMARK  10 active torsions:
REMARK  status: ('A' for Active; 'I' for Inactive)
REMARK    1  A    between atoms: C_1  and  N_2
REMARK    2  A    between atoms: N_2  and  C_3
REMARK    3  A    between atoms: N_2  and  C_4
REMARK    4  A    between atoms: C_4  and  C_5
REMARK    5  A    between atoms: C_5  and  N_6
REMARK    6  A    between atoms: C_11  and  N_12
REMARK    7  A    between atoms: C_13  and  C_15
REMARK    8  A    between atoms: C_15  and  N_16
REMARK    9  A    between atoms: N_16  and  C_17
REMARK   10  A    between atoms: N_16  and  C_18
REMARK                            x       y       z     vdW  Elec       q    Type
REMARK                         _______ _______ _______ _____ _____    ______ ____
ROOT
ATOM      1  N   UNL     1       0.424  11.130  19.394  0.00  0.00    +0.000 N 
ATOM      2  C   UNL     1       1.223  10.172  18.766  0.00  0.00    +0.000 A 
ATOM      3  O   UNL     1       1.757  10.361  17.671  0.00  0.00    +0.000 OA
ATOM      4  C   UNL     1       1.441   8.886  19.425  0.00  0.00    +0.000 A 
ATOM      5  C   UNL     1       2.139   7.911  18.694  0.00  0.00    +0.000 A 
ATOM      6  C   UNL     1       2.378   6.651  19.216  0.00  0.00    +0.000 A 
ATOM      7  C   UNL     1       1.950   6.404  20.519  0.00  0.00    +0.000 A 
ATOM      8  C   UNL     1       1.248   7.390  21.252  0.00  0.00    +0.000 A 
ATOM      9  C   UNL     1       0.960   8.663  20.710  0.00  0.00    +0.000 A 
ATOM     10  C   UNL     1       0.210   9.747  21.394  0.00  0.00    +0.000 A 
ATOM     11  C   UNL     1      -0.275   9.605  22.689  0.00  0.00    +0.000 A 
ATOM     12  N   UNL     1      -0.973  10.533  23.377  0.00  0.00    +0.000 NA
ATOM     13  C   UNL     1      -1.220  11.710  22.800  0.00  0.00    +0.000 A 
ATOM     14  C   UNL     1      -1.943  12.622  23.575  0.00  0.00    +0.000 A 
ATOM     15  C   UNL     1      -2.241  13.869  23.077  0.00  0.00    +0.000 A 
ATOM     16  C   UNL     1      -1.811  14.229  21.843  0.00  0.00    +0.000 A 
ATOM     17  C   UNL     1      -1.084  13.365  21.058  0.00  0.00    +0.000 A 
ATOM     18  C   UNL     1      -0.775  12.035  21.483  0.00  0.00    +0.000 A 
ATOM     19  C   UNL     1      -0.053  10.990  20.754  0.00  0.00    +0.000 A 
ATOM     20  O   UNL     1      -2.165  15.492  21.496  0.00  0.00    +0.000 OA
ATOM     21  C   UNL     1      -2.916  15.882  22.660  0.00  0.00    +0.000 C 
ATOM     22  O   UNL     1      -2.933  14.864  23.689  0.00  0.00    +0.000 OA
ENDROOT
BRANCH   6  23
ATOM     23  N   UNL     1       3.035   5.647  18.476  0.00  0.00    +0.000 N 
ATOM     24  C   UNL     1       4.297   5.128  18.755  0.00  0.00    +0.000 C 
ATOM     25  O   UNL     1       5.052   5.476  19.659  0.00  0.00    +0.000 OA
ATOM     26  H   UNL     1       2.657   5.385  17.571  0.00  0.00    +0.000 HD
BRANCH  24  27
ATOM     27  C   UNL     1       4.732   4.027  17.788  0.00  0.00    +0.000 C 
BRANCH  27  28
ATOM     28  N   UNL     1       4.108   2.727  18.130  0.00  0.00    +0.000 NA
ATOM     29  C   UNL     1       3.995   2.579  19.590  0.00  0.00    +0.000 C 
ATOM     30  C   UNL     1       2.763   2.685  17.544  0.00  0.00    +0.000 C 
ENDBRANCH  27  28
ENDBRANCH  24  27
ENDBRANCH   6  23
BRANCH   1  31
ATOM     31  C   UNL     1       0.234  12.311  18.567  0.00  0.00    +0.000 C 
BRANCH  31  32
ATOM     32  C   UNL     1      -1.105  12.241  17.796  0.00  0.00    +0.000 C 
BRANCH  32  34
ATOM     33  C   UNL     1      -3.272  11.523  18.533  0.00  0.00    +0.000 C 
ATOM     34  N   UNL     1      -1.938  11.068  18.126  0.00  0.00    +0.000 NA
ATOM     35  C   UNL     1      -2.054  10.169  16.974  0.00  0.00    +0.000 C 
ENDBRANCH  32  34
ENDBRANCH  31  32
ENDBRANCH   1  31
TORSDOF 6
ENDMDL
MODEL 6
REMARK VINA RESULT:      -7.3      1.283      1.439
REMARK  Name = 
REMARK  10 active torsions:
REMARK  status: ('A' for Active; 'I' for Inactive)
REMARK    1  A    between atoms: C_1  and  N_2
REMARK    2  A    between atoms: N_2  and  C_3
REMARK    3  A    between atoms: N_2  and  C_4
REMARK    4  A    between atoms: C_4  and  C_5
REMARK    5  A    between atoms: C_5  and  N_6
REMARK    6  A    between atoms: C_11  and  N_12
REMARK    7  A    between atoms: C_13  and  C_15
REMARK    8  A    between atoms: C_15  and  N_16
REMARK    9  A    between atoms: N_16  and  C_17
REMARK   10  A    between atoms: N_16  and  C_18
REMARK                            x       y       z     vdW  Elec       q    Type
REMARK                         _______ _______ _______ _____ _____    ______ ____
ROOT
ATOM      1  N   UNL     1      -0.276  10.437  19.113  0.00  0.00    +0.000 N 
ATOM      2  C   UNL     1       0.622   9.651  18.386  0.00  0.00    +0.000 A 
ATOM      3  O   UNL     1       0.824   9.808  17.181  0.00  0.00    +0.000 OA
ATOM      4  C   UNL     1       1.358   8.593  19.075  0.00  0.00    +0.000 A 
ATOM      5  C   UNL     1       2.145   7.747  18.278  0.00  0.00    +0.000 A 
ATOM      6  C   UNL     1       2.863   6.698  18.827  0.00  0.00    +0.000 A 
ATOM      7  C   UNL     1       2.823   6.548  20.212  0.00  0.00    +0.000 A 
ATOM      8  C   UNL     1       2.029   7.404  21.012  0.00  0.00    +0.000 A 
ATOM      9  C   UNL     1       1.257   8.449  20.455  0.00  0.00    +0.000 A 
ATOM     10  C   UNL     1       0.379   9.377  21.211  0.00  0.00    +0.000 A 
ATOM     11  C   UNL     1       0.252   9.309  22.594  0.00  0.00    +0.000 A 
ATOM     12  N   UNL     1      -0.530  10.104  23.355  0.00  0.00    +0.000 NA
ATOM     13  C   UNL     1      -1.242  11.063  22.761  0.00  0.00    +0.000 A 
ATOM     14  C   UNL     1      -2.022  11.850  23.613  0.00  0.00    +0.000 A 
ATOM     15  C   UNL     1      -2.786  12.874  23.104  0.00  0.00    +0.000 A 
ATOM     16  C   UNL     1      -2.764  13.143  21.775  0.00  0.00    +0.000 A 
ATOM     17  C   UNL     1      -1.996  12.401  20.908  0.00  0.00    +0.000 A 
ATOM     18  C   UNL     1      -1.213  11.290  21.352  0.00  0.00    +0.000 A 
ATOM     19  C   UNL     1      -0.382  10.384  20.556  0.00  0.00    +0.000 A 
ATOM     20  O   UNL     1      -3.552  14.189  21.423  0.00  0.00    +0.000 OA
ATOM     21  C   UNL     1      -4.116  14.533  22.702  0.00  0.00    +0.000 C 
ATOM     22  O   UNL     1      -3.599  13.722  23.784  0.00  0.00    +0.000 OA
ENDROOT
BRANCH   6  23
ATOM     23  N   UNL     1       3.618   5.811  18.033  0.00  0.00    +0.000 N 
ATOM     24  C   UNL     1       3.359   4.453  17.862  0.00  0.00    +0.000 C 
ATOM     25  O   UNL     1       2.463   3.803  18.394  0.00  0.00    +0.000 OA
ATOM     26  H   UNL     1       4.519   6.120  17.684  0.00  0.00    +0.000 HD
BRANCH  24  27
ATOM     27  C   UNL     1       4.338   3.759  16.918  0.00  0.00    +0.000 C 
BRANCH  27  28
ATOM     28  N   UNL     1       5.349   4.706  16.391  0.00  0.00    +0.000 NA
ATOM     29  C   UNL     1       6.655   4.472  17.028  0.00  0.00    +0.000 C 
ATOM     30  C   UNL     1       5.482   4.493  14.945  0.00  0.00    +0.000 C 
ENDBRANCH  27  28
ENDBRANCH  24  27
ENDBRANCH   6  23
BRANCH   1  31
ATOM     31  C   UNL     1      -0.990  11.377  18.263  0.00  0.00    +0.000 C 
BRANCH  31  32
ATOM     32  C   UNL     1      -2.391  10.837  17.892  0.00  0.00    +0.000 C 
BRANCH  32  34
ATOM     33  C   UNL     1      -2.647  10.281  15.573  0.00  0.00    +0.000 C 
ATOM     34  N   UNL     1      -2.900  11.308  16.590  0.00  0.00    +0.000 NA
ATOM     35  C   UNL     1      -4.337  11.588  16.661  0.00  0.00    +0.000 C 
ENDBRANCH  32  34
ENDBRANCH  31  32
ENDBRANCH   1  31
TORSDOF 6
ENDMDL
MODEL 7
REMARK VINA RESULT:      -7.2      1.915      2.708
REMARK  Name = 
REMARK  10 active torsions:
REMARK  status: ('A' for Active; 'I' for Inactive)
REMARK    1  A    between atoms: C_1  and  N_2
REMARK    2  A    between atoms: N_2  and  C_3
REMARK    3  A    between atoms: N_2  and  C_4
REMARK    4  A    between atoms: C_4  and  C_5
REMARK    5  A    between atoms: C_5  and  N_6
REMARK    6  A    between atoms: C_11  and  N_12
REMARK    7  A    between atoms: C_13  and  C_15
REMARK    8  A    between atoms: C_15  and  N_16
REMARK    9  A    between atoms: N_16  and  C_17
REMARK   10  A    between atoms: N_16  and  C_18
REMARK                            x       y       z     vdW  Elec       q    Type
REMARK                         _______ _______ _______ _____ _____    ______ ____
ROOT
ATOM      1  N   UNL     1       0.835  11.167  19.259  0.00  0.00    +0.000 N 
ATOM      2  C   UNL     1       1.554  10.130  18.661  0.00  0.00    +0.000 A 
ATOM      3  O   UNL     1       2.137  10.257  17.582  0.00  0.00    +0.000 OA
ATOM      4  C   UNL     1       1.624   8.834  19.332  0.00  0.00    +0.000 A 
ATOM      5  C   UNL     1       2.244   7.789  18.628  0.00  0.00    +0.000 A 
ATOM      6  C   UNL     1       2.340   6.515  19.164  0.00  0.00    +0.000 A 
ATOM      7  C   UNL     1       1.852   6.323  20.454  0.00  0.00    +0.000 A 
ATOM      8  C   UNL     1       1.228   7.379  21.160  0.00  0.00    +0.000 A 
ATOM      9  C   UNL     1       1.085   8.670  20.604  0.00  0.00    +0.000 A 
ATOM     10  C   UNL     1       0.426   9.828  21.259  0.00  0.00    +0.000 A 
ATOM     11  C   UNL     1      -0.110   9.745  22.539  0.00  0.00    +0.000 A 
ATOM     12  N   UNL     1      -0.733  10.743  23.200  0.00  0.00    +0.000 NA
ATOM     13  C   UNL     1      -0.845  11.934  22.610  0.00  0.00    +0.000 A 
ATOM     14  C   UNL     1      -1.497  12.919  23.358  0.00  0.00    +0.000 A 
ATOM     15  C   UNL     1      -1.655  14.185  22.845  0.00  0.00    +0.000 A 
ATOM     16  C   UNL     1      -1.154  14.492  21.623  0.00  0.00    +0.000 A 
ATOM     17  C   UNL     1      -0.494  13.554  20.865  0.00  0.00    +0.000 A 
ATOM     18  C   UNL     1      -0.331  12.203  21.306  0.00  0.00    +0.000 A 
ATOM     19  C   UNL     1       0.306  11.086  20.605  0.00  0.00    +0.000 A 
ATOM     20  O   UNL     1      -1.371  15.780  21.259  0.00  0.00    +0.000 OA
ATOM     21  C   UNL     1      -2.115  16.252  22.397  0.00  0.00    +0.000 C 
ATOM     22  O   UNL     1      -2.263  15.249  23.430  0.00  0.00    +0.000 OA
ENDROOT
BRANCH   6  23
ATOM     23  N   UNL     1       2.916   5.446  18.449  0.00  0.00    +0.000 N 
ATOM     24  C   UNL     1       4.194   4.929  18.652  0.00  0.00    +0.000 C 
ATOM     25  O   UNL     1       5.033   5.335  19.452  0.00  0.00    +0.000 OA
ATOM     26  H   UNL     1       2.454   5.120  17.607  0.00  0.00    +0.000 HD
BRANCH  24  27
ATOM     27  C   UNL     1       4.527   3.749  17.741  0.00  0.00    +0.000 C 
BRANCH  27  28
ATOM     28  N   UNL     1       3.993   2.477  18.282  0.00  0.00    +0.000 NA
ATOM     29  C   UNL     1       3.934   2.528  19.751  0.00  0.00    +0.000 C 
ATOM     30  C   UNL     1       2.635   2.281  17.760  0.00  0.00    +0.000 C 
ENDBRANCH  27  28
ENDBRANCH  24  27
ENDBRANCH   6  23
BRANCH   1  31
ATOM     31  C   UNL     1       0.788  12.354  18.421  0.00  0.00    +0.000 C 
BRANCH  31  32
ATOM     32  C   UNL     1       2.181  13.016  18.315  0.00  0.00    +0.000 C 
BRANCH  32  34
ATOM     33  C   UNL     1       3.127  14.075  20.248  0.00  0.00    +0.000 C 
ATOM     34  N   UNL     1       2.309  14.289  19.050  0.00  0.00    +0.000 NA
ATOM     35  C   UNL     1       2.927  15.319  18.208  0.00  0.00    +0.000 C 
ENDBRANCH  32  34
ENDBRANCH  31  32
ENDBRANCH   1  31
TORSDOF 6
ENDMDL
MODEL 8
REMARK VINA RESULT:      -7.2      2.135      2.928
REMARK  Name = 
REMARK  10 active torsions:
REMARK  status: ('A' for Active; 'I' for Inactive)
REMARK    1  A    between atoms: C_1  and  N_2
REMARK    2  A    between atoms: N_2  and  C_3
REMARK    3  A    between atoms: N_2  and  C_4
REMARK    4  A    between atoms: C_4  and  C_5
REMARK    5  A    between atoms: C_5  and  N_6
REMARK    6  A    between atoms: C_11  and  N_12
REMARK    7  A    between atoms: C_13  and  C_15
REMARK    8  A    between atoms: C_15  and  N_16
REMARK    9  A    between atoms: N_16  and  C_17
REMARK   10  A    between atoms: N_16  and  C_18
REMARK                            x       y       z     vdW  Elec       q    Type
REMARK                         _______ _______ _______ _____ _____    ______ ____
ROOT
ATOM      1  N   UNL     1      -1.820  11.303  19.417  0.00  0.00    +0.000 N 
ATOM      2  C   UNL     1      -0.849  10.378  19.029  0.00  0.00    +0.000 A 
ATOM      3  O   UNL     1      -0.664  10.055  17.854  0.00  0.00    +0.000 OA
ATOM      4  C   UNL     1      -0.010   9.757  20.052  0.00  0.00    +0.000 A 
ATOM      5  C   UNL     1       0.857   8.738  19.627  0.00  0.00    +0.000 A 
ATOM      6  C   UNL     1       1.677   8.068  20.520  0.00  0.00    +0.000 A 
ATOM      7  C   UNL     1       1.652   8.483  21.849  0.00  0.00    +0.000 A 
ATOM      8  C   UNL     1       0.777   9.511  22.273  0.00  0.00    +0.000 A 
ATOM      9  C   UNL     1      -0.095  10.169  21.377  0.00  0.00    +0.000 A 
ATOM     10  C   UNL     1      -1.062  11.238  21.736  0.00  0.00    +0.000 A 
ATOM     11  C   UNL     1      -1.181  11.719  23.035  0.00  0.00    +0.000 A 
ATOM     12  N   UNL     1      -2.038  12.678  23.446  0.00  0.00    +0.000 NA
ATOM     13  C   UNL     1      -2.843  13.249  22.549  0.00  0.00    +0.000 A 
ATOM     14  C   UNL     1      -3.698  14.236  23.047  0.00  0.00    +0.000 A 
ATOM     15  C   UNL     1      -4.560  14.894  22.203  0.00  0.00    +0.000 A 
ATOM     16  C   UNL     1      -4.565  14.609  20.877  0.00  0.00    +0.000 A 
ATOM     17  C   UNL     1      -3.728  13.656  20.348  0.00  0.00    +0.000 A 
ATOM     18  C   UNL     1      -2.837  12.893  21.166  0.00  0.00    +0.000 A 
ATOM     19  C   UNL     1      -1.920  11.824  20.765  0.00  0.00    +0.000 A 
ATOM     20  O   UNL     1      -5.455  15.350  20.169  0.00  0.00    +0.000 OA
ATOM     21  C   UNL     1      -6.049  16.124  21.226  0.00  0.00    +0.000 C 
ATOM     22  O   UNL     1      -5.454  15.866  22.520  0.00  0.00    +0.000 OA
ENDROOT
BRANCH   6  23
ATOM     23  N   UNL     1       2.516   7.010  20.115  0.00  0.00    +0.000 N 
ATOM     24  C   UNL     1       2.213   5.654  20.204  0.00  0.00    +0.000 C 
ATOM     25  O   UNL     1       1.193   5.158  20.674  0.00  0.00    +0.000 OA
ATOM     26  H   UNL     1       3.486   7.217  19.898  0.00  0.00    +0.000 HD
BRANCH  24  27
ATOM     27  C   UNL     1       3.314   4.745  19.659  0.00  0.00    +0.000 C 
BRANCH  27  28
ATOM     28  N   UNL     1       4.269   5.498  18.812  0.00  0.00    +0.000 NA
ATOM     29  C   UNL     1       5.654   5.156  19.170  0.00  0.00    +0.000 C 
ATOM     30  C   UNL     1       4.039   5.132  17.409  0.00  0.00    +0.000 C 
ENDBRANCH  27  28
ENDBRANCH  24  27
ENDBRANCH   6  23
BRANCH   1  31
ATOM     31  C   UNL     1      -2.625  11.754  18.293  0.00  0.00    +0.000 C 
BRANCH  31  32
ATOM     32  C   UNL     1      -3.877  10.864  18.114  0.00  0.00    +0.000 C 
BRANCH  32  34
ATOM     33  C   UNL     1      -5.393  12.223  16.845  0.00  0.00    +0.000 C 
ATOM     34  N   UNL     1      -4.555  11.020  16.812  0.00  0.00    +0.000 NA
ATOM     35  C   UNL     1      -3.578  11.130  15.724  0.00  0.00    +0.000 C 
ENDBRANCH  32  34
ENDBRANCH  31  32
ENDBRANCH   1  31
TORSDOF 6
ENDMDL
MODEL 9
REMARK VINA RESULT:      -7.2      1.582      2.240
REMARK  Name = 
REMARK  10 active torsions:
REMARK  status: ('A' for Active; 'I' for Inactive)
REMARK    1  A    between atoms: C_1  and  N_2
REMARK    2  A    between atoms: N_2  and  C_3
REMARK    3  A    between atoms: N_2  and  C_4
REMARK    4  A    between atoms: C_4  and  C_5
REMARK    5  A    between atoms: C_5  and  N_6
REMARK    6  A    between atoms: C_11  and  N_12
REMARK    7  A    between atoms: C_13  and  C_15
REMARK    8  A    between atoms: C_15  and  N_16
REMARK    9  A    between atoms: N_16  and  C_17
REMARK   10  A    between atoms: N_16  and  C_18
REMARK                            x       y       z     vdW  Elec       q    Type
REMARK                         _______ _______ _______ _____ _____    ______ ____
ROOT
ATOM      1  N   UNL     1       0.457  11.390  19.488  0.00  0.00    +0.000 N 
ATOM      2  C   UNL     1       1.345  10.509  18.866  0.00  0.00    +0.000 A 
ATOM      3  O   UNL     1       1.978  10.804  17.851  0.00  0.00    +0.000 OA
ATOM      4  C   UNL     1       1.538   9.176  19.434  0.00  0.00    +0.000 A 
ATOM      5  C   UNL     1       2.336   8.284  18.699  0.00  0.00    +0.000 A 
ATOM      6  C   UNL     1       2.562   6.990  19.136  0.00  0.00    +0.000 A 
ATOM      7  C   UNL     1       2.016   6.622  20.364  0.00  0.00    +0.000 A 
ATOM      8  C   UNL     1       1.213   7.524  21.101  0.00  0.00    +0.000 A 
ATOM      9  C   UNL     1       0.940   8.832  20.642  0.00  0.00    +0.000 A 
ATOM     10  C   UNL     1       0.092   9.835  21.334  0.00  0.00    +0.000 A 
ATOM     11  C   UNL     1      -0.514   9.569  22.557  0.00  0.00    +0.000 A 
ATOM     12  N   UNL     1      -1.306  10.418  23.245  0.00  0.00    +0.000 NA
ATOM     13  C   UNL     1      -1.533  11.634  22.747  0.00  0.00    +0.000 A 
ATOM     14  C   UNL     1      -2.358  12.458  23.518  0.00  0.00    +0.000 A 
ATOM     15  C   UNL     1      -2.645  13.736  23.099  0.00  0.00    +0.000 A 
ATOM     16  C   UNL     1      -2.107  14.212  21.949  0.00  0.00    +0.000 A 
ATOM     17  C   UNL     1      -1.279  13.436  21.172  0.00  0.00    +0.000 A 
ATOM     18  C   UNL     1      -0.971  12.082  21.514  0.00  0.00    +0.000 A 
ATOM     19  C   UNL     1      -0.147  11.121  20.777  0.00  0.00    +0.000 A 
ATOM     20  O   UNL     1      -2.466  15.491  21.674  0.00  0.00    +0.000 OA
ATOM     21  C   UNL     1      -3.340  15.761  22.785  0.00  0.00    +0.000 C 
ATOM     22  O   UNL     1      -3.426  14.658  23.718  0.00  0.00    +0.000 OA
ENDROOT
BRANCH   6  23
ATOM     23  N   UNL     1       3.321   6.069  18.385  0.00  0.00    +0.000 N 
ATOM     24  C   UNL     1       2.822   4.938  17.744  0.00  0.00    +0.000 C 
ATOM     25  O   UNL     1       1.660   4.540  17.754  0.00  0.00    +0.000 OA
ATOM     26  H   UNL     1       4.333   6.116  18.439  0.00  0.00    +0.000 HD
BRANCH  24  27
ATOM     27  C   UNL     1       3.885   4.147  16.983  0.00  0.00    +0.000 C 
BRANCH  27  28
ATOM     28  N   UNL     1       5.082   4.976  16.705  0.00  0.00    +0.000 NA
ATOM     29  C   UNL     1       6.251   4.449  17.425  0.00  0.00    +0.000 C 
ATOM     30  C   UNL     1       5.355   4.935  15.263  0.00  0.00    +0.000 C 
ENDBRANCH  27  28
ENDBRANCH  24  27
ENDBRANCH   6  23
BRANCH   1  31
ATOM     31  C   UNL     1       0.312  12.632  18.748  0.00  0.00    +0.000 C 
BRANCH  31  32
ATOM     32  C   UNL     1       1.259  13.723  19.300  0.00  0.00    +0.000 C 
BRANCH  32  34
ATOM     33  C   UNL     1       2.001  15.868  18.525  0.00  0.00    +0.000 C 
ATOM     34  N   UNL     1       2.048  14.424  18.269  0.00  0.00    +0.000 NA
ATOM     35  C   UNL     1       3.441  13.967  18.276  0.00  0.00    +0.000 C 
ENDBRANCH  32  34
ENDBRANCH  31  32
ENDBRANCH   1  31
TORSDOF 6
ENDMDL
