MODEL 1
REMARK VINA RESULT:      -6.4      0.000      0.000
REMARK  Name = 
REMARK  10 active torsions:
REMARK  status: ('A' for Active; 'I' for Inactive)
REMARK    1  A    between atoms: C_1  and  O_2
REMARK    2  A    between atoms: O_2  and  C_3
REMARK    3  A    between atoms: C_6  and  C_7
REMARK    4  A    between atoms: C_7  and  N_8
REMARK    5  A    between atoms: N_8  and  C_9
REMARK    6  A    between atoms: N_8  and  C_10
REMARK    7  A    between atoms: C_10  and  C_11
REMARK    8  A    between atoms: C_11  and  C_12
REMARK    9  A    between atoms: C_19  and  O_20
REMARK   10  A    between atoms: O_20  and  C_21
REMARK                            x       y       z     vdW  Elec       q    Type
REMARK                         _______ _______ _______ _____ _____    ______ ____
ROOT
ATOM      1  C   UNL     1       4.605   5.794  17.990  0.00  0.00    +0.000 C 
ENDROOT
BRANCH   1   5
ATOM      2  C   UNL     1       1.550   8.354  19.645  0.00  0.00    +0.000 A 
ATOM      3  C   UNL     1       1.884   7.150  20.287  0.00  0.00    +0.000 A 
ATOM      4  C   UNL     1       2.836   6.286  19.742  0.00  0.00    +0.000 A 
ATOM      5  C   UNL     1       3.435   6.590  18.519  0.00  0.00    +0.000 A 
ATOM      6  C   UNL     1       3.009   7.730  17.827  0.00  0.00    +0.000 A 
ATOM      7  C   UNL     1       2.076   8.620  18.372  0.00  0.00    +0.000 A 
BRANCH   2   9
ATOM      8  C   UNL     1       0.525   9.067  21.647  0.00  0.00    +0.000 C 
ATOM      9  O   UNL     1       0.708   9.256  20.240  0.00  0.00    +0.000 OA
ENDBRANCH   2   9
BRANCH   7  10
ATOM     10  O   UNL     1       1.849   9.679  17.537  0.00  0.00    +0.000 OA
ATOM     11  C   UNL     1       2.267  10.974  17.929  0.00  0.00    +0.000 C 
ENDBRANCH   7  10
ENDBRANCH   1   5
BRANCH   1  12
ATOM     12  N   UNL     1       4.308   4.945  16.823  0.00  0.00    +0.000 NA
ATOM     13  C   UNL     1       5.289   5.186  15.755  0.00  0.00    +0.000 C 
BRANCH  12  14
ATOM     14  C   UNL     1       4.362   3.512  17.209  0.00  0.00    +0.000 C 
BRANCH  14  15
ATOM     15  C   UNL     1       2.984   2.847  17.328  0.00  0.00    +0.000 C 
BRANCH  15  16
ATOM     16  C   UNL     1       2.469   2.894  18.743  0.00  0.00    +0.000 A 
ATOM     17  C   UNL     1       1.131   3.162  19.002  0.00  0.00    +0.000 A 
ATOM     18  C   UNL     1       0.698   3.209  20.323  0.00  0.00    +0.000 A 
ATOM     19  C   UNL     1       1.613   2.981  21.347  0.00  0.00    +0.000 A 
ATOM     20  C   UNL     1       2.924   2.712  21.004  0.00  0.00    +0.000 A 
ATOM     21  N   UNL     1       3.371   2.657  19.731  0.00  0.00    +0.000 NA
ENDBRANCH  15  16
ENDBRANCH  14  15
ENDBRANCH  12  14
ENDBRANCH   1  12
TORSDOF 7
ENDMDL
MODEL 2
REMARK VINA RESULT:      -6.3      2.766      5.833
REMARK  Name = 
REMARK  10 active torsions:
REMARK  status: ('A' for Active; 'I' for Inactive)
REMARK    1  A    between atoms: C_1  and  O_2
REMARK    2  A    between atoms: O_2  and  C_3
REMARK    3  A    between atoms: C_6  and  C_7
REMARK    4  A    between atoms: C_7  and  N_8
REMARK    5  A    between atoms: N_8  and  C_9
REMARK    6  A    between atoms: N_8  and  C_10
REMARK    7  A    between atoms: C_10  and  C_11
REMARK    8  A    between atoms: C_11  and  C_12
REMARK    9  A    between atoms: C_19  and  O_20
REMARK   10  A    between atoms: O_20  and  C_21
REMARK                            x       y       z     vdW  Elec       q    Type
REMARK                         _______ _______ _______ _____ _____    ______ ____
ROOT
ATOM      1  C   UNL     1       6.072   5.195  18.676  0.00  0.00    +0.000 C 
ENDROOT
BRANCH   1   5
ATOM      2  C   UNL     1       2.277   3.712  20.097  0.00  0.00    +0.000 A 
ATOM      3  C   UNL     1       3.183   2.841  19.469  0.00  0.00    +0.000 A 
ATOM      4  C   UNL     1       4.396   3.311  18.960  0.00  0.00    +0.000 A 
ATOM      5  C   UNL     1       4.700   4.671  19.029  0.00  0.00    +0.000 A 
ATOM      6  C   UNL     1       3.741   5.550  19.548  0.00  0.00    +0.000 A 
ATOM      7  C   UNL     1       2.533   5.091  20.085  0.00  0.00    +0.000 A 
BRANCH   2   9
ATOM      8  C   UNL     1       1.375   2.521  21.924  0.00  0.00    +0.000 C 
ATOM      9  O   UNL     1       1.147   3.229  20.702  0.00  0.00    +0.000 OA
ENDBRANCH   2   9
BRANCH   7  10
ATOM     10  O   UNL     1       1.777   6.123  20.569  0.00  0.00    +0.000 OA
ATOM     11  C   UNL     1       2.009   7.436  20.093  0.00  0.00    +0.000 C 
ENDBRANCH   7  10
ENDBRANCH   1   5
BRANCH   1  12
ATOM     12  N   UNL     1       6.085   6.350  17.761  0.00  0.00    +0.000 NA
ATOM     13  C   UNL     1       7.437   6.922  17.682  0.00  0.00    +0.000 C 
BRANCH  12  14
ATOM     14  C   UNL     1       5.663   5.927  16.401  0.00  0.00    +0.000 C 
BRANCH  14  15
ATOM     15  C   UNL     1       6.193   4.548  15.986  0.00  0.00    +0.000 C 
BRANCH  15  16
ATOM     16  C   UNL     1       6.608   4.528  14.538  0.00  0.00    +0.000 A 
ATOM     17  C   UNL     1       5.980   3.686  13.631  0.00  0.00    +0.000 A 
ATOM     18  C   UNL     1       6.401   3.689  12.306  0.00  0.00    +0.000 A 
ATOM     19  C   UNL     1       7.435   4.539  11.923  0.00  0.00    +0.000 A 
ATOM     20  C   UNL     1       8.001   5.354  12.886  0.00  0.00    +0.000 A 
ATOM     21  N   UNL     1       7.609   5.374  14.178  0.00  0.00    +0.000 NA
ENDBRANCH  15  16
ENDBRANCH  14  15
ENDBRANCH  12  14
ENDBRANCH   1  12
TORSDOF 7
ENDMDL
MODEL 3
REMARK VINA RESULT:      -6.3      2.741      5.109
REMARK  Name = 
REMARK  10 active torsions:
REMARK  status: ('A' for Active; 'I' for Inactive)
REMARK    1  A    between atoms: C_1  and  O_2
REMARK    2  A    between atoms: O_2  and  C_3
REMARK    3  A    between atoms: C_6  and  C_7
REMARK    4  A    between atoms: C_7  and  N_8
REMARK    5  A    between atoms: N_8  and  C_9
REMARK    6  A    between atoms: N_8  and  C_10
REMARK    7  A    between atoms: C_10  and  C_11
REMARK    8  A    between atoms: C_11  and  C_12
REMARK    9  A    between atoms: C_19  and  O_20
REMARK   10  A    between atoms: O_20  and  C_21
REMARK                            x       y       z     vdW  Elec       q    Type
REMARK                         _______ _______ _______ _____ _____    ______ ____
ROOT
ATOM      1  C   UNL     1       2.422   6.138  18.363  0.00  0.00    +0.000 C 
ENDROOT
BRANCH   1   5
ATOM      2  C   UNL     1       6.144   4.888  16.571  0.00  0.00    +0.000 A 
ATOM      3  C   UNL     1       4.944   4.244  16.226  0.00  0.00    +0.000 A 
ATOM      4  C   UNL     1       3.737   4.602  16.829  0.00  0.00    +0.000 A 
ATOM      5  C   UNL     1       3.718   5.579  17.826  0.00  0.00    +0.000 A 
ATOM      6  C   UNL     1       4.933   6.130  18.249  0.00  0.00    +0.000 A 
ATOM      7  C   UNL     1       6.148   5.801  17.636  0.00  0.00    +0.000 A 
BRANCH   2   9
ATOM      8  C   UNL     1       7.216   4.771  14.473  0.00  0.00    +0.000 C 
ATOM      9  O   UNL     1       7.303   4.621  15.893  0.00  0.00    +0.000 OA
ENDBRANCH   2   9
BRANCH   7  10
ATOM     10  O   UNL     1       7.190   6.494  18.187  0.00  0.00    +0.000 OA
ATOM     11  C   UNL     1       7.976   5.882  19.194  0.00  0.00    +0.000 C 
ENDBRANCH   7  10
ENDBRANCH   1   5
BRANCH   1  12
ATOM     12  N   UNL     1       2.416   6.424  19.809  0.00  0.00    +0.000 NA
ATOM     13  C   UNL     1       1.968   7.804  20.053  0.00  0.00    +0.000 C 
BRANCH  12  14
ATOM     14  C   UNL     1       1.496   5.491  20.509  0.00  0.00    +0.000 C 
BRANCH  14  15
ATOM     15  C   UNL     1       2.209   4.338  21.229  0.00  0.00    +0.000 C 
BRANCH  15  16
ATOM     16  C   UNL     1       2.656   3.274  20.259  0.00  0.00    +0.000 A 
ATOM     17  C   UNL     1       1.754   2.698  19.374  0.00  0.00    +0.000 A 
ATOM     18  C   UNL     1       2.204   1.711  18.504  0.00  0.00    +0.000 A 
ATOM     19  C   UNL     1       3.543   1.332  18.539  0.00  0.00    +0.000 A 
ATOM     20  C   UNL     1       4.376   1.961  19.443  0.00  0.00    +0.000 A 
ATOM     21  N   UNL     1       3.968   2.925  20.297  0.00  0.00    +0.000 NA
ENDBRANCH  15  16
ENDBRANCH  14  15
ENDBRANCH  12  14
ENDBRANCH   1  12
TORSDOF 7
ENDMDL
MODEL 4
REMARK VINA RESULT:      -6.2      2.851      5.980
REMARK  Name = 
REMARK  10 active torsions:
REMARK  status: ('A' for Active; 'I' for Inactive)
REMARK    1  A    between atoms: C_1  and  O_2
REMARK    2  A    between atoms: O_2  and  C_3
REMARK    3  A    between atoms: C_6  and  C_7
REMARK    4  A    between atoms: C_7  and  N_8
REMARK    5  A    between atoms: N_8  and  C_9
REMARK    6  A    between atoms: N_8  and  C_10
REMARK    7  A    between atoms: C_10  and  C_11
REMARK    8  A    between atoms: C_11  and  C_12
REMARK    9  A    between atoms: C_19  and  O_20
REMARK   10  A    between atoms: O_20  and  C_21
REMARK                            x       y       z     vdW  Elec       q    Type
REMARK                         _______ _______ _______ _____ _____    ______ ____
ROOT
ATOM      1  C   UNL     1       4.051   3.696  19.571  0.00  0.00    +0.000 C 
ENDROOT
BRANCH   1   5
ATOM      2  C   UNL     1       6.126   4.924  15.991  0.00  0.00    +0.000 A 
ATOM      3  C   UNL     1       4.970   4.130  15.898  0.00  0.00    +0.000 A 
ATOM      4  C   UNL     1       4.312   3.683  17.046  0.00  0.00    +0.000 A 
ATOM      5  C   UNL     1       4.828   3.984  18.308  0.00  0.00    +0.000 A 
ATOM      6  C   UNL     1       6.044   4.672  18.390  0.00  0.00    +0.000 A 
ATOM      7  C   UNL     1       6.701   5.149  17.250  0.00  0.00    +0.000 A 
BRANCH   2   9
ATOM      8  C   UNL     1       6.830   4.554  13.770  0.00  0.00    +0.000 C 
ATOM      9  O   UNL     1       6.698   5.460  14.869  0.00  0.00    +0.000 OA
ENDBRANCH   2   9
BRANCH   7  10
ATOM     10  O   UNL     1       7.843   5.826  17.578  0.00  0.00    +0.000 OA
ATOM     11  C   UNL     1       7.747   7.145  18.086  0.00  0.00    +0.000 C 
ENDBRANCH   7  10
ENDBRANCH   1   5
BRANCH   1  12
ATOM     12  N   UNL     1       2.637   3.335  19.367  0.00  0.00    +0.000 NA
ATOM     13  C   UNL     1       2.203   2.377  20.394  0.00  0.00    +0.000 C 
BRANCH  12  14
ATOM     14  C   UNL     1       1.784   4.548  19.453  0.00  0.00    +0.000 C 
BRANCH  14  15
ATOM     15  C   UNL     1       2.422   5.703  20.238  0.00  0.00    +0.000 C 
BRANCH  15  16
ATOM     16  C   UNL     1       2.180   7.028  19.564  0.00  0.00    +0.000 A 
ATOM     17  C   UNL     1       2.638   7.262  18.274  0.00  0.00    +0.000 A 
ATOM     18  C   UNL     1       2.406   8.503  17.692  0.00  0.00    +0.000 A 
ATOM     19  C   UNL     1       1.717   9.474  18.414  0.00  0.00    +0.000 A 
ATOM     20  C   UNL     1       1.287   9.158  19.688  0.00  0.00    +0.000 A 
ATOM     21  N   UNL     1       1.495   7.961  20.276  0.00  0.00    +0.000 NA
ENDBRANCH  15  16
ENDBRANCH  14  15
ENDBRANCH  12  14
ENDBRANCH   1  12
TORSDOF 7
ENDMDL
MODEL 5
REMARK VINA RESULT:      -6.1      3.238      6.332
REMARK  Name = 
REMARK  10 active torsions:
REMARK  status: ('A' for Active; 'I' for Inactive)
REMARK    1  A    between atoms: C_1  and  O_2
REMARK    2  A    between atoms: O_2  and  C_3
REMARK    3  A    between atoms: C_6  and  C_7
REMARK    4  A    between atoms: C_7  and  N_8
REMARK    5  A    between atoms: N_8  and  C_9
REMARK    6  A    between atoms: N_8  and  C_10
REMARK    7  A    between atoms: C_10  and  C_11
REMARK    8  A    between atoms: C_11  and  C_12
REMARK    9  A    between atoms: C_19  and  O_20
REMARK   10  A    between atoms: O_20  and  C_21
REMARK                            x       y       z     vdW  Elec       q    Type
REMARK                         _______ _______ _______ _____ _____    ______ ____
ROOT
ATOM      1  C   UNL     1       6.267   5.610  18.577  0.00  0.00    +0.000 C 
ENDROOT
BRANCH   1   5
ATOM      2  C   UNL     1       2.455   4.053  19.868  0.00  0.00    +0.000 A 
ATOM      3  C   UNL     1       2.715   5.432  19.945  0.00  0.00    +0.000 A 
ATOM      4  C   UNL     1       3.959   5.949  19.576  0.00  0.00    +0.000 A 
ATOM      5  C   UNL     1       4.980   5.088  19.171  0.00  0.00    +0.000 A 
ATOM      6  C   UNL     1       4.751   3.708  19.212  0.00  0.00    +0.000 A 
ATOM      7  C   UNL     1       3.502   3.176  19.553  0.00  0.00    +0.000 A 
BRANCH   2   9
ATOM      8  C   UNL     1       1.071   2.822  21.330  0.00  0.00    +0.000 C 
ATOM      9  O   UNL     1       1.200   3.563  20.113  0.00  0.00    +0.000 OA
ENDBRANCH   2   9
BRANCH   7  10
ATOM     10  O   UNL     1       3.505   1.810  19.482  0.00  0.00    +0.000 OA
ATOM     11  C   UNL     1       3.884   1.178  18.272  0.00  0.00    +0.000 C 
ENDBRANCH   7  10
ENDBRANCH   1   5
BRANCH   1  12
ATOM     12  N   UNL     1       6.103   6.624  17.520  0.00  0.00    +0.000 NA
ATOM     13  C   UNL     1       7.388   7.283  17.243  0.00  0.00    +0.000 C 
BRANCH  12  14
ATOM     14  C   UNL     1       5.613   5.985  16.273  0.00  0.00    +0.000 C 
BRANCH  14  15
ATOM     15  C   UNL     1       6.315   4.663  15.933  0.00  0.00    +0.000 C 
BRANCH  15  16
ATOM     16  C   UNL     1       6.657   4.580  14.468  0.00  0.00    +0.000 A 
ATOM     17  C   UNL     1       5.991   3.691  13.635  0.00  0.00    +0.000 A 
ATOM     18  C   UNL     1       6.344   3.636  12.291  0.00  0.00    +0.000 A 
ATOM     19  C   UNL     1       7.349   4.475  11.817  0.00  0.00    +0.000 A 
ATOM     20  C   UNL     1       7.955   5.337  12.710  0.00  0.00    +0.000 A 
ATOM     21  N   UNL     1       7.630   5.414  14.018  0.00  0.00    +0.000 NA
ENDBRANCH  15  16
ENDBRANCH  14  15
ENDBRANCH  12  14
ENDBRANCH   1  12
TORSDOF 7
ENDMDL
MODEL 6
REMARK VINA RESULT:      -6.1      2.644      5.710
REMARK  Name = 
REMARK  10 active torsions:
REMARK  status: ('A' for Active; 'I' for Inactive)
REMARK    1  A    between atoms: C_1  and  O_2
REMARK    2  A    between atoms: O_2  and  C_3
REMARK    3  A    between atoms: C_6  and  C_7
REMARK    4  A    between atoms: C_7  and  N_8
REMARK    5  A    between atoms: N_8  and  C_9
REMARK    6  A    between atoms: N_8  and  C_10
REMARK    7  A    between atoms: C_10  and  C_11
REMARK    8  A    between atoms: C_11  and  C_12
REMARK    9  A    between atoms: C_19  and  O_20
REMARK   10  A    between atoms: O_20  and  C_21
REMARK                            x       y       z     vdW  Elec       q    Type
REMARK                         _______ _______ _______ _____ _____    ______ ____
ROOT
ATOM      1  C   UNL     1       4.454   6.305  17.019  0.00  0.00    +0.000 C 
ENDROOT
BRANCH   1   5
ATOM      2  C   UNL     1       1.604   3.958  19.254  0.00  0.00    +0.000 A 
ATOM      3  C   UNL     1       2.113   3.476  18.036  0.00  0.00    +0.000 A 
ATOM      4  C   UNL     1       2.999   4.241  17.276  0.00  0.00    +0.000 A 
ATOM      5  C   UNL     1       3.354   5.523  17.698  0.00  0.00    +0.000 A 
ATOM      6  C   UNL     1       2.750   6.043  18.849  0.00  0.00    +0.000 A 
ATOM      7  C   UNL     1       1.880   5.279  19.636  0.00  0.00    +0.000 A 
BRANCH   2   9
ATOM      8  C   UNL     1       1.391   2.885  21.345  0.00  0.00    +0.000 C 
ATOM      9  O   UNL     1       0.833   3.160  20.056  0.00  0.00    +0.000 OA
ENDBRANCH   2   9
BRANCH   7  10
ATOM     10  O   UNL     1       1.450   5.980  20.729  0.00  0.00    +0.000 OA
ATOM     11  C   UNL     1       1.649   7.381  20.778  0.00  0.00    +0.000 C 
ENDBRANCH   7  10
ENDBRANCH   1   5
BRANCH   1  12
ATOM     12  N   UNL     1       5.717   6.393  17.774  0.00  0.00    +0.000 NA
ATOM     13  C   UNL     1       5.794   5.310  18.765  0.00  0.00    +0.000 C 
BRANCH  12  14
ATOM     14  C   UNL     1       6.872   6.279  16.848  0.00  0.00    +0.000 C 
BRANCH  14  15
ATOM     15  C   UNL     1       7.187   4.839  16.420  0.00  0.00    +0.000 C 
BRANCH  15  16
ATOM     16  C   UNL     1       7.103   4.677  14.924  0.00  0.00    +0.000 A 
ATOM     17  C   UNL     1       6.214   3.774  14.357  0.00  0.00    +0.000 A 
ATOM     18  C   UNL     1       6.177   3.646  12.972  0.00  0.00    +0.000 A 
ATOM     19  C   UNL     1       7.025   4.429  12.194  0.00  0.00    +0.000 A 
ATOM     20  C   UNL     1       7.873   5.311  12.837  0.00  0.00    +0.000 A 
ATOM     21  N   UNL     1       7.928   5.458  14.178  0.00  0.00    +0.000 NA
ENDBRANCH  15  16
ENDBRANCH  14  15
ENDBRANCH  12  14
ENDBRANCH   1  12
TORSDOF 7
ENDMDL
MODEL 7
REMARK VINA RESULT:      -6.0      0.896      1.980
REMARK  Name = 
REMARK  10 active torsions:
REMARK  status: ('A' for Active; 'I' for Inactive)
REMARK    1  A    between atoms: C_1  and  O_2
REMARK    2  A    between atoms: O_2  and  C_3
REMARK    3  A    between atoms: C_6  and  C_7
REMARK    4  A    between atoms: C_7  and  N_8
REMARK    5  A    between atoms: N_8  and  C_9
REMARK    6  A    between atoms: N_8  and  C_10
REMARK    7  A    between atoms: C_10  and  C_11
REMARK    8  A    between atoms: C_11  and  C_12
REMARK    9  A    between atoms: C_19  and  O_20
REMARK   10  A    between atoms: O_20  and  C_21
REMARK                            x       y       z     vdW  Elec       q    Type
REMARK                         _______ _______ _______ _____ _____    ______ ____
ROOT
ATOM      1  C   UNL     1       4.119   5.817  18.349  0.00  0.00    +0.000 C 
ENDROOT
BRANCH   1   5
ATOM      2  C   UNL     1       1.273   9.007  18.939  0.00  0.00    +0.000 A 
ATOM      3  C   UNL     1       2.047   8.961  17.767  0.00  0.00    +0.000 A 
ATOM      4  C   UNL     1       3.007   7.964  17.579  0.00  0.00    +0.000 A 
ATOM      5  C   UNL     1       3.241   7.023  18.583  0.00  0.00    +0.000 A 
ATOM      6  C   UNL     1       2.551   7.147  19.795  0.00  0.00    +0.000 A 
ATOM      7  C   UNL     1       1.568   8.125  19.989  0.00  0.00    +0.000 A 
BRANCH   2   9
ATOM      8  C   UNL     1       0.658  11.282  19.056  0.00  0.00    +0.000 C 
ATOM      9  O   UNL     1       0.251   9.910  19.068  0.00  0.00    +0.000 OA
ENDBRANCH   2   9
BRANCH   7  10
ATOM     10  O   UNL     1       1.002   8.025  21.230  0.00  0.00    +0.000 OA
ATOM     11  C   UNL     1       1.303   9.001  22.211  0.00  0.00    +0.000 C 
ENDBRANCH   7  10
ENDBRANCH   1   5
BRANCH   1  12
ATOM     12  N   UNL     1       4.046   5.242  16.994  0.00  0.00    +0.000 NA
ATOM     13  C   UNL     1       5.200   5.677  16.194  0.00  0.00    +0.000 C 
BRANCH  12  14
ATOM     14  C   UNL     1       4.045   3.759  17.069  0.00  0.00    +0.000 C 
BRANCH  14  15
ATOM     15  C   UNL     1       2.665   3.151  17.357  0.00  0.00    +0.000 C 
BRANCH  15  16
ATOM     16  C   UNL     1       2.363   3.143  18.833  0.00  0.00    +0.000 A 
ATOM     17  C   UNL     1       1.199   3.720  19.322  0.00  0.00    +0.000 A 
ATOM     18  C   UNL     1       0.963   3.702  20.692  0.00  0.00    +0.000 A 
ATOM     19  C   UNL     1       1.895   3.102  21.535  0.00  0.00    +0.000 A 
ATOM     20  C   UNL     1       3.023   2.542  20.967  0.00  0.00    +0.000 A 
ATOM     21  N   UNL     1       3.275   2.542  19.640  0.00  0.00    +0.000 NA
ENDBRANCH  15  16
ENDBRANCH  14  15
ENDBRANCH  12  14
ENDBRANCH   1  12
TORSDOF 7
ENDMDL
MODEL 8
REMARK VINA RESULT:      -6.0      3.035      6.276
REMARK  Name = 
REMARK  10 active torsions:
REMARK  status: ('A' for Active; 'I' for Inactive)
REMARK    1  A    between atoms: C_1  and  O_2
REMARK    2  A    between atoms: O_2  and  C_3
REMARK    3  A    between atoms: C_6  and  C_7
REMARK    4  A    between atoms: C_7  and  N_8
REMARK    5  A    between atoms: N_8  and  C_9
REMARK    6  A    between atoms: N_8  and  C_10
REMARK    7  A    between atoms: C_10  and  C_11
REMARK    8  A    between atoms: C_11  and  C_12
REMARK    9  A    between atoms: C_19  and  O_20
REMARK   10  A    between atoms: O_20  and  C_21
REMARK                            x       y       z     vdW  Elec       q    Type
REMARK                         _______ _______ _______ _____ _____    ______ ____
ROOT
ATOM      1  C   UNL     1       3.504   3.777  19.601  0.00  0.00    +0.000 C 
ENDROOT
BRANCH   1   5
ATOM      2  C   UNL     1       6.463   4.550  16.556  0.00  0.00    +0.000 A 
ATOM      3  C   UNL     1       5.283   3.860  16.232  0.00  0.00    +0.000 A 
ATOM      4  C   UNL     1       4.335   3.559  17.213  0.00  0.00    +0.000 A 
ATOM      5  C   UNL     1       4.576   3.902  18.544  0.00  0.00    +0.000 A 
ATOM      6  C   UNL     1       5.807   4.481  18.877  0.00  0.00    +0.000 A 
ATOM      7  C   UNL     1       6.755   4.813  17.902  0.00  0.00    +0.000 A 
BRANCH   2   9
ATOM      8  C   UNL     1       6.854   4.766  14.239  0.00  0.00    +0.000 C 
ATOM      9  O   UNL     1       7.331   4.951  15.575  0.00  0.00    +0.000 OA
ENDBRANCH   2   9
BRANCH   7  10
ATOM     10  O   UNL     1       7.855   5.406  18.457  0.00  0.00    +0.000 OA
ATOM     11  C   UNL     1       7.938   6.819  18.495  0.00  0.00    +0.000 C 
ENDBRANCH   7  10
ENDBRANCH   1   5
BRANCH   1  12
ATOM     12  N   UNL     1       2.242   4.476  19.298  0.00  0.00    +0.000 NA
ATOM     13  C   UNL     1       1.096   3.595  19.564  0.00  0.00    +0.000 C 
BRANCH  12  14
ATOM     14  C   UNL     1       2.118   5.692  20.142  0.00  0.00    +0.000 C 
BRANCH  14  15
ATOM     15  C   UNL     1       2.481   6.994  19.415  0.00  0.00    +0.000 C 
BRANCH  15  16
ATOM     16  C   UNL     1       1.650   8.151  19.905  0.00  0.00    +0.000 A 
ATOM     17  C   UNL     1       1.155   8.169  21.203  0.00  0.00    +0.000 A 
ATOM     18  C   UNL     1       0.381   9.249  21.613  0.00  0.00    +0.000 A 
ATOM     19  C   UNL     1       0.128  10.283  20.716  0.00  0.00    +0.000 A 
ATOM     20  C   UNL     1       0.665  10.193  19.446  0.00  0.00    +0.000 A 
ATOM     21  N   UNL     1       1.423   9.158  19.023  0.00  0.00    +0.000 NA
ENDBRANCH  15  16
ENDBRANCH  14  15
ENDBRANCH  12  14
ENDBRANCH   1  12
TORSDOF 7
ENDMDL
MODEL 9
REMARK VINA RESULT:      -6.0      2.886      5.172
REMARK  Name = 
REMARK  10 active torsions:
REMARK  status: ('A' for Active; 'I' for Inactive)
REMARK    1  A    between atoms: C_1  and  O_2
REMARK    2  A    between atoms: O_2  and  C_3
REMARK    3  A    between atoms: C_6  and  C_7
REMARK    4  A    between atoms: C_7  and  N_8
REMARK    5  A    between atoms: N_8  and  C_9
REMARK    6  A    between atoms: N_8  and  C_10
REMARK    7  A    between atoms: C_10  and  C_11
REMARK    8  A    between atoms: C_11  and  C_12
REMARK    9  A    between atoms: C_19  and  O_20
REMARK   10  A    between atoms: O_20  and  C_21
REMARK                            x       y       z     vdW  Elec       q    Type
REMARK                         _______ _______ _______ _____ _____    ______ ____
ROOT
ATOM      1  C   UNL     1       4.730   2.991  19.394  0.00  0.00    +0.000 C 
ENDROOT
BRANCH   1   5
ATOM      2  C   UNL     1       6.903   6.120  17.365  0.00  0.00    +0.000 A 
ATOM      3  C   UNL     1       6.346   6.357  18.633  0.00  0.00    +0.000 A 
ATOM      4  C   UNL     1       5.600   5.373  19.285  0.00  0.00    +0.000 A 
ATOM      5  C   UNL     1       5.357   4.151  18.656  0.00  0.00    +0.000 A 
ATOM      6  C   UNL     1       5.812   3.967  17.345  0.00  0.00    +0.000 A 
ATOM      7  C   UNL     1       6.584   4.933  16.689  0.00  0.00    +0.000 A 
BRANCH   2   9
ATOM      8  C   UNL     1       7.898   8.254  17.520  0.00  0.00    +0.000 C 
ATOM      9  O   UNL     1       7.734   7.039  16.782  0.00  0.00    +0.000 OA
ENDBRANCH   2   9
BRANCH   7  10
ATOM     10  O   UNL     1       6.949   4.516  15.439  0.00  0.00    +0.000 OA
ATOM     11  C   UNL     1       5.953   4.062  14.540  0.00  0.00    +0.000 C 
ENDBRANCH   7  10
ENDBRANCH   1   5
BRANCH   1  12
ATOM     12  N   UNL     1       3.474   2.485  18.813  0.00  0.00    +0.000 NA
ATOM     13  C   UNL     1       3.659   1.114  18.315  0.00  0.00    +0.000 C 
BRANCH  12  14
ATOM     14  C   UNL     1       2.403   2.481  19.841  0.00  0.00    +0.000 C 
BRANCH  14  15
ATOM     15  C   UNL     1       1.219   3.401  19.511  0.00  0.00    +0.000 C 
BRANCH  15  16
ATOM     16  C   UNL     1       1.669   4.821  19.287  0.00  0.00    +0.000 A 
ATOM     17  C   UNL     1       1.967   5.277  18.010  0.00  0.00    +0.000 A 
ATOM     18  C   UNL     1       2.391   6.591  17.847  0.00  0.00    +0.000 A 
ATOM     19  C   UNL     1       2.499   7.415  18.964  0.00  0.00    +0.000 A 
ATOM     20  C   UNL     1       2.174   6.886  20.198  0.00  0.00    +0.000 A 
ATOM     21  N   UNL     1       1.756   5.615  20.385  0.00  0.00    +0.000 NA
ENDBRANCH  15  16
ENDBRANCH  14  15
ENDBRANCH  12  14
ENDBRANCH   1  12
TORSDOF 7
ENDMDL
