MODEL 1
REMARK VINA RESULT:      -7.1      0.000      0.000
REMARK  Name = 
REMARK  8 active torsions:
REMARK  status: ('A' for Active; 'I' for Inactive)
REMARK    1  A    between atoms: C_1  and  O_2
REMARK    2  A    between atoms: O_2  and  C_3
REMARK    3  A    between atoms: C_6  and  C_7
REMARK    4  A    between atoms: C_11  and  C_12
REMARK    5  A    between atoms: C_12  and  C_13
REMARK    6  A    between atoms: C_13  and  O_14
REMARK    7  A    between atoms: C_15  and  O_16
REMARK    8  A    between atoms: O_16  and  C_17
REMARK                            x       y       z     vdW  Elec       q    Type
REMARK                         _______ _______ _______ _____ _____    ______ ____
ROOT
ATOM      1  C   UNL     1       1.927   8.427  18.825  0.00  0.00    +0.000 A 
ATOM      2  C   UNL     1       2.696   8.201  17.703  0.00  0.00    +0.000 A 
ATOM      3  C   UNL     1       3.406   7.004  17.918  0.00  0.00    +0.000 A 
ATOM      4  C   UNL     1       4.272   6.245  17.132  0.00  0.00    +0.000 A 
ATOM      5  C   UNL     1       4.802   5.050  17.643  0.00  0.00    +0.000 A 
ATOM      6  C   UNL     1       4.472   4.628  18.946  0.00  0.00    +0.000 A 
ATOM      7  C   UNL     1       3.606   5.391  19.759  0.00  0.00    +0.000 A 
ATOM      8  C   UNL     1       3.081   6.568  19.194  0.00  0.00    +0.000 A 
ATOM      9  O   UNL     1       2.182   7.448  19.761  0.00  0.00    +0.000 OA
ENDROOT
BRANCH   1  13
ATOM     10  C   UNL     1      -1.247  11.210  19.575  0.00  0.00    +0.000 A 
ATOM     11  C   UNL     1      -1.016  10.727  18.297  0.00  0.00    +0.000 A 
ATOM     12  C   UNL     1       0.044   9.846  18.062  0.00  0.00    +0.000 A 
ATOM     13  C   UNL     1       0.902   9.437  19.099  0.00  0.00    +0.000 A 
ATOM     14  C   UNL     1       0.693   9.980  20.370  0.00  0.00    +0.000 A 
ATOM     15  C   UNL     1      -0.375  10.860  20.607  0.00  0.00    +0.000 A 
BRANCH  10  17
ATOM     16  C   UNL     1      -2.369  12.830  20.878  0.00  0.00    +0.000 C 
ATOM     17  O   UNL     1      -2.333  12.039  19.695  0.00  0.00    +0.000 OA
ENDBRANCH  10  17
ENDBRANCH   1  13
BRANCH   6  18
ATOM     18  O   UNL     1       5.055   3.436  19.301  0.00  0.00    +0.000 OA
ATOM     19  C   UNL     1       4.239   2.360  19.731  0.00  0.00    +0.000 C 
ENDBRANCH   6  18
BRANCH   5  20
ATOM     20  C   UNL     1       5.714   4.262  16.724  0.00  0.00    +0.000 C 
BRANCH  20  21
ATOM     21  C   UNL     1       7.187   4.664  16.825  0.00  0.00    +0.000 C 
BRANCH  21  22
ATOM     22  O   UNL     1       7.780   4.218  18.042  0.00  0.00    +0.000 OA
ATOM     23  H   UNL     1       7.050   3.937  18.622  0.00  0.00    +0.000 HD
ENDBRANCH  21  22
ENDBRANCH  20  21
ENDBRANCH   5  20
TORSDOF 6
ENDMDL
MODEL 2
REMARK VINA RESULT:      -7.0      0.276      1.058
REMARK  Name = 
REMARK  8 active torsions:
REMARK  status: ('A' for Active; 'I' for Inactive)
REMARK    1  A    between atoms: C_1  and  O_2
REMARK    2  A    between atoms: O_2  and  C_3
REMARK    3  A    between atoms: C_6  and  C_7
REMARK    4  A    between atoms: C_11  and  C_12
REMARK    5  A    between atoms: C_12  and  C_13
REMARK    6  A    between atoms: C_13  and  O_14
REMARK    7  A    between atoms: C_15  and  O_16
REMARK    8  A    between atoms: O_16  and  C_17
REMARK                            x       y       z     vdW  Elec       q    Type
REMARK                         _______ _______ _______ _____ _____    ______ ____
ROOT
ATOM      1  C   UNL     1       1.882   8.410  18.847  0.00  0.00    +0.000 A 
ATOM      2  C   UNL     1       2.649   8.201  17.721  0.00  0.00    +0.000 A 
ATOM      3  C   UNL     1       3.377   7.013  17.927  0.00  0.00    +0.000 A 
ATOM      4  C   UNL     1       4.250   6.271  17.134  0.00  0.00    +0.000 A 
ATOM      5  C   UNL     1       4.800   5.081  17.636  0.00  0.00    +0.000 A 
ATOM      6  C   UNL     1       4.481   4.648  18.939  0.00  0.00    +0.000 A 
ATOM      7  C   UNL     1       3.608   5.395  19.759  0.00  0.00    +0.000 A 
ATOM      8  C   UNL     1       3.064   6.567  19.202  0.00  0.00    +0.000 A 
ATOM      9  O   UNL     1       2.155   7.431  19.777  0.00  0.00    +0.000 OA
ENDROOT
BRANCH   1  13
ATOM     10  C   UNL     1      -0.975  11.480  19.741  0.00  0.00    +0.000 A 
ATOM     11  C   UNL     1      -0.224  10.897  20.750  0.00  0.00    +0.000 A 
ATOM     12  C   UNL     1       0.679   9.873  20.446  0.00  0.00    +0.000 A 
ATOM     13  C   UNL     1       0.843   9.405  19.131  0.00  0.00    +0.000 A 
ATOM     14  C   UNL     1       0.035   9.961  18.135  0.00  0.00    +0.000 A 
ATOM     15  C   UNL     1      -0.867  10.994  18.438  0.00  0.00    +0.000 A 
BRANCH  10  17
ATOM     16  C   UNL     1      -2.208  12.444  21.511  0.00  0.00    +0.000 C 
ATOM     17  O   UNL     1      -1.802  12.496  20.148  0.00  0.00    +0.000 OA
ENDBRANCH  10  17
ENDBRANCH   1  13
BRANCH   6  18
ATOM     18  O   UNL     1       5.083   3.463  19.286  0.00  0.00    +0.000 OA
ATOM     19  C   UNL     1       4.290   2.392  19.769  0.00  0.00    +0.000 C 
ENDBRANCH   6  18
BRANCH   5  20
ATOM     20  C   UNL     1       5.719   4.310  16.710  0.00  0.00    +0.000 C 
BRANCH  20  21
ATOM     21  C   UNL     1       7.192   4.705  16.836  0.00  0.00    +0.000 C 
BRANCH  21  22
ATOM     22  O   UNL     1       7.787   4.177  18.020  0.00  0.00    +0.000 OA
ATOM     23  H   UNL     1       7.095   4.182  18.705  0.00  0.00    +0.000 HD
ENDBRANCH  21  22
ENDBRANCH  20  21
ENDBRANCH   5  20
TORSDOF 6
ENDMDL
MODEL 3
REMARK VINA RESULT:      -7.0      2.062      8.241
REMARK  Name = 
REMARK  8 active torsions:
REMARK  status: ('A' for Active; 'I' for Inactive)
REMARK    1  A    between atoms: C_1  and  O_2
REMARK    2  A    between atoms: O_2  and  C_3
REMARK    3  A    between atoms: C_6  and  C_7
REMARK    4  A    between atoms: C_11  and  C_12
REMARK    5  A    between atoms: C_12  and  C_13
REMARK    6  A    between atoms: C_13  and  O_14
REMARK    7  A    between atoms: C_15  and  O_16
REMARK    8  A    between atoms: O_16  and  C_17
REMARK                            x       y       z     vdW  Elec       q    Type
REMARK                         _______ _______ _______ _____ _____    ______ ____
ROOT
ATOM      1  C   UNL     1       3.458   6.751  18.166  0.00  0.00    +0.000 A 
ATOM      2  C   UNL     1       3.002   6.397  19.419  0.00  0.00    +0.000 A 
ATOM      3  C   UNL     1       2.075   7.379  19.817  0.00  0.00    +0.000 A 
ATOM      4  C   UNL     1       1.250   7.526  20.931  0.00  0.00    +0.000 A 
ATOM      5  C   UNL     1       0.393   8.635  21.016  0.00  0.00    +0.000 A 
ATOM      6  C   UNL     1       0.377   9.599  19.988  0.00  0.00    +0.000 A 
ATOM      7  C   UNL     1       1.215   9.470  18.859  0.00  0.00    +0.000 A 
ATOM      8  C   UNL     1       2.038   8.330  18.808  0.00  0.00    +0.000 A 
ATOM      9  O   UNL     1       2.898   7.955  17.797  0.00  0.00    +0.000 OA
ENDROOT
BRANCH   1  13
ATOM     10  C   UNL     1       5.781   4.569  15.298  0.00  0.00    +0.000 A 
ATOM     11  C   UNL     1       5.055   3.904  16.274  0.00  0.00    +0.000 A 
ATOM     12  C   UNL     1       4.330   4.631  17.223  0.00  0.00    +0.000 A 
ATOM     13  C   UNL     1       4.323   6.038  17.222  0.00  0.00    +0.000 A 
ATOM     14  C   UNL     1       5.108   6.693  16.270  0.00  0.00    +0.000 A 
ATOM     15  C   UNL     1       5.832   5.964  15.312  0.00  0.00    +0.000 A 
BRANCH  10  17
ATOM     16  C   UNL     1       5.799   3.635  13.128  0.00  0.00    +0.000 C 
ATOM     17  O   UNL     1       6.426   3.756  14.401  0.00  0.00    +0.000 OA
ENDBRANCH  10  17
ENDBRANCH   1  13
BRANCH   6  18
ATOM     18  O   UNL     1      -0.520  10.616  20.203  0.00  0.00    +0.000 OA
ATOM     19  C   UNL     1      -0.848  11.495  19.140  0.00  0.00    +0.000 C 
ENDBRANCH   6  18
BRANCH   5  20
ATOM     20  C   UNL     1      -0.496   8.717  22.240  0.00  0.00    +0.000 C 
BRANCH  20  21
ATOM     21  C   UNL     1       0.068   9.605  23.352  0.00  0.00    +0.000 C 
BRANCH  21  22
ATOM     22  O   UNL     1      -0.368  10.957  23.228  0.00  0.00    +0.000 OA
ATOM     23  H   UNL     1      -1.153  11.051  23.796  0.00  0.00    +0.000 HD
ENDBRANCH  21  22
ENDBRANCH  20  21
ENDBRANCH   5  20
TORSDOF 6
ENDMDL
MODEL 4
REMARK VINA RESULT:      -6.9      1.505      2.011
REMARK  Name = 
REMARK  8 active torsions:
REMARK  status: ('A' for Active; 'I' for Inactive)
REMARK    1  A    between atoms: C_1  and  O_2
REMARK    2  A    between atoms: O_2  and  C_3
REMARK    3  A    between atoms: C_6  and  C_7
REMARK    4  A    between atoms: C_11  and  C_12
REMARK    5  A    between atoms: C_12  and  C_13
REMARK    6  A    between atoms: C_13  and  O_14
REMARK    7  A    between atoms: C_15  and  O_16
REMARK    8  A    between atoms: O_16  and  C_17
REMARK                            x       y       z     vdW  Elec       q    Type
REMARK                         _______ _______ _______ _____ _____    ______ ____
ROOT
ATOM      1  C   UNL     1       1.652   7.964  20.094  0.00  0.00    +0.000 A 
ATOM      2  C   UNL     1       2.310   8.078  18.888  0.00  0.00    +0.000 A 
ATOM      3  C   UNL     1       2.881   6.822  18.605  0.00  0.00    +0.000 A 
ATOM      4  C   UNL     1       3.593   6.313  17.519  0.00  0.00    +0.000 A 
ATOM      5  C   UNL     1       4.006   4.972  17.531  0.00  0.00    +0.000 A 
ATOM      6  C   UNL     1       3.715   4.150  18.638  0.00  0.00    +0.000 A 
ATOM      7  C   UNL     1       3.005   4.654  19.750  0.00  0.00    +0.000 A 
ATOM      8  C   UNL     1       2.592   5.997  19.681  0.00  0.00    +0.000 A 
ATOM      9  O   UNL     1       1.847   6.700  20.606  0.00  0.00    +0.000 OA
ENDROOT
BRANCH   1  13
ATOM     10  C   UNL     1      -0.701  10.793  22.295  0.00  0.00    +0.000 A 
ATOM     11  C   UNL     1      -0.114   9.712  22.933  0.00  0.00    +0.000 A 
ATOM     12  C   UNL     1       0.622   8.779  22.196  0.00  0.00    +0.000 A 
ATOM     13  C   UNL     1       0.779   8.903  20.804  0.00  0.00    +0.000 A 
ATOM     14  C   UNL     1       0.131   9.965  20.167  0.00  0.00    +0.000 A 
ATOM     15  C   UNL     1      -0.602  10.906  20.907  0.00  0.00    +0.000 A 
BRANCH  10  17
ATOM     16  C   UNL     1      -1.113  13.043  22.888  0.00  0.00    +0.000 C 
ATOM     17  O   UNL     1      -1.369  11.661  23.120  0.00  0.00    +0.000 OA
ENDBRANCH  10  17
ENDBRANCH   1  13
BRANCH   6  18
ATOM     18  O   UNL     1       4.170   2.862  18.501  0.00  0.00    +0.000 OA
ATOM     19  C   UNL     1       3.270   1.780  18.677  0.00  0.00    +0.000 C 
ENDBRANCH   6  18
BRANCH   5  20
ATOM     20  C   UNL     1       4.751   4.477  16.308  0.00  0.00    +0.000 C 
BRANCH  20  21
ATOM     21  C   UNL     1       6.259   4.734  16.359  0.00  0.00    +0.000 C 
BRANCH  21  22
ATOM     22  O   UNL     1       6.865   4.126  17.497  0.00  0.00    +0.000 OA
ATOM     23  H   UNL     1       6.175   3.594  17.931  0.00  0.00    +0.000 HD
ENDBRANCH  21  22
ENDBRANCH  20  21
ENDBRANCH   5  20
TORSDOF 6
ENDMDL
MODEL 5
REMARK VINA RESULT:      -6.9      1.953      8.258
REMARK  Name = 
REMARK  8 active torsions:
REMARK  status: ('A' for Active; 'I' for Inactive)
REMARK    1  A    between atoms: C_1  and  O_2
REMARK    2  A    between atoms: O_2  and  C_3
REMARK    3  A    between atoms: C_6  and  C_7
REMARK    4  A    between atoms: C_11  and  C_12
REMARK    5  A    between atoms: C_12  and  C_13
REMARK    6  A    between atoms: C_13  and  O_14
REMARK    7  A    between atoms: C_15  and  O_16
REMARK    8  A    between atoms: O_16  and  C_17
REMARK                            x       y       z     vdW  Elec       q    Type
REMARK                         _______ _______ _______ _____ _____    ______ ____
ROOT
ATOM      1  C   UNL     1       2.969   7.152  18.170  0.00  0.00    +0.000 A 
ATOM      2  C   UNL     1       2.563   7.130  19.488  0.00  0.00    +0.000 A 
ATOM      3  C   UNL     1       1.765   8.272  19.697  0.00  0.00    +0.000 A 
ATOM      4  C   UNL     1       1.033   8.747  20.784  0.00  0.00    +0.000 A 
ATOM      5  C   UNL     1       0.298   9.936  20.656  0.00  0.00    +0.000 A 
ATOM      6  C   UNL     1       0.310  10.650  19.441  0.00  0.00    +0.000 A 
ATOM      7  C   UNL     1       1.056  10.188  18.335  0.00  0.00    +0.000 A 
ATOM      8  C   UNL     1       1.757   8.980  18.504  0.00  0.00    +0.000 A 
ATOM      9  O   UNL     1       2.508   8.301  17.567  0.00  0.00    +0.000 OA
ENDROOT
BRANCH   1  13
ATOM     10  C   UNL     1       5.304   4.318  15.956  0.00  0.00    +0.000 A 
ATOM     11  C   UNL     1       5.478   5.680  15.768  0.00  0.00    +0.000 A 
ATOM     12  C   UNL     1       4.686   6.591  16.473  0.00  0.00    +0.000 A 
ATOM     13  C   UNL     1       3.695   6.159  17.373  0.00  0.00    +0.000 A 
ATOM     14  C   UNL     1       3.491   4.784  17.507  0.00  0.00    +0.000 A 
ATOM     15  C   UNL     1       4.291   3.868  16.805  0.00  0.00    +0.000 A 
BRANCH  10  17
ATOM     16  C   UNL     1       6.318   3.870  13.870  0.00  0.00    +0.000 C 
ATOM     17  O   UNL     1       6.158   3.519  15.240  0.00  0.00    +0.000 OA
ENDBRANCH  10  17
ENDBRANCH   1  13
BRANCH   6  18
ATOM     18  O   UNL     1      -0.465  11.783  19.462  0.00  0.00    +0.000 OA
ATOM     19  C   UNL     1      -1.088  12.227  18.268  0.00  0.00    +0.000 C 
ENDBRANCH   6  18
BRANCH   5  20
ATOM     20  C   UNL     1      -0.497  10.380  21.868  0.00  0.00    +0.000 C 
BRANCH  20  21
ATOM     21  C   UNL     1      -0.542   9.339  22.989  0.00  0.00    +0.000 C 
BRANCH  21  22
ATOM     22  O   UNL     1       0.335   9.673  24.062  0.00  0.00    +0.000 OA
ATOM     23  H   UNL     1       0.311   8.926  24.686  0.00  0.00    +0.000 HD
ENDBRANCH  21  22
ENDBRANCH  20  21
ENDBRANCH   5  20
TORSDOF 6
ENDMDL
MODEL 6
REMARK VINA RESULT:      -6.9      1.904      3.014
REMARK  Name = 
REMARK  8 active torsions:
REMARK  status: ('A' for Active; 'I' for Inactive)
REMARK    1  A    between atoms: C_1  and  O_2
REMARK    2  A    between atoms: O_2  and  C_3
REMARK    3  A    between atoms: C_6  and  C_7
REMARK    4  A    between atoms: C_11  and  C_12
REMARK    5  A    between atoms: C_12  and  C_13
REMARK    6  A    between atoms: C_13  and  O_14
REMARK    7  A    between atoms: C_15  and  O_16
REMARK    8  A    between atoms: O_16  and  C_17
REMARK                            x       y       z     vdW  Elec       q    Type
REMARK                         _______ _______ _______ _____ _____    ______ ____
ROOT
ATOM      1  C   UNL     1       1.258   8.225  20.607  0.00  0.00    +0.000 A 
ATOM      2  C   UNL     1       1.470   6.901  20.928  0.00  0.00    +0.000 A 
ATOM      3  C   UNL     1       2.281   6.352  19.916  0.00  0.00    +0.000 A 
ATOM      4  C   UNL     1       2.872   5.103  19.730  0.00  0.00    +0.000 A 
ATOM      5  C   UNL     1       3.672   4.878  18.598  0.00  0.00    +0.000 A 
ATOM      6  C   UNL     1       3.865   5.904  17.651  0.00  0.00    +0.000 A 
ATOM      7  C   UNL     1       3.265   7.170  17.820  0.00  0.00    +0.000 A 
ATOM      8  C   UNL     1       2.492   7.354  18.982  0.00  0.00    +0.000 A 
ATOM      9  O   UNL     1       1.852   8.504  19.396  0.00  0.00    +0.000 OA
ENDROOT
BRANCH   1  13
ATOM     10  C   UNL     1      -0.811  11.396  22.620  0.00  0.00    +0.000 A 
ATOM     11  C   UNL     1      -0.128  11.635  21.438  0.00  0.00    +0.000 A 
ATOM     12  C   UNL     1       0.570  10.597  20.811  0.00  0.00    +0.000 A 
ATOM     13  C   UNL     1       0.608   9.302  21.359  0.00  0.00    +0.000 A 
ATOM     14  C   UNL     1      -0.035   9.093  22.581  0.00  0.00    +0.000 A 
ATOM     15  C   UNL     1      -0.742  10.132  23.208  0.00  0.00    +0.000 A 
BRANCH  10  17
ATOM     16  C   UNL     1      -2.887  12.288  23.308  0.00  0.00    +0.000 C 
ATOM     17  O   UNL     1      -1.488  12.475  23.127  0.00  0.00    +0.000 OA
ENDBRANCH  10  17
ENDBRANCH   1  13
BRANCH   6  18
ATOM     18  O   UNL     1       4.680   5.541  16.608  0.00  0.00    +0.000 OA
ATOM     19  C   UNL     1       5.967   6.125  16.490  0.00  0.00    +0.000 C 
ENDBRANCH   6  18
BRANCH   5  20
ATOM     20  C   UNL     1       4.305   3.507  18.472  0.00  0.00    +0.000 C 
BRANCH  20  21
ATOM     21  C   UNL     1       4.007   2.580  19.653  0.00  0.00    +0.000 C 
BRANCH  21  22
ATOM     22  O   UNL     1       5.150   1.820  20.037  0.00  0.00    +0.000 OA
ATOM     23  H   UNL     1       5.501   1.415  19.224  0.00  0.00    +0.000 HD
ENDBRANCH  21  22
ENDBRANCH  20  21
ENDBRANCH   5  20
TORSDOF 6
ENDMDL
MODEL 7
REMARK VINA RESULT:      -6.9      1.771      2.217
REMARK  Name = 
REMARK  8 active torsions:
REMARK  status: ('A' for Active; 'I' for Inactive)
REMARK    1  A    between atoms: C_1  and  O_2
REMARK    2  A    between atoms: O_2  and  C_3
REMARK    3  A    between atoms: C_6  and  C_7
REMARK    4  A    between atoms: C_11  and  C_12
REMARK    5  A    between atoms: C_12  and  C_13
REMARK    6  A    between atoms: C_13  and  O_14
REMARK    7  A    between atoms: C_15  and  O_16
REMARK    8  A    between atoms: O_16  and  C_17
REMARK                            x       y       z     vdW  Elec       q    Type
REMARK                         _______ _______ _______ _____ _____    ______ ____
ROOT
ATOM      1  C   UNL     1       1.221   8.347  20.670  0.00  0.00    +0.000 A 
ATOM      2  C   UNL     1       1.964   8.322  19.508  0.00  0.00    +0.000 A 
ATOM      3  C   UNL     1       2.351   6.985  19.291  0.00  0.00    +0.000 A 
ATOM      4  C   UNL     1       3.043   6.339  18.268  0.00  0.00    +0.000 A 
ATOM      5  C   UNL     1       3.244   4.952  18.337  0.00  0.00    +0.000 A 
ATOM      6  C   UNL     1       2.760   4.219  19.439  0.00  0.00    +0.000 A 
ATOM      7  C   UNL     1       2.068   4.861  20.490  0.00  0.00    +0.000 A 
ATOM      8  C   UNL     1       1.871   6.248  20.363  0.00  0.00    +0.000 A 
ATOM      9  O   UNL     1       1.187   7.085  21.221  0.00  0.00    +0.000 OA
ENDROOT
BRANCH   1  13
ATOM     10  C   UNL     1      -1.188  11.475  22.343  0.00  0.00    +0.000 A 
ATOM     11  C   UNL     1      -0.649  11.600  21.072  0.00  0.00    +0.000 A 
ATOM     12  C   UNL     1       0.163  10.586  20.554  0.00  0.00    +0.000 A 
ATOM     13  C   UNL     1       0.460   9.430  21.299  0.00  0.00    +0.000 A 
ATOM     14  C   UNL     1      -0.041   9.347  22.600  0.00  0.00    +0.000 A 
ATOM     15  C   UNL     1      -0.862  10.362  23.119  0.00  0.00    +0.000 A 
BRANCH  10  17
ATOM     16  C   UNL     1      -3.092  12.151  23.568  0.00  0.00    +0.000 C 
ATOM     17  O   UNL     1      -1.995  12.512  22.735  0.00  0.00    +0.000 OA
ENDBRANCH  10  17
ENDBRANCH   1  13
BRANCH   6  18
ATOM     18  O   UNL     1       3.019   2.873  19.361  0.00  0.00    +0.000 OA
ATOM     19  C   UNL     1       1.944   1.962  19.211  0.00  0.00    +0.000 C 
ENDBRANCH   6  18
BRANCH   5  20
ATOM     20  C   UNL     1       3.979   4.311  17.177  0.00  0.00    +0.000 C 
BRANCH  20  21
ATOM     21  C   UNL     1       5.502   4.358  17.311  0.00  0.00    +0.000 C 
BRANCH  21  22
ATOM     22  O   UNL     1       5.952   3.734  18.512  0.00  0.00    +0.000 OA
ATOM     23  H   UNL     1       6.855   3.414  18.339  0.00  0.00    +0.000 HD
ENDBRANCH  21  22
ENDBRANCH  20  21
ENDBRANCH   5  20
TORSDOF 6
ENDMDL
MODEL 8
REMARK VINA RESULT:      -6.8      1.670      8.202
REMARK  Name = 
REMARK  8 active torsions:
REMARK  status: ('A' for Active; 'I' for Inactive)
REMARK    1  A    between atoms: C_1  and  O_2
REMARK    2  A    between atoms: O_2  and  C_3
REMARK    3  A    between atoms: C_6  and  C_7
REMARK    4  A    between atoms: C_11  and  C_12
REMARK    5  A    between atoms: C_12  and  C_13
REMARK    6  A    between atoms: C_13  and  O_14
REMARK    7  A    between atoms: C_15  and  O_16
REMARK    8  A    between atoms: O_16  and  C_17
REMARK                            x       y       z     vdW  Elec       q    Type
REMARK                         _______ _______ _______ _____ _____    ______ ____
ROOT
ATOM      1  C   UNL     1       2.524   7.459  18.234  0.00  0.00    +0.000 A 
ATOM      2  C   UNL     1       1.965   8.611  17.724  0.00  0.00    +0.000 A 
ATOM      3  C   UNL     1       1.421   9.326  18.808  0.00  0.00    +0.000 A 
ATOM      4  C   UNL     1       0.800  10.569  18.925  0.00  0.00    +0.000 A 
ATOM      5  C   UNL     1       0.390  11.021  20.189  0.00  0.00    +0.000 A 
ATOM      6  C   UNL     1       0.593  10.218  21.330  0.00  0.00    +0.000 A 
ATOM      7  C   UNL     1       1.209   8.952  21.226  0.00  0.00    +0.000 A 
ATOM      8  C   UNL     1       1.624   8.554  19.941  0.00  0.00    +0.000 A 
ATOM      9  O   UNL     1       2.290   7.397  19.591  0.00  0.00    +0.000 OA
ENDROOT
BRANCH   1  13
ATOM     10  C   UNL     1       5.090   4.490  16.505  0.00  0.00    +0.000 A 
ATOM     11  C   UNL     1       5.321   5.839  16.287  0.00  0.00    +0.000 A 
ATOM     12  C   UNL     1       4.455   6.794  16.830  0.00  0.00    +0.000 A 
ATOM     13  C   UNL     1       3.335   6.420  17.594  0.00  0.00    +0.000 A 
ATOM     14  C   UNL     1       3.082   5.055  17.754  0.00  0.00    +0.000 A 
ATOM     15  C   UNL     1       3.954   4.095  17.215  0.00  0.00    +0.000 A 
BRANCH  10  17
ATOM     16  C   UNL     1       6.366   3.918  14.601  0.00  0.00    +0.000 C 
ATOM     17  O   UNL     1       6.020   3.646  15.955  0.00  0.00    +0.000 OA
ENDBRANCH  10  17
ENDBRANCH   1  13
BRANCH   6  18
ATOM     18  O   UNL     1       0.152  10.797  22.494  0.00  0.00    +0.000 OA
ATOM     19  C   UNL     1      -0.911  10.197  23.214  0.00  0.00    +0.000 C 
ENDBRANCH   6  18
BRANCH   5  20
ATOM     20  C   UNL     1      -0.253  12.392  20.248  0.00  0.00    +0.000 C 
BRANCH  20  21
ATOM     21  C   UNL     1      -1.756  12.380  19.963  0.00  0.00    +0.000 C 
BRANCH  21  22
ATOM     22  O   UNL     1      -2.043  12.662  18.596  0.00  0.00    +0.000 OA
ATOM     23  H   UNL     1      -2.985  12.457  18.460  0.00  0.00    +0.000 HD
ENDBRANCH  21  22
ENDBRANCH  20  21
ENDBRANCH   5  20
TORSDOF 6
ENDMDL
MODEL 9
REMARK VINA RESULT:      -6.7      1.834      3.100
REMARK  Name = 
REMARK  8 active torsions:
REMARK  status: ('A' for Active; 'I' for Inactive)
REMARK    1  A    between atoms: C_1  and  O_2
REMARK    2  A    between atoms: O_2  and  C_3
REMARK    3  A    between atoms: C_6  and  C_7
REMARK    4  A    between atoms: C_11  and  C_12
REMARK    5  A    between atoms: C_12  and  C_13
REMARK    6  A    between atoms: C_13  and  O_14
REMARK    7  A    between atoms: C_15  and  O_16
REMARK    8  A    between atoms: O_16  and  C_17
REMARK                            x       y       z     vdW  Elec       q    Type
REMARK                         _______ _______ _______ _____ _____    ______ ____
ROOT
ATOM      1  C   UNL     1       1.131   8.277  20.454  0.00  0.00    +0.000 A 
ATOM      2  C   UNL     1       1.468   7.010  20.878  0.00  0.00    +0.000 A 
ATOM      3  C   UNL     1       2.363   6.477  19.931  0.00  0.00    +0.000 A 
ATOM      4  C   UNL     1       3.084   5.286  19.853  0.00  0.00    +0.000 A 
ATOM      5  C   UNL     1       3.940   5.066  18.762  0.00  0.00    +0.000 A 
ATOM      6  C   UNL     1       4.057   6.035  17.746  0.00  0.00    +0.000 A 
ATOM      7  C   UNL     1       3.325   7.241  17.805  0.00  0.00    +0.000 A 
ATOM      8  C   UNL     1       2.500   7.426  18.929  0.00  0.00    +0.000 A 
ATOM      9  O   UNL     1       1.733   8.530  19.240  0.00  0.00    +0.000 OA
ENDROOT
BRANCH   1  13
ATOM     10  C   UNL     1      -0.964  11.396  22.521  0.00  0.00    +0.000 A 
ATOM     11  C   UNL     1      -0.712  10.181  23.140  0.00  0.00    +0.000 A 
ATOM     12  C   UNL     1      -0.058   9.162  22.440  0.00  0.00    +0.000 A 
ATOM     13  C   UNL     1       0.350   9.332  21.105  0.00  0.00    +0.000 A 
ATOM     14  C   UNL     1       0.035  10.540  20.477  0.00  0.00    +0.000 A 
ATOM     15  C   UNL     1      -0.616  11.567  21.180  0.00  0.00    +0.000 A 
BRANCH  10  17
ATOM     16  C   UNL     1      -1.112  13.668  23.151  0.00  0.00    +0.000 C 
ATOM     17  O   UNL     1      -1.579  12.332  23.311  0.00  0.00    +0.000 OA
ENDBRANCH  10  17
ENDBRANCH   1  13
BRANCH   6  18
ATOM     18  O   UNL     1       4.939   5.685  16.753  0.00  0.00    +0.000 OA
ATOM     19  C   UNL     1       6.176   6.368  16.645  0.00  0.00    +0.000 C 
ENDBRANCH   6  18
BRANCH   5  20
ATOM     20  C   UNL     1       4.714   3.763  18.756  0.00  0.00    +0.000 C 
BRANCH  20  21
ATOM     21  C   UNL     1       4.171   2.719  19.734  0.00  0.00    +0.000 C 
BRANCH  21  22
ATOM     22  O   UNL     1       5.164   1.765  20.102  0.00  0.00    +0.000 OA
ATOM     23  H   UNL     1       5.317   1.205  19.320  0.00  0.00    +0.000 HD
ENDBRANCH  21  22
ENDBRANCH  20  21
ENDBRANCH   5  20
TORSDOF 6
ENDMDL
