MODEL 1
REMARK VINA RESULT:      -8.7      0.000      0.000
REMARK  Name = 
REMARK  6 active torsions:
REMARK  status: ('A' for Active; 'I' for Inactive)
REMARK    1  A    between atoms: C_1  and  N_2
REMARK    2  A    between atoms: N_2  and  C_3
REMARK    3  A    between atoms: C_3  and  C_4
REMARK    4  A    between atoms: C_7  and  C_8
REMARK    5  A    between atoms: C_15  and  C_17
REMARK    6  A    between atoms: C_19  and  C_20
REMARK                            x       y       z     vdW  Elec       q    Type
REMARK                         _______ _______ _______ _____ _____    ______ ____
ROOT
ATOM      1  C   UNL     1       7.055   6.018  18.724  0.00  0.00    +0.000 C 
ATOM      2  N   UNL     1       6.807   5.969  17.292  0.00  0.00    +0.000 N 
ATOM      3  C   UNL     1       7.431   4.936  16.568  0.00  0.00    +0.000 C 
ATOM      4  O   UNL     1       8.169   4.143  17.160  0.00  0.00    +0.000 OA
ENDROOT
BRANCH   3   5
ATOM      5  C   UNL     1       7.257   4.841  15.134  0.00  0.00    +0.000 A 
ATOM      6  C   UNL     1       6.395   4.073  14.377  0.00  0.00    +0.000 A 
ATOM      7  C   UNL     1       6.764   4.349  13.047  0.00  0.00    +0.000 A 
ATOM      8  N   UNL     1       7.717   5.278  12.979  0.00  0.00    +0.000 NA
ATOM      9  O   UNL     1       7.992   5.612  14.287  0.00  0.00    +0.000 OA
BRANCH   7  10
ATOM     10  C   UNL     1       6.180   3.659  11.830  0.00  0.00    +0.000 C 
ATOM     11  C   UNL     1       5.601   2.268  11.998  0.00  0.00    +0.000 C 
ATOM     12  C   UNL     1       4.681   3.421  11.791  0.00  0.00    +0.000 C 
ENDBRANCH   7  10
ENDBRANCH   3   5
BRANCH   2  13
ATOM     13  C   UNL     1       5.914   6.989  16.730  0.00  0.00    +0.000 C 
BRANCH  13  14
ATOM     14  C   UNL     1       4.536   6.889  17.317  0.00  0.00    +0.000 A 
ATOM     15  C   UNL     1       3.665   7.923  17.601  0.00  0.00    +0.000 A 
ATOM     16  S   UNL     1       2.252   7.326  18.350  0.00  0.00    +0.000 S 
ATOM     17  C   UNL     1       2.867   5.718  18.234  0.00  0.00    +0.000 A 
ATOM     18  N   UNL     1       4.050   5.630  17.657  0.00  0.00    +0.000 NA
BRANCH  17  19
ATOM     19  C   UNL     1       2.119   4.577  18.792  0.00  0.00    +0.000 A 
ATOM     20  C   UNL     1       1.798   3.441  18.028  0.00  0.00    +0.000 A 
ATOM     21  C   UNL     1       1.075   2.381  18.583  0.00  0.00    +0.000 A 
ATOM     22  C   UNL     1       0.664   2.437  19.912  0.00  0.00    +0.000 A 
ATOM     23  C   UNL     1       0.980   3.551  20.688  0.00  0.00    +0.000 A 
ATOM     24  C   UNL     1       1.705   4.611  20.133  0.00  0.00    +0.000 A 
ENDBRANCH  17  19
ENDBRANCH  13  14
ENDBRANCH   2  13
TORSDOF 5
ENDMDL
MODEL 2
REMARK VINA RESULT:      -8.4      0.709      1.267
REMARK  Name = 
REMARK  6 active torsions:
REMARK  status: ('A' for Active; 'I' for Inactive)
REMARK    1  A    between atoms: C_1  and  N_2
REMARK    2  A    between atoms: N_2  and  C_3
REMARK    3  A    between atoms: C_3  and  C_4
REMARK    4  A    between atoms: C_7  and  C_8
REMARK    5  A    between atoms: C_15  and  C_17
REMARK    6  A    between atoms: C_19  and  C_20
REMARK                            x       y       z     vdW  Elec       q    Type
REMARK                         _______ _______ _______ _____ _____    ______ ____
ROOT
ATOM      1  C   UNL     1       7.521   6.200  18.967  0.00  0.00    +0.000 C 
ATOM      2  N   UNL     1       7.024   6.026  17.611  0.00  0.00    +0.000 N 
ATOM      3  C   UNL     1       7.401   4.849  16.937  0.00  0.00    +0.000 C 
ATOM      4  O   UNL     1       8.141   4.039  17.502  0.00  0.00    +0.000 OA
ENDROOT
BRANCH   3   5
ATOM      5  C   UNL     1       6.971   4.619  15.573  0.00  0.00    +0.000 A 
ATOM      6  C   UNL     1       5.925   3.871  15.069  0.00  0.00    +0.000 A 
ATOM      7  C   UNL     1       6.080   3.960  13.673  0.00  0.00    +0.000 A 
ATOM      8  N   UNL     1       7.085   4.768  13.335  0.00  0.00    +0.000 NA
ATOM      9  O   UNL     1       7.612   5.209  14.529  0.00  0.00    +0.000 OA
BRANCH   7  10
ATOM     10  C   UNL     1       5.233   3.211  12.662  0.00  0.00    +0.000 C 
ATOM     11  C   UNL     1       5.453   3.491  11.188  0.00  0.00    +0.000 C 
ATOM     12  C   UNL     1       5.919   2.198  11.763  0.00  0.00    +0.000 C 
ENDBRANCH   7  10
ENDBRANCH   3   5
BRANCH   2  13
ATOM     13  C   UNL     1       6.160   7.082  17.070  0.00  0.00    +0.000 C 
BRANCH  13  14
ATOM     14  C   UNL     1       4.744   6.922  17.544  0.00  0.00    +0.000 A 
ATOM     15  C   UNL     1       3.722   7.848  17.468  0.00  0.00    +0.000 A 
ATOM     16  S   UNL     1       2.315   7.248  18.226  0.00  0.00    +0.000 S 
ATOM     17  C   UNL     1       3.137   5.777  18.595  0.00  0.00    +0.000 A 
ATOM     18  N   UNL     1       4.384   5.730  18.164  0.00  0.00    +0.000 NA
BRANCH  17  19
ATOM     19  C   UNL     1       2.477   4.712  19.371  0.00  0.00    +0.000 A 
ATOM     20  C   UNL     1       2.629   4.590  20.764  0.00  0.00    +0.000 A 
ATOM     21  C   UNL     1       2.000   3.560  21.469  0.00  0.00    +0.000 A 
ATOM     22  C   UNL     1       1.204   2.638  20.796  0.00  0.00    +0.000 A 
ATOM     23  C   UNL     1       1.034   2.747  19.417  0.00  0.00    +0.000 A 
ATOM     24  C   UNL     1       1.663   3.779  18.711  0.00  0.00    +0.000 A 
ENDBRANCH  17  19
ENDBRANCH  13  14
ENDBRANCH   2  13
TORSDOF 5
ENDMDL
MODEL 3
REMARK VINA RESULT:      -8.0      3.064      7.567
REMARK  Name = 
REMARK  6 active torsions:
REMARK  status: ('A' for Active; 'I' for Inactive)
REMARK    1  A    between atoms: C_1  and  N_2
REMARK    2  A    between atoms: N_2  and  C_3
REMARK    3  A    between atoms: C_3  and  C_4
REMARK    4  A    between atoms: C_7  and  C_8
REMARK    5  A    between atoms: C_15  and  C_17
REMARK    6  A    between atoms: C_19  and  C_20
REMARK                            x       y       z     vdW  Elec       q    Type
REMARK                         _______ _______ _______ _____ _____    ______ ____
ROOT
ATOM      1  C   UNL     1       3.262   1.906  17.971  0.00  0.00    +0.000 C 
ATOM      2  N   UNL     1       3.306   3.236  18.556  0.00  0.00    +0.000 N 
ATOM      3  C   UNL     1       2.134   4.012  18.474  0.00  0.00    +0.000 C 
ATOM      4  O   UNL     1       1.143   3.551  17.900  0.00  0.00    +0.000 OA
ENDROOT
BRANCH   3   5
ATOM      5  C   UNL     1       2.110   5.359  19.005  0.00  0.00    +0.000 A 
ATOM      6  C   UNL     1       1.824   5.825  20.273  0.00  0.00    +0.000 A 
ATOM      7  C   UNL     1       1.875   7.225  20.145  0.00  0.00    +0.000 A 
ATOM      8  N   UNL     1       2.248   7.599  18.920  0.00  0.00    +0.000 NA
ATOM      9  O   UNL     1       2.434   6.425  18.224  0.00  0.00    +0.000 OA
BRANCH   7  10
ATOM     10  C   UNL     1       1.522   8.206  21.246  0.00  0.00    +0.000 C 
ATOM     11  C   UNL     1       0.953   9.556  20.855  0.00  0.00    +0.000 C 
ATOM     12  C   UNL     1       0.057   8.537  21.469  0.00  0.00    +0.000 C 
ENDBRANCH   7  10
ENDBRANCH   3   5
BRANCH   2  13
ATOM     13  C   UNL     1       4.561   3.649  19.195  0.00  0.00    +0.000 C 
BRANCH  13  14
ATOM     14  C   UNL     1       5.432   4.413  18.240  0.00  0.00    +0.000 A 
ATOM     15  C   UNL     1       6.110   5.593  18.480  0.00  0.00    +0.000 A 
ATOM     16  S   UNL     1       6.891   6.133  17.061  0.00  0.00    +0.000 S 
ATOM     17  C   UNL     1       6.301   4.753  16.209  0.00  0.00    +0.000 A 
ATOM     18  N   UNL     1       5.578   3.930  16.944  0.00  0.00    +0.000 NA
BRANCH  17  19
ATOM     19  C   UNL     1       6.569   4.578  14.770  0.00  0.00    +0.000 A 
ATOM     20  C   UNL     1       7.530   5.342  14.085  0.00  0.00    +0.000 A 
ATOM     21  C   UNL     1       7.751   5.161  12.716  0.00  0.00    +0.000 A 
ATOM     22  C   UNL     1       7.019   4.211  12.010  0.00  0.00    +0.000 A 
ATOM     23  C   UNL     1       6.067   3.438  12.674  0.00  0.00    +0.000 A 
ATOM     24  C   UNL     1       5.847   3.618  14.044  0.00  0.00    +0.000 A 
ENDBRANCH  17  19
ENDBRANCH  13  14
ENDBRANCH   2  13
TORSDOF 5
ENDMDL
MODEL 4
REMARK VINA RESULT:      -8.0      1.210      1.547
REMARK  Name = 
REMARK  6 active torsions:
REMARK  status: ('A' for Active; 'I' for Inactive)
REMARK    1  A    between atoms: C_1  and  N_2
REMARK    2  A    between atoms: N_2  and  C_3
REMARK    3  A    between atoms: C_3  and  C_4
REMARK    4  A    between atoms: C_7  and  C_8
REMARK    5  A    between atoms: C_15  and  C_17
REMARK    6  A    between atoms: C_19  and  C_20
REMARK                            x       y       z     vdW  Elec       q    Type
REMARK                         _______ _______ _______ _____ _____    ______ ____
ROOT
ATOM      1  C   UNL     1       7.596   6.666  18.591  0.00  0.00    +0.000 C 
ATOM      2  N   UNL     1       6.960   6.150  17.390  0.00  0.00    +0.000 N 
ATOM      3  C   UNL     1       7.326   4.854  16.978  0.00  0.00    +0.000 C 
ATOM      4  O   UNL     1       8.172   4.230  17.625  0.00  0.00    +0.000 OA
ENDROOT
BRANCH   3   5
ATOM      5  C   UNL     1       6.759   4.284  15.773  0.00  0.00    +0.000 A 
ATOM      6  C   UNL     1       7.104   4.447  14.446  0.00  0.00    +0.000 A 
ATOM      7  C   UNL     1       6.130   3.714  13.744  0.00  0.00    +0.000 A 
ATOM      8  N   UNL     1       5.299   3.076  14.568  0.00  0.00    +0.000 NA
ATOM      9  O   UNL     1       5.723   3.404  15.836  0.00  0.00    +0.000 OA
BRANCH   7  10
ATOM     10  C   UNL     1       6.008   3.669  12.233  0.00  0.00    +0.000 C 
ATOM     11  C   UNL     1       5.668   2.346  11.576  0.00  0.00    +0.000 C 
ATOM     12  C   UNL     1       4.636   3.418  11.632  0.00  0.00    +0.000 C 
ENDBRANCH   7  10
ENDBRANCH   3   5
BRANCH   2  13
ATOM     13  C   UNL     1       5.980   7.015  16.722  0.00  0.00    +0.000 C 
BRANCH  13  14
ATOM     14  C   UNL     1       4.637   6.931  17.388  0.00  0.00    +0.000 A 
ATOM     15  C   UNL     1       3.698   7.936  17.517  0.00  0.00    +0.000 A 
ATOM     16  S   UNL     1       2.366   7.394  18.437  0.00  0.00    +0.000 S 
ATOM     17  C   UNL     1       3.103   5.842  18.596  0.00  0.00    +0.000 A 
ATOM     18  N   UNL     1       4.268   5.730  17.985  0.00  0.00    +0.000 NA
BRANCH  17  19
ATOM     19  C   UNL     1       2.471   4.779  19.398  0.00  0.00    +0.000 A 
ATOM     20  C   UNL     1       2.742   4.606  20.767  0.00  0.00    +0.000 A 
ATOM     21  C   UNL     1       2.135   3.579  21.496  0.00  0.00    +0.000 A 
ATOM     22  C   UNL     1       1.244   2.712  20.872  0.00  0.00    +0.000 A 
ATOM     23  C   UNL     1       0.956   2.873  19.517  0.00  0.00    +0.000 A 
ATOM     24  C   UNL     1       1.562   3.901  18.788  0.00  0.00    +0.000 A 
ENDBRANCH  17  19
ENDBRANCH  13  14
ENDBRANCH   2  13
TORSDOF 5
ENDMDL
MODEL 5
REMARK VINA RESULT:      -7.9      2.185      3.423
REMARK  Name = 
REMARK  6 active torsions:
REMARK  status: ('A' for Active; 'I' for Inactive)
REMARK    1  A    between atoms: C_1  and  N_2
REMARK    2  A    between atoms: N_2  and  C_3
REMARK    3  A    between atoms: C_3  and  C_4
REMARK    4  A    between atoms: C_7  and  C_8
REMARK    5  A    between atoms: C_15  and  C_17
REMARK    6  A    between atoms: C_19  and  C_20
REMARK                            x       y       z     vdW  Elec       q    Type
REMARK                         _______ _______ _______ _____ _____    ______ ____
ROOT
ATOM      1  C   UNL     1       5.962   4.445  19.185  0.00  0.00    +0.000 C 
ATOM      2  N   UNL     1       5.802   4.508  17.741  0.00  0.00    +0.000 N 
ATOM      3  C   UNL     1       6.973   4.444  16.962  0.00  0.00    +0.000 C 
ATOM      4  O   UNL     1       8.069   4.362  17.524  0.00  0.00    +0.000 OA
ENDROOT
BRANCH   3   5
ATOM      5  C   UNL     1       6.896   4.532  15.519  0.00  0.00    +0.000 A 
ATOM      6  C   UNL     1       6.281   3.711  14.594  0.00  0.00    +0.000 A 
ATOM      7  C   UNL     1       6.637   4.264  13.351  0.00  0.00    +0.000 A 
ATOM      8  N   UNL     1       7.343   5.387  13.490  0.00  0.00    +0.000 NA
ATOM      9  O   UNL     1       7.465   5.571  14.850  0.00  0.00    +0.000 OA
BRANCH   7  10
ATOM     10  C   UNL     1       6.295   3.653  12.006  0.00  0.00    +0.000 C 
ATOM     11  C   UNL     1       5.671   2.272  11.979  0.00  0.00    +0.000 C 
ATOM     12  C   UNL     1       4.829   3.458  11.659  0.00  0.00    +0.000 C 
ENDBRANCH   7  10
ENDBRANCH   3   5
BRANCH   2  13
ATOM     13  C   UNL     1       4.434   4.615  17.220  0.00  0.00    +0.000 C 
BRANCH  13  14
ATOM     14  C   UNL     1       3.492   5.133  18.269  0.00  0.00    +0.000 A 
ATOM     15  C   UNL     1       2.794   4.398  19.208  0.00  0.00    +0.000 A 
ATOM     16  S   UNL     1       1.773   5.415  20.124  0.00  0.00    +0.000 S 
ATOM     17  C   UNL     1       2.333   6.783  19.233  0.00  0.00    +0.000 A 
ATOM     18  N   UNL     1       3.240   6.500  18.317  0.00  0.00    +0.000 NA
BRANCH  17  19
ATOM     19  C   UNL     1       1.779   8.127  19.478  0.00  0.00    +0.000 A 
ATOM     20  C   UNL     1       1.696   9.103  18.469  0.00  0.00    +0.000 A 
ATOM     21  C   UNL     1       1.178  10.373  18.737  0.00  0.00    +0.000 A 
ATOM     22  C   UNL     1       0.729  10.688  20.016  0.00  0.00    +0.000 A 
ATOM     23  C   UNL     1       0.795   9.731  21.028  0.00  0.00    +0.000 A 
ATOM     24  C   UNL     1       1.312   8.459  20.759  0.00  0.00    +0.000 A 
ENDBRANCH  17  19
ENDBRANCH  13  14
ENDBRANCH   2  13
TORSDOF 5
ENDMDL
MODEL 6
REMARK VINA RESULT:      -7.6      3.717      5.892
REMARK  Name = 
REMARK  6 active torsions:
REMARK  status: ('A' for Active; 'I' for Inactive)
REMARK    1  A    between atoms: C_1  and  N_2
REMARK    2  A    between atoms: N_2  and  C_3
REMARK    3  A    between atoms: C_3  and  C_4
REMARK    4  A    between atoms: C_7  and  C_8
REMARK    5  A    between atoms: C_15  and  C_17
REMARK    6  A    between atoms: C_19  and  C_20
REMARK                            x       y       z     vdW  Elec       q    Type
REMARK                         _______ _______ _______ _____ _____    ______ ____
ROOT
ATOM      1  C   UNL     1       1.971   4.001  18.261  0.00  0.00    +0.000 C 
ATOM      2  N   UNL     1       3.192   4.751  18.513  0.00  0.00    +0.000 N 
ATOM      3  C   UNL     1       4.241   4.598  17.587  0.00  0.00    +0.000 C 
ATOM      4  O   UNL     1       4.097   3.831  16.631  0.00  0.00    +0.000 OA
ENDROOT
BRANCH   3   5
ATOM      5  C   UNL     1       5.499   5.288  17.788  0.00  0.00    +0.000 A 
ATOM      6  C   UNL     1       5.902   6.557  17.423  0.00  0.00    +0.000 A 
ATOM      7  C   UNL     1       7.253   6.614  17.809  0.00  0.00    +0.000 A 
ATOM      8  N   UNL     1       7.636   5.505  18.443  0.00  0.00    +0.000 NA
ATOM      9  O   UNL     1       6.521   4.696  18.463  0.00  0.00    +0.000 OA
BRANCH   7  10
ATOM     10  C   UNL     1       8.184   7.776  17.521  0.00  0.00    +0.000 C 
ATOM     11  C   UNL     1       7.627   9.184  17.606  0.00  0.00    +0.000 C 
ATOM     12  C   UNL     1       8.553   8.700  18.668  0.00  0.00    +0.000 C 
ENDBRANCH   7  10
ENDBRANCH   3   5
BRANCH   2  13
ATOM     13  C   UNL     1       3.217   5.615  19.700  0.00  0.00    +0.000 C 
BRANCH  13  14
ATOM     14  C   UNL     1       2.490   6.904  19.449  0.00  0.00    +0.000 A 
ATOM     15  C   UNL     1       2.501   7.666  18.296  0.00  0.00    +0.000 A 
ATOM     16  S   UNL     1       1.600   9.099  18.518  0.00  0.00    +0.000 S 
ATOM     17  C   UNL     1       1.225   8.616  20.132  0.00  0.00    +0.000 A 
ATOM     18  N   UNL     1       1.729   7.448  20.480  0.00  0.00    +0.000 NA
BRANCH  17  19
ATOM     19  C   UNL     1       0.445   9.492  21.024  0.00  0.00    +0.000 A 
ATOM     20  C   UNL     1       0.220   9.181  22.377  0.00  0.00    +0.000 A 
ATOM     21  C   UNL     1      -0.537  10.027  23.194  0.00  0.00    +0.000 A 
ATOM     22  C   UNL     1      -1.077  11.199  22.675  0.00  0.00    +0.000 A 
ATOM     23  C   UNL     1      -0.857  11.529  21.338  0.00  0.00    +0.000 A 
ATOM     24  C   UNL     1      -0.100  10.684  20.521  0.00  0.00    +0.000 A 
ENDBRANCH  17  19
ENDBRANCH  13  14
ENDBRANCH   2  13
TORSDOF 5
ENDMDL
MODEL 7
REMARK VINA RESULT:      -7.6      0.842      1.115
REMARK  Name = 
REMARK  6 active torsions:
REMARK  status: ('A' for Active; 'I' for Inactive)
REMARK    1  A    between atoms: C_1  and  N_2
REMARK    2  A    between atoms: N_2  and  C_3
REMARK    3  A    between atoms: C_3  and  C_4
REMARK    4  A    between atoms: C_7  and  C_8
REMARK    5  A    between atoms: C_15  and  C_17
REMARK    6  A    between atoms: C_19  and  C_20
REMARK                            x       y       z     vdW  Elec       q    Type
REMARK                         _______ _______ _______ _____ _____    ______ ____
ROOT
ATOM      1  C   UNL     1       7.051   5.991  18.503  0.00  0.00    +0.000 C 
ATOM      2  N   UNL     1       6.703   5.825  17.101  0.00  0.00    +0.000 N 
ATOM      3  C   UNL     1       7.382   4.820  16.386  0.00  0.00    +0.000 C 
ATOM      4  O   UNL     1       8.244   4.148  16.960  0.00  0.00    +0.000 OA
ENDROOT
BRANCH   3   5
ATOM      5  C   UNL     1       7.112   4.615  14.978  0.00  0.00    +0.000 A 
ATOM      6  C   UNL     1       6.230   3.766  14.341  0.00  0.00    +0.000 A 
ATOM      7  C   UNL     1       6.495   3.957  12.972  0.00  0.00    +0.000 A 
ATOM      8  N   UNL     1       7.405   4.910  12.771  0.00  0.00    +0.000 NA
ATOM      9  O   UNL     1       7.757   5.347  14.029  0.00  0.00    +0.000 OA
BRANCH   7  10
ATOM     10  C   UNL     1       5.854   3.163  11.851  0.00  0.00    +0.000 C 
ATOM     11  C   UNL     1       6.758   2.405  10.897  0.00  0.00    +0.000 C 
ATOM     12  C   UNL     1       5.954   1.648  11.897  0.00  0.00    +0.000 C 
ENDBRANCH   7  10
ENDBRANCH   3   5
BRANCH   2  13
ATOM     13  C   UNL     1       5.663   6.707  16.557  0.00  0.00    +0.000 C 
BRANCH  13  14
ATOM     14  C   UNL     1       4.411   6.644  17.382  0.00  0.00    +0.000 A 
ATOM     15  C   UNL     1       3.513   7.666  17.628  0.00  0.00    +0.000 A 
ATOM     16  S   UNL     1       2.294   7.144  18.703  0.00  0.00    +0.000 S 
ATOM     17  C   UNL     1       3.015   5.577  18.765  0.00  0.00    +0.000 A 
ATOM     18  N   UNL     1       4.094   5.447  18.016  0.00  0.00    +0.000 NA
BRANCH  17  19
ATOM     19  C   UNL     1       2.465   4.522  19.634  0.00  0.00    +0.000 A 
ATOM     20  C   UNL     1       1.090   4.229  19.686  0.00  0.00    +0.000 A 
ATOM     21  C   UNL     1       0.598   3.231  20.532  0.00  0.00    +0.000 A 
ATOM     22  C   UNL     1       1.471   2.506  21.337  0.00  0.00    +0.000 A 
ATOM     23  C   UNL     1       2.838   2.775  21.294  0.00  0.00    +0.000 A 
ATOM     24  C   UNL     1       3.331   3.773  20.446  0.00  0.00    +0.000 A 
ENDBRANCH  17  19
ENDBRANCH  13  14
ENDBRANCH   2  13
TORSDOF 5
ENDMDL
MODEL 8
REMARK VINA RESULT:      -7.6      3.779      5.818
REMARK  Name = 
REMARK  6 active torsions:
REMARK  status: ('A' for Active; 'I' for Inactive)
REMARK    1  A    between atoms: C_1  and  N_2
REMARK    2  A    between atoms: N_2  and  C_3
REMARK    3  A    between atoms: C_3  and  C_4
REMARK    4  A    between atoms: C_7  and  C_8
REMARK    5  A    between atoms: C_15  and  C_17
REMARK    6  A    between atoms: C_19  and  C_20
REMARK                            x       y       z     vdW  Elec       q    Type
REMARK                         _______ _______ _______ _____ _____    ______ ____
ROOT
ATOM      1  C   UNL     1       0.937   3.239  19.709  0.00  0.00    +0.000 C 
ATOM      2  N   UNL     1       2.213   3.835  19.345  0.00  0.00    +0.000 N 
ATOM      3  C   UNL     1       2.801   3.405  18.140  0.00  0.00    +0.000 C 
ATOM      4  O   UNL     1       2.235   2.539  17.466  0.00  0.00    +0.000 OA
ENDROOT
BRANCH   3   5
ATOM      5  C   UNL     1       4.086   3.930  17.726  0.00  0.00    +0.000 A 
ATOM      6  C   UNL     1       5.275   4.055  18.416  0.00  0.00    +0.000 A 
ATOM      7  C   UNL     1       6.127   4.719  17.514  0.00  0.00    +0.000 A 
ATOM      8  N   UNL     1       5.545   4.913  16.331  0.00  0.00    +0.000 NA
ATOM      9  O   UNL     1       4.282   4.379  16.457  0.00  0.00    +0.000 OA
BRANCH   7  10
ATOM     10  C   UNL     1       7.530   5.192  17.843  0.00  0.00    +0.000 C 
ATOM     11  C   UNL     1       7.777   6.683  17.972  0.00  0.00    +0.000 C 
ATOM     12  C   UNL     1       7.771   5.837  19.197  0.00  0.00    +0.000 C 
ENDBRANCH   7  10
ENDBRANCH   3   5
BRANCH   2  13
ATOM     13  C   UNL     1       2.767   4.845  20.254  0.00  0.00    +0.000 C 
BRANCH  13  14
ATOM     14  C   UNL     1       2.313   6.225  19.876  0.00  0.00    +0.000 A 
ATOM     15  C   UNL     1       2.628   6.930  18.731  0.00  0.00    +0.000 A 
ATOM     16  S   UNL     1       1.955   8.498  18.790  0.00  0.00    +0.000 S 
ATOM     17  C   UNL     1       1.260   8.144  20.329  0.00  0.00    +0.000 A 
ATOM     18  N   UNL     1       1.503   6.923  20.767  0.00  0.00    +0.000 NA
BRANCH  17  19
ATOM     19  C   UNL     1       0.508   9.169  21.076  0.00  0.00    +0.000 A 
ATOM     20  C   UNL     1       0.023  10.340  20.468  0.00  0.00    +0.000 A 
ATOM     21  C   UNL     1      -0.675  11.300  21.207  0.00  0.00    +0.000 A 
ATOM     22  C   UNL     1      -0.904  11.103  22.565  0.00  0.00    +0.000 A 
ATOM     23  C   UNL     1      -0.439   9.944  23.185  0.00  0.00    +0.000 A 
ATOM     24  C   UNL     1       0.259   8.983  22.445  0.00  0.00    +0.000 A 
ENDBRANCH  17  19
ENDBRANCH  13  14
ENDBRANCH   2  13
TORSDOF 5
ENDMDL
MODEL 9
REMARK VINA RESULT:      -7.6      2.134      3.432
REMARK  Name = 
REMARK  6 active torsions:
REMARK  status: ('A' for Active; 'I' for Inactive)
REMARK    1  A    between atoms: C_1  and  N_2
REMARK    2  A    between atoms: N_2  and  C_3
REMARK    3  A    between atoms: C_3  and  C_4
REMARK    4  A    between atoms: C_7  and  C_8
REMARK    5  A    between atoms: C_15  and  C_17
REMARK    6  A    between atoms: C_19  and  C_20
REMARK                            x       y       z     vdW  Elec       q    Type
REMARK                         _______ _______ _______ _____ _____    ______ ____
ROOT
ATOM      1  C   UNL     1       7.424   6.036  19.106  0.00  0.00    +0.000 C 
ATOM      2  N   UNL     1       6.822   5.282  18.018  0.00  0.00    +0.000 N 
ATOM      3  C   UNL     1       7.102   5.713  16.707  0.00  0.00    +0.000 C 
ATOM      4  O   UNL     1       7.813   6.708  16.536  0.00  0.00    +0.000 OA
ENDROOT
BRANCH   3   5
ATOM      5  C   UNL     1       6.513   5.032  15.573  0.00  0.00    +0.000 A 
ATOM      6  C   UNL     1       7.065   4.633  14.372  0.00  0.00    +0.000 A 
ATOM      7  C   UNL     1       5.977   4.111  13.648  0.00  0.00    +0.000 A 
ATOM      8  N   UNL     1       4.857   4.105  14.371  0.00  0.00    +0.000 NA
ATOM      9  O   UNL     1       5.209   4.645  15.589  0.00  0.00    +0.000 OA
BRANCH   7  10
ATOM     10  C   UNL     1       6.046   3.638  12.209  0.00  0.00    +0.000 C 
ATOM     11  C   UNL     1       5.687   2.196  11.907  0.00  0.00    +0.000 C 
ATOM     12  C   UNL     1       4.747   3.281  11.509  0.00  0.00    +0.000 C 
ENDBRANCH   7  10
ENDBRANCH   3   5
BRANCH   2  13
ATOM     13  C   UNL     1       5.990   4.128  18.379  0.00  0.00    +0.000 C 
BRANCH  13  14
ATOM     14  C   UNL     1       4.668   4.566  18.941  0.00  0.00    +0.000 A 
ATOM     15  C   UNL     1       3.719   3.781  19.567  0.00  0.00    +0.000 A 
ATOM     16  S   UNL     1       2.335   4.706  19.949  0.00  0.00    +0.000 S 
ATOM     17  C   UNL     1       3.085   6.108  19.279  0.00  0.00    +0.000 A 
ATOM     18  N   UNL     1       4.302   5.902  18.812  0.00  0.00    +0.000 NA
BRANCH  17  19
ATOM     19  C   UNL     1       2.368   7.394  19.212  0.00  0.00    +0.000 A 
ATOM     20  C   UNL     1       1.666   7.923  20.310  0.00  0.00    +0.000 A 
ATOM     21  C   UNL     1       0.983   9.139  20.210  0.00  0.00    +0.000 A 
ATOM     22  C   UNL     1       0.994   9.849  19.014  0.00  0.00    +0.000 A 
ATOM     23  C   UNL     1       1.692   9.346  17.917  0.00  0.00    +0.000 A 
ATOM     24  C   UNL     1       2.376   8.129  18.017  0.00  0.00    +0.000 A 
ENDBRANCH  17  19
ENDBRANCH  13  14
ENDBRANCH   2  13
TORSDOF 5
ENDMDL
