MODEL 1
REMARK VINA RESULT:      -7.8      0.000      0.000
REMARK  Name = 
REMARK  2 active torsions:
REMARK  status: ('A' for Active; 'I' for Inactive)
REMARK    1  A    between atoms: C_1  and  C_2
REMARK    2  A    between atoms: C_2  and  N_3
REMARK                            x       y       z     vdW  Elec       q    Type
REMARK                         _______ _______ _______ _____ _____    ______ ____
ROOT
ATOM      1  N   UNL     1       5.305   4.380  18.332  0.00  0.00    +0.000 N 
ATOM      2  C   UNL     1       4.096   4.938  18.696  0.00  0.00    +0.000 C 
ATOM      3  O   UNL     1       3.908   6.150  18.678  0.00  0.00    +0.000 OA
ATOM      4  N   UNL     1       3.111   4.028  19.039  0.00  0.00    +0.000 N 
ATOM      5  C   UNL     1       1.754   4.529  19.255  0.00  0.00    +0.000 C 
ATOM      6  C   UNL     1       1.383   4.469  20.734  0.00  0.00    +0.000 C 
ATOM      7  C   UNL     1       1.566   3.052  21.277  0.00  0.00    +0.000 C 
ATOM      8  C   UNL     1       2.978   2.537  20.994  0.00  0.00    +0.000 C 
ATOM      9  C   UNL     1       3.337   2.660  19.512  0.00  0.00    +0.000 C 
ATOM     10  H   UNL     1       5.176   3.476  17.902  0.00  0.00    +0.000 HD
ENDROOT
BRANCH   1  12
ATOM     11  C   UNL     1       7.237   5.820  18.902  0.00  0.00    +0.000 C 
ATOM     12  C   UNL     1       6.402   5.201  17.762  0.00  0.00    +0.000 C 
ATOM     13  C   UNL     1       5.791   6.363  16.938  0.00  0.00    +0.000 C 
ATOM     14  C   UNL     1       5.462   5.833  15.555  0.00  0.00    +0.000 C 
ATOM     15  S   UNL     1       6.842   4.804  15.141  0.00  0.00    +0.000 S 
ATOM     16  O   UNL     1       7.877   5.645  14.571  0.00  0.00    +0.000 OA
ATOM     17  O   UNL     1       6.348   3.626  14.461  0.00  0.00    +0.000 OA
ATOM     18  C   UNL     1       7.315   4.387  16.812  0.00  0.00    +0.000 C 
ENDBRANCH   1  12
TORSDOF 1
ENDMDL
MODEL 2
REMARK VINA RESULT:      -7.5      2.959      6.026
REMARK  Name = 
REMARK  2 active torsions:
REMARK  status: ('A' for Active; 'I' for Inactive)
REMARK    1  A    between atoms: C_1  and  C_2
REMARK    2  A    between atoms: C_2  and  N_3
REMARK                            x       y       z     vdW  Elec       q    Type
REMARK                         _______ _______ _______ _____ _____    ______ ____
ROOT
ATOM      1  N   UNL     1       4.132   3.710  17.971  0.00  0.00    +0.000 N 
ATOM      2  C   UNL     1       5.375   4.029  18.480  0.00  0.00    +0.000 C 
ATOM      3  O   UNL     1       5.757   3.614  19.570  0.00  0.00    +0.000 OA
ATOM      4  N   UNL     1       6.162   4.811  17.654  0.00  0.00    +0.000 N 
ATOM      5  C   UNL     1       7.556   5.035  18.038  0.00  0.00    +0.000 C 
ATOM      6  C   UNL     1       7.769   6.479  18.486  0.00  0.00    +0.000 C 
ATOM      7  C   UNL     1       7.309   7.452  17.401  0.00  0.00    +0.000 C 
ATOM      8  C   UNL     1       5.866   7.162  16.985  0.00  0.00    +0.000 C 
ATOM      9  C   UNL     1       5.675   5.696  16.592  0.00  0.00    +0.000 C 
ATOM     10  H   UNL     1       4.154   3.649  16.964  0.00  0.00    +0.000 HD
ENDROOT
BRANCH   1  12
ATOM     11  C   UNL     1       3.602   1.301  18.192  0.00  0.00    +0.000 C 
ATOM     12  C   UNL     1       3.242   2.732  18.644  0.00  0.00    +0.000 C 
ATOM     13  C   UNL     1       1.776   3.005  18.223  0.00  0.00    +0.000 C 
ATOM     14  C   UNL     1       1.235   4.113  19.106  0.00  0.00    +0.000 C 
ATOM     15  S   UNL     1       1.858   3.731  20.718  0.00  0.00    +0.000 S 
ATOM     16  O   UNL     1       0.947   2.791  21.343  0.00  0.00    +0.000 OA
ATOM     17  O   UNL     1       2.249   4.967  21.364  0.00  0.00    +0.000 OA
ATOM     18  C   UNL     1       3.310   2.838  20.187  0.00  0.00    +0.000 C 
ENDBRANCH   1  12
TORSDOF 1
ENDMDL
MODEL 3
REMARK VINA RESULT:      -7.5      1.551      1.932
REMARK  Name = 
REMARK  2 active torsions:
REMARK  status: ('A' for Active; 'I' for Inactive)
REMARK    1  A    between atoms: C_1  and  C_2
REMARK    2  A    between atoms: C_2  and  N_3
REMARK                            x       y       z     vdW  Elec       q    Type
REMARK                         _______ _______ _______ _____ _____    ______ ____
ROOT
ATOM      1  N   UNL     1       4.313   4.668  18.352  0.00  0.00    +0.000 N 
ATOM      2  C   UNL     1       3.025   4.175  18.306  0.00  0.00    +0.000 C 
ATOM      3  O   UNL     1       2.206   4.572  17.484  0.00  0.00    +0.000 OA
ATOM      4  N   UNL     1       2.747   3.178  19.225  0.00  0.00    +0.000 N 
ATOM      5  C   UNL     1       1.469   2.476  19.117  0.00  0.00    +0.000 C 
ATOM      6  C   UNL     1       0.539   2.863  20.265  0.00  0.00    +0.000 C 
ATOM      7  C   UNL     1       1.218   2.616  21.612  0.00  0.00    +0.000 C 
ATOM      8  C   UNL     1       2.574   3.321  21.677  0.00  0.00    +0.000 C 
ATOM      9  C   UNL     1       3.460   2.952  20.486  0.00  0.00    +0.000 C 
ATOM     10  H   UNL     1       4.966   3.960  18.654  0.00  0.00    +0.000 HD
ENDROOT
BRANCH   1  12
ATOM     11  C   UNL     1       3.956   6.877  17.291  0.00  0.00    +0.000 C 
ATOM     12  C   UNL     1       4.827   5.603  17.321  0.00  0.00    +0.000 C 
ATOM     13  C   UNL     1       4.724   4.930  15.928  0.00  0.00    +0.000 C 
ATOM     14  C   UNL     1       5.946   4.049  15.745  0.00  0.00    +0.000 C 
ATOM     15  S   UNL     1       7.280   5.009  16.401  0.00  0.00    +0.000 S 
ATOM     16  O   UNL     1       7.760   5.890  15.354  0.00  0.00    +0.000 OA
ATOM     17  O   UNL     1       8.167   4.125  17.129  0.00  0.00    +0.000 OA
ATOM     18  C   UNL     1       6.312   5.976  17.549  0.00  0.00    +0.000 C 
ENDBRANCH   1  12
TORSDOF 1
ENDMDL
MODEL 4
REMARK VINA RESULT:      -7.5      1.188      1.689
REMARK  Name = 
REMARK  2 active torsions:
REMARK  status: ('A' for Active; 'I' for Inactive)
REMARK    1  A    between atoms: C_1  and  C_2
REMARK    2  A    between atoms: C_2  and  N_3
REMARK                            x       y       z     vdW  Elec       q    Type
REMARK                         _______ _______ _______ _____ _____    ______ ____
ROOT
ATOM      1  N   UNL     1       4.792   5.287  18.399  0.00  0.00    +0.000 N 
ATOM      2  C   UNL     1       4.530   4.206  19.217  0.00  0.00    +0.000 C 
ATOM      3  O   UNL     1       5.375   3.350  19.455  0.00  0.00    +0.000 OA
ATOM      4  N   UNL     1       3.263   4.189  19.774  0.00  0.00    +0.000 N 
ATOM      5  C   UNL     1       2.971   3.183  20.795  0.00  0.00    +0.000 C 
ATOM      6  C   UNL     1       2.016   2.123  20.254  0.00  0.00    +0.000 C 
ATOM      7  C   UNL     1       0.744   2.774  19.709  0.00  0.00    +0.000 C 
ATOM      8  C   UNL     1       1.082   3.855  18.681  0.00  0.00    +0.000 C 
ATOM      9  C   UNL     1       2.082   4.870  19.238  0.00  0.00    +0.000 C 
ATOM     10  H   UNL     1       4.279   6.103  18.694  0.00  0.00    +0.000 HD
ENDROOT
BRANCH   1  12
ATOM     11  C   UNL     1       7.140   5.735  19.047  0.00  0.00    +0.000 C 
ATOM     12  C   UNL     1       6.155   5.552  17.873  0.00  0.00    +0.000 C 
ATOM     13  C   UNL     1       6.138   6.872  17.061  0.00  0.00    +0.000 C 
ATOM     14  C   UNL     1       5.654   6.552  15.660  0.00  0.00    +0.000 C 
ATOM     15  S   UNL     1       6.460   5.028  15.256  0.00  0.00    +0.000 S 
ATOM     16  O   UNL     1       7.775   5.339  14.730  0.00  0.00    +0.000 OA
ATOM     17  O   UNL     1       5.524   4.189  14.538  0.00  0.00    +0.000 OA
ATOM     18  C   UNL     1       6.651   4.431  16.928  0.00  0.00    +0.000 C 
ENDBRANCH   1  12
TORSDOF 1
ENDMDL
MODEL 5
REMARK VINA RESULT:      -7.3      2.301      2.816
REMARK  Name = 
REMARK  2 active torsions:
REMARK  status: ('A' for Active; 'I' for Inactive)
REMARK    1  A    between atoms: C_1  and  C_2
REMARK    2  A    between atoms: C_2  and  N_3
REMARK                            x       y       z     vdW  Elec       q    Type
REMARK                         _______ _______ _______ _____ _____    ______ ____
ROOT
ATOM      1  N   UNL     1       4.669   4.519  17.033  0.00  0.00    +0.000 N 
ATOM      2  C   UNL     1       3.441   4.795  17.600  0.00  0.00    +0.000 C 
ATOM      3  O   UNL     1       3.154   5.912  18.016  0.00  0.00    +0.000 OA
ATOM      4  N   UNL     1       2.555   3.732  17.622  0.00  0.00    +0.000 N 
ATOM      5  C   UNL     1       1.176   3.991  18.032  0.00  0.00    +0.000 C 
ATOM      6  C   UNL     1       0.895   3.381  19.403  0.00  0.00    +0.000 C 
ATOM      7  C   UNL     1       1.223   1.889  19.404  0.00  0.00    +0.000 C 
ATOM      8  C   UNL     1       2.655   1.645  18.924  0.00  0.00    +0.000 C 
ATOM      9  C   UNL     1       2.919   2.313  17.573  0.00  0.00    +0.000 C 
ATOM     10  H   UNL     1       4.592   3.816  16.314  0.00  0.00    +0.000 HD
ENDROOT
BRANCH   1  12
ATOM     11  C   UNL     1       5.199   6.440  15.562  0.00  0.00    +0.000 C 
ATOM     12  C   UNL     1       5.661   5.590  16.765  0.00  0.00    +0.000 C 
ATOM     13  C   UNL     1       7.019   4.944  16.392  0.00  0.00    +0.000 C 
ATOM     14  C   UNL     1       7.739   4.593  17.681  0.00  0.00    +0.000 C 
ATOM     15  S   UNL     1       7.440   5.980  18.740  0.00  0.00    +0.000 S 
ATOM     16  O   UNL     1       8.443   6.988  18.456  0.00  0.00    +0.000 OA
ATOM     17  O   UNL     1       7.201   5.491  20.081  0.00  0.00    +0.000 OA
ATOM     18  C   UNL     1       5.900   6.495  17.998  0.00  0.00    +0.000 C 
ENDBRANCH   1  12
TORSDOF 1
ENDMDL
MODEL 6
REMARK VINA RESULT:      -6.9      1.700      2.437
REMARK  Name = 
REMARK  2 active torsions:
REMARK  status: ('A' for Active; 'I' for Inactive)
REMARK    1  A    between atoms: C_1  and  C_2
REMARK    2  A    between atoms: C_2  and  N_3
REMARK                            x       y       z     vdW  Elec       q    Type
REMARK                         _______ _______ _______ _____ _____    ______ ____
ROOT
ATOM      1  N   UNL     1       4.580   3.860  17.371  0.00  0.00    +0.000 N 
ATOM      2  C   UNL     1       3.348   4.284  17.827  0.00  0.00    +0.000 C 
ATOM      3  O   UNL     1       2.888   5.382  17.532  0.00  0.00    +0.000 OA
ATOM      4  N   UNL     1       2.663   3.363  18.600  0.00  0.00    +0.000 N 
ATOM      5  C   UNL     1       1.278   3.661  18.963  0.00  0.00    +0.000 C 
ATOM      6  C   UNL     1       1.165   3.986  20.450  0.00  0.00    +0.000 C 
ATOM      7  C   UNL     1       1.748   2.852  21.293  0.00  0.00    +0.000 C 
ATOM      8  C   UNL     1       3.179   2.530  20.858  0.00  0.00    +0.000 C 
ATOM      9  C   UNL     1       3.265   2.261  19.355  0.00  0.00    +0.000 C 
ATOM     10  H   UNL     1       4.596   2.862  17.231  0.00  0.00    +0.000 HD
ENDROOT
BRANCH   1  12
ATOM     11  C   UNL     1       4.680   4.568  15.000  0.00  0.00    +0.000 C 
ATOM     12  C   UNL     1       5.358   4.649  16.384  0.00  0.00    +0.000 C 
ATOM     13  C   UNL     1       6.777   4.040  16.250  0.00  0.00    +0.000 C 
ATOM     14  C   UNL     1       7.631   4.595  17.374  0.00  0.00    +0.000 C 
ATOM     15  S   UNL     1       7.178   6.303  17.466  0.00  0.00    +0.000 S 
ATOM     16  O   UNL     1       7.976   7.035  16.501  0.00  0.00    +0.000 OA
ATOM     17  O   UNL     1       7.116   6.689  18.860  0.00  0.00    +0.000 OA
ATOM     18  C   UNL     1       5.526   6.128  16.811  0.00  0.00    +0.000 C 
ENDBRANCH   1  12
TORSDOF 1
ENDMDL
MODEL 7
REMARK VINA RESULT:      -6.8      1.069      1.309
REMARK  Name = 
REMARK  2 active torsions:
REMARK  status: ('A' for Active; 'I' for Inactive)
REMARK    1  A    between atoms: C_1  and  C_2
REMARK    2  A    between atoms: C_2  and  N_3
REMARK                            x       y       z     vdW  Elec       q    Type
REMARK                         _______ _______ _______ _____ _____    ______ ____
ROOT
ATOM      1  N   UNL     1       4.403   4.988  17.815  0.00  0.00    +0.000 N 
ATOM      2  C   UNL     1       4.006   4.938  19.137  0.00  0.00    +0.000 C 
ATOM      3  O   UNL     1       4.800   5.089  20.060  0.00  0.00    +0.000 OA
ATOM      4  N   UNL     1       2.650   4.748  19.333  0.00  0.00    +0.000 N 
ATOM      5  C   UNL     1       2.125   4.870  20.693  0.00  0.00    +0.000 C 
ATOM      6  C   UNL     1       1.712   3.506  21.240  0.00  0.00    +0.000 C 
ATOM      7  C   UNL     1       0.716   2.830  20.298  0.00  0.00    +0.000 C 
ATOM      8  C   UNL     1       1.271   2.760  18.874  0.00  0.00    +0.000 C 
ATOM      9  C   UNL     1       1.723   4.135  18.377  0.00  0.00    +0.000 C 
ATOM     10  H   UNL     1       3.674   5.365  17.228  0.00  0.00    +0.000 HD
ENDROOT
BRANCH   1  12
ATOM     11  C   UNL     1       6.641   5.574  18.698  0.00  0.00    +0.000 C 
ATOM     12  C   UNL     1       5.785   5.368  17.431  0.00  0.00    +0.000 C 
ATOM     13  C   UNL     1       5.747   6.713  16.663  0.00  0.00    +0.000 C 
ATOM     14  C   UNL     1       5.421   6.414  15.212  0.00  0.00    +0.000 C 
ATOM     15  S   UNL     1       6.370   4.967  14.840  0.00  0.00    +0.000 S 
ATOM     16  O   UNL     1       7.702   5.388  14.451  0.00  0.00    +0.000 OA
ATOM     17  O   UNL     1       5.568   4.092  14.010  0.00  0.00    +0.000 OA
ATOM     18  C   UNL     1       6.448   4.321  16.503  0.00  0.00    +0.000 C 
ENDBRANCH   1  12
TORSDOF 1
ENDMDL
MODEL 8
REMARK VINA RESULT:      -6.8      2.919      5.691
REMARK  Name = 
REMARK  2 active torsions:
REMARK  status: ('A' for Active; 'I' for Inactive)
REMARK    1  A    between atoms: C_1  and  C_2
REMARK    2  A    between atoms: C_2  and  N_3
REMARK                            x       y       z     vdW  Elec       q    Type
REMARK                         _______ _______ _______ _____ _____    ______ ____
ROOT
ATOM      1  N   UNL     1       5.091   3.321  18.588  0.00  0.00    +0.000 N 
ATOM      2  C   UNL     1       5.617   4.534  18.986  0.00  0.00    +0.000 C 
ATOM      3  O   UNL     1       5.132   5.182  19.907  0.00  0.00    +0.000 OA
ATOM      4  N   UNL     1       6.749   4.934  18.298  0.00  0.00    +0.000 N 
ATOM      5  C   UNL     1       7.472   6.109  18.782  0.00  0.00    +0.000 C 
ATOM      6  C   UNL     1       7.294   7.287  17.827  0.00  0.00    +0.000 C 
ATOM      7  C   UNL     1       7.715   6.897  16.410  0.00  0.00    +0.000 C 
ATOM      8  C   UNL     1       6.979   5.637  15.949  0.00  0.00    +0.000 C 
ATOM      9  C   UNL     1       7.135   4.494  16.954  0.00  0.00    +0.000 C 
ATOM     10  H   UNL     1       5.812   2.702  18.250  0.00  0.00    +0.000 HD
ENDROOT
BRANCH   1  12
ATOM     11  C   UNL     1       4.535   2.120  20.682  0.00  0.00    +0.000 C 
ATOM     12  C   UNL     1       3.995   2.663  19.342  0.00  0.00    +0.000 C 
ATOM     13  C   UNL     1       3.467   1.458  18.523  0.00  0.00    +0.000 C 
ATOM     14  C   UNL     1       2.464   1.983  17.514  0.00  0.00    +0.000 C 
ATOM     15  S   UNL     1       1.531   3.190  18.411  0.00  0.00    +0.000 S 
ATOM     16  O   UNL     1       0.463   2.505  19.113  0.00  0.00    +0.000 OA
ATOM     17  O   UNL     1       1.277   4.317  17.537  0.00  0.00    +0.000 OA
ATOM     18  C   UNL     1       2.799   3.614  19.594  0.00  0.00    +0.000 C 
ENDBRANCH   1  12
TORSDOF 1
ENDMDL
MODEL 9
REMARK VINA RESULT:      -6.7      1.673      2.160
REMARK  Name = 
REMARK  2 active torsions:
REMARK  status: ('A' for Active; 'I' for Inactive)
REMARK    1  A    between atoms: C_1  and  C_2
REMARK    2  A    between atoms: C_2  and  N_3
REMARK                            x       y       z     vdW  Elec       q    Type
REMARK                         _______ _______ _______ _____ _____    ______ ____
ROOT
ATOM      1  N   UNL     1       3.529   5.449  17.548  0.00  0.00    +0.000 N 
ATOM      2  C   UNL     1       2.932   5.419  18.792  0.00  0.00    +0.000 C 
ATOM      3  O   UNL     1       3.232   6.214  19.676  0.00  0.00    +0.000 OA
ATOM      4  N   UNL     1       1.950   4.457  18.946  0.00  0.00    +0.000 N 
ATOM      5  C   UNL     1       1.143   4.482  20.165  0.00  0.00    +0.000 C 
ATOM      6  C   UNL     1       1.493   3.305  21.072  0.00  0.00    +0.000 C 
ATOM      7  C   UNL     1       1.350   1.984  20.317  0.00  0.00    +0.000 C 
ATOM      8  C   UNL     1       2.165   2.005  19.022  0.00  0.00    +0.000 C 
ATOM      9  C   UNL     1       1.827   3.224  18.162  0.00  0.00    +0.000 C 
ATOM     10  H   UNL     1       2.888   5.156  16.826  0.00  0.00    +0.000 HD
ENDROOT
BRANCH   1  12
ATOM     11  C   UNL     1       3.783   7.904  17.344  0.00  0.00    +0.000 C 
ATOM     12  C   UNL     1       4.466   6.532  17.159  0.00  0.00    +0.000 C 
ATOM     13  C   UNL     1       4.824   6.382  15.659  0.00  0.00    +0.000 C 
ATOM     14  C   UNL     1       5.945   5.366  15.547  0.00  0.00    +0.000 C 
ATOM     15  S   UNL     1       7.023   5.753  16.896  0.00  0.00    +0.000 S 
ATOM     16  O   UNL     1       7.930   6.799  16.464  0.00  0.00    +0.000 OA
ATOM     17  O   UNL     1       7.500   4.513  17.474  0.00  0.00    +0.000 OA
ATOM     18  C   UNL     1       5.790   6.483  17.961  0.00  0.00    +0.000 C 
ENDBRANCH   1  12
TORSDOF 1
ENDMDL
