MODEL 1
REMARK VINA RESULT:      -6.1      0.000      0.000
REMARK  Name = 
REMARK  7 active torsions:
REMARK  status: ('A' for Active; 'I' for Inactive)
REMARK    1  A    between atoms: C_2  and  C_3
REMARK    2  A    between atoms: C_2  and  O_8
REMARK    3  A    between atoms: C_3  and  C_4
REMARK    4  A    between atoms: C_4  and  C_5
REMARK    5  A    between atoms: C_5  and  C_6
REMARK    6  A    between atoms: O_8  and  C_9
REMARK    7  A    between atoms: C_12  and  N_13
REMARK                            x       y       z     vdW  Elec       q    Type
REMARK                         _______ _______ _______ _____ _____    ______ ____
ROOT
ATOM      1  C   UNL     1       4.373   3.690  17.748  0.00  0.00    +0.000 A 
ATOM      2  C   UNL     1       4.750   4.310  16.554  0.00  0.00    +0.000 A 
ATOM      3  C   UNL     1       5.736   5.302  16.571  0.00  0.00    +0.000 A 
ATOM      4  C   UNL     1       6.324   5.672  17.790  0.00  0.00    +0.000 A 
ATOM      5  C   UNL     1       5.955   5.038  18.984  0.00  0.00    +0.000 A 
ATOM      6  C   UNL     1       4.969   4.048  18.961  0.00  0.00    +0.000 A 
ENDROOT
BRANCH   4   7
ATOM      7  N   UNL     1       7.314   6.758  17.820  0.00  0.00    +0.000 N 
ATOM      8  O   UNL     1       8.116   6.781  18.765  0.00  0.00    +0.000 OA
ATOM      9  O   UNL     1       7.299   7.578  16.892  0.00  0.00    +0.000 OA
ENDBRANCH   4   7
BRANCH   1  10
ATOM     10  O   UNL     1       3.260   2.828  17.697  0.00  0.00    +0.000 OA
BRANCH  10  12
ATOM     11  O   UNL     1       1.301   4.038  17.307  0.00  0.00    +0.000 OA
ATOM     12  C   UNL     1       1.995   3.321  18.014  0.00  0.00    +0.000 C 
BRANCH  12  13
ATOM     13  C   UNL     1       1.553   2.759  19.346  0.00  0.00    +0.000 C 
BRANCH  13  14
ATOM     14  C   UNL     1       0.929   3.799  20.271  0.00  0.00    +0.000 C 
BRANCH  14  15
ATOM     15  C   UNL     1       2.006   4.704  20.880  0.00  0.00    +0.000 C 
BRANCH  15  16
ATOM     16  C   UNL     1       1.715   6.177  20.622  0.00  0.00    +0.000 C 
ATOM     17 CL   UNL     1       2.574   6.729  19.166  0.00  0.00    +0.000 Cl
ENDBRANCH  15  16
ENDBRANCH  14  15
ENDBRANCH  13  14
ENDBRANCH  12  13
ENDBRANCH  10  12
ENDBRANCH   1  10
TORSDOF 7
ENDMDL
MODEL 2
REMARK VINA RESULT:      -6.0      2.271      3.027
REMARK  Name = 
REMARK  7 active torsions:
REMARK  status: ('A' for Active; 'I' for Inactive)
REMARK    1  A    between atoms: C_2  and  C_3
REMARK    2  A    between atoms: C_2  and  O_8
REMARK    3  A    between atoms: C_3  and  C_4
REMARK    4  A    between atoms: C_4  and  C_5
REMARK    5  A    between atoms: C_5  and  C_6
REMARK    6  A    between atoms: O_8  and  C_9
REMARK    7  A    between atoms: C_12  and  N_13
REMARK                            x       y       z     vdW  Elec       q    Type
REMARK                         _______ _______ _______ _____ _____    ______ ____
ROOT
ATOM      1  C   UNL     1       3.384   5.290  17.869  0.00  0.00    +0.000 A 
ATOM      2  C   UNL     1       4.360   6.279  18.015  0.00  0.00    +0.000 A 
ATOM      3  C   UNL     1       5.648   6.060  17.515  0.00  0.00    +0.000 A 
ATOM      4  C   UNL     1       5.947   4.843  16.884  0.00  0.00    +0.000 A 
ATOM      5  C   UNL     1       4.962   3.859  16.725  0.00  0.00    +0.000 A 
ATOM      6  C   UNL     1       3.677   4.082  17.228  0.00  0.00    +0.000 A 
ENDROOT
BRANCH   4   7
ATOM      7  N   UNL     1       7.315   4.583  16.414  0.00  0.00    +0.000 N 
ATOM      8  O   UNL     1       7.561   4.781  15.215  0.00  0.00    +0.000 OA
ATOM      9  O   UNL     1       8.147   4.197  17.247  0.00  0.00    +0.000 OA
ENDBRANCH   4   7
BRANCH   1  10
ATOM     10  O   UNL     1       2.163   5.493  18.541  0.00  0.00    +0.000 OA
BRANCH  10  12
ATOM     11  O   UNL     1       2.039   7.401  19.881  0.00  0.00    +0.000 OA
ATOM     12  C   UNL     1       2.152   6.190  19.747  0.00  0.00    +0.000 C 
BRANCH  12  13
ATOM     13  C   UNL     1       2.209   5.211  20.898  0.00  0.00    +0.000 C 
BRANCH  13  14
ATOM     14  C   UNL     1       1.275   4.017  20.731  0.00  0.00    +0.000 C 
BRANCH  14  15
ATOM     15  C   UNL     1       2.045   2.699  20.865  0.00  0.00    +0.000 C 
BRANCH  15  16
ATOM     16  C   UNL     1       1.954   1.863  19.595  0.00  0.00    +0.000 C 
ATOM     17 CL   UNL     1       0.574   2.391  18.605  0.00  0.00    +0.000 Cl
ENDBRANCH  15  16
ENDBRANCH  14  15
ENDBRANCH  13  14
ENDBRANCH  12  13
ENDBRANCH  10  12
ENDBRANCH   1  10
TORSDOF 7
ENDMDL
MODEL 3
REMARK VINA RESULT:      -6.0      2.329      3.168
REMARK  Name = 
REMARK  7 active torsions:
REMARK  status: ('A' for Active; 'I' for Inactive)
REMARK    1  A    between atoms: C_2  and  C_3
REMARK    2  A    between atoms: C_2  and  O_8
REMARK    3  A    between atoms: C_3  and  C_4
REMARK    4  A    between atoms: C_4  and  C_5
REMARK    5  A    between atoms: C_5  and  C_6
REMARK    6  A    between atoms: O_8  and  C_9
REMARK    7  A    between atoms: C_12  and  N_13
REMARK                            x       y       z     vdW  Elec       q    Type
REMARK                         _______ _______ _______ _____ _____    ______ ____
ROOT
ATOM      1  C   UNL     1       3.240   5.550  19.752  0.00  0.00    +0.000 A 
ATOM      2  C   UNL     1       2.740   6.486  18.843  0.00  0.00    +0.000 A 
ATOM      3  C   UNL     1       3.525   6.880  17.754  0.00  0.00    +0.000 A 
ATOM      4  C   UNL     1       4.810   6.340  17.596  0.00  0.00    +0.000 A 
ATOM      5  C   UNL     1       5.302   5.389  18.500  0.00  0.00    +0.000 A 
ATOM      6  C   UNL     1       4.515   5.000  19.587  0.00  0.00    +0.000 A 
ENDROOT
BRANCH   4   7
ATOM      7  N   UNL     1       5.661   6.798  16.490  0.00  0.00    +0.000 N 
ATOM      8  O   UNL     1       5.191   6.758  15.344  0.00  0.00    +0.000 OA
ATOM      9  O   UNL     1       6.795   7.214  16.769  0.00  0.00    +0.000 OA
ENDBRANCH   4   7
BRANCH   1  10
ATOM     10  O   UNL     1       2.481   5.323  20.917  0.00  0.00    +0.000 OA
BRANCH  10  12
ATOM     11  O   UNL     1       2.207   3.305  22.060  0.00  0.00    +0.000 OA
ATOM     12  C   UNL     1       1.928   4.064  21.142  0.00  0.00    +0.000 C 
BRANCH  12  13
ATOM     13  C   UNL     1       0.846   3.798  20.119  0.00  0.00    +0.000 C 
BRANCH  13  14
ATOM     14  C   UNL     1       1.047   2.503  19.339  0.00  0.00    +0.000 C 
BRANCH  14  15
ATOM     15  C   UNL     1       2.516   2.068  19.374  0.00  0.00    +0.000 C 
BRANCH  15  16
ATOM     16  C   UNL     1       3.103   1.956  17.973  0.00  0.00    +0.000 C 
ATOM     17 CL   UNL     1       2.582   3.332  16.974  0.00  0.00    +0.000 Cl
ENDBRANCH  15  16
ENDBRANCH  14  15
ENDBRANCH  13  14
ENDBRANCH  12  13
ENDBRANCH  10  12
ENDBRANCH   1  10
TORSDOF 7
ENDMDL
MODEL 4
REMARK VINA RESULT:      -6.0      2.100      2.766
REMARK  Name = 
REMARK  7 active torsions:
REMARK  status: ('A' for Active; 'I' for Inactive)
REMARK    1  A    between atoms: C_2  and  C_3
REMARK    2  A    between atoms: C_2  and  O_8
REMARK    3  A    between atoms: C_3  and  C_4
REMARK    4  A    between atoms: C_4  and  C_5
REMARK    5  A    between atoms: C_5  and  C_6
REMARK    6  A    between atoms: O_8  and  C_9
REMARK    7  A    between atoms: C_12  and  N_13
REMARK                            x       y       z     vdW  Elec       q    Type
REMARK                         _______ _______ _______ _____ _____    ______ ____
ROOT
ATOM      1  C   UNL     1       3.539   5.515  18.369  0.00  0.00    +0.000 A 
ATOM      2  C   UNL     1       4.409   5.486  19.462  0.00  0.00    +0.000 A 
ATOM      3  C   UNL     1       5.768   5.225  19.256  0.00  0.00    +0.000 A 
ATOM      4  C   UNL     1       6.238   4.983  17.956  0.00  0.00    +0.000 A 
ATOM      5  C   UNL     1       5.364   5.028  16.861  0.00  0.00    +0.000 A 
ATOM      6  C   UNL     1       4.007   5.288  17.072  0.00  0.00    +0.000 A 
ENDROOT
BRANCH   4   7
ATOM      7  N   UNL     1       7.652   4.646  17.743  0.00  0.00    +0.000 N 
ATOM      8  O   UNL     1       8.024   4.423  16.582  0.00  0.00    +0.000 OA
ATOM      9  O   UNL     1       8.394   4.619  18.735  0.00  0.00    +0.000 OA
ENDBRANCH   4   7
BRANCH   1  10
ATOM     10  O   UNL     1       2.162   5.608  18.653  0.00  0.00    +0.000 OA
BRANCH  10  12
ATOM     11  O   UNL     1       1.025   3.846  17.626  0.00  0.00    +0.000 OA
ATOM     12  C   UNL     1       1.376   4.458  18.625  0.00  0.00    +0.000 C 
BRANCH  12  13
ATOM     13  C   UNL     1       1.086   4.010  20.040  0.00  0.00    +0.000 C 
BRANCH  13  14
ATOM     14  C   UNL     1       1.537   2.583  20.334  0.00  0.00    +0.000 C 
BRANCH  14  15
ATOM     15  C   UNL     1       2.822   2.579  21.168  0.00  0.00    +0.000 C 
BRANCH  15  16
ATOM     16  C   UNL     1       4.034   2.185  20.333  0.00  0.00    +0.000 C 
ATOM     17 CL   UNL     1       3.531   1.751  18.683  0.00  0.00    +0.000 Cl
ENDBRANCH  15  16
ENDBRANCH  14  15
ENDBRANCH  13  14
ENDBRANCH  12  13
ENDBRANCH  10  12
ENDBRANCH   1  10
TORSDOF 7
ENDMDL
MODEL 5
REMARK VINA RESULT:      -5.9      2.365      3.006
REMARK  Name = 
REMARK  7 active torsions:
REMARK  status: ('A' for Active; 'I' for Inactive)
REMARK    1  A    between atoms: C_2  and  C_3
REMARK    2  A    between atoms: C_2  and  O_8
REMARK    3  A    between atoms: C_3  and  C_4
REMARK    4  A    between atoms: C_4  and  C_5
REMARK    5  A    between atoms: C_5  and  C_6
REMARK    6  A    between atoms: O_8  and  C_9
REMARK    7  A    between atoms: C_12  and  N_13
REMARK                            x       y       z     vdW  Elec       q    Type
REMARK                         _______ _______ _______ _____ _____    ______ ____
ROOT
ATOM      1  C   UNL     1       5.207   4.378  18.416  0.00  0.00    +0.000 A 
ATOM      2  C   UNL     1       4.504   3.929  17.296  0.00  0.00    +0.000 A 
ATOM      3  C   UNL     1       5.101   3.996  16.032  0.00  0.00    +0.000 A 
ATOM      4  C   UNL     1       6.393   4.527  15.905  0.00  0.00    +0.000 A 
ATOM      5  C   UNL     1       7.102   4.963  17.033  0.00  0.00    +0.000 A 
ATOM      6  C   UNL     1       6.500   4.894  18.293  0.00  0.00    +0.000 A 
ENDROOT
BRANCH   4   7
ATOM      7  N   UNL     1       6.998   4.659  14.572  0.00  0.00    +0.000 N 
ATOM      8  O   UNL     1       6.580   3.916  13.672  0.00  0.00    +0.000 OA
ATOM      9  O   UNL     1       7.880   5.516  14.422  0.00  0.00    +0.000 OA
ENDBRANCH   4   7
BRANCH   1  10
ATOM     10  O   UNL     1       4.496   4.448  19.631  0.00  0.00    +0.000 OA
BRANCH  10  12
ATOM     11  O   UNL     1       3.342   6.416  19.135  0.00  0.00    +0.000 OA
ATOM     12  C   UNL     1       3.470   5.380  19.772  0.00  0.00    +0.000 C 
BRANCH  12  13
ATOM     13  C   UNL     1       2.466   4.876  20.785  0.00  0.00    +0.000 C 
BRANCH  13  14
ATOM     14  C   UNL     1       2.249   3.367  20.730  0.00  0.00    +0.000 C 
BRANCH  14  15
ATOM     15  C   UNL     1       0.936   3.030  20.015  0.00  0.00    +0.000 C 
BRANCH  15  16
ATOM     16  C   UNL     1       1.168   2.677  18.551  0.00  0.00    +0.000 C 
ATOM     17 CL   UNL     1       1.113   4.143  17.546  0.00  0.00    +0.000 Cl
ENDBRANCH  15  16
ENDBRANCH  14  15
ENDBRANCH  13  14
ENDBRANCH  12  13
ENDBRANCH  10  12
ENDBRANCH   1  10
TORSDOF 7
ENDMDL
MODEL 6
REMARK VINA RESULT:      -5.8      2.122      2.590
REMARK  Name = 
REMARK  7 active torsions:
REMARK  status: ('A' for Active; 'I' for Inactive)
REMARK    1  A    between atoms: C_2  and  C_3
REMARK    2  A    between atoms: C_2  and  O_8
REMARK    3  A    between atoms: C_3  and  C_4
REMARK    4  A    between atoms: C_4  and  C_5
REMARK    5  A    between atoms: C_5  and  C_6
REMARK    6  A    between atoms: O_8  and  C_9
REMARK    7  A    between atoms: C_12  and  N_13
REMARK                            x       y       z     vdW  Elec       q    Type
REMARK                         _______ _______ _______ _____ _____    ______ ____
ROOT
ATOM      1  C   UNL     1       3.036   5.016  17.649  0.00  0.00    +0.000 A 
ATOM      2  C   UNL     1       3.669   4.013  16.912  0.00  0.00    +0.000 A 
ATOM      3  C   UNL     1       4.991   4.195  16.490  0.00  0.00    +0.000 A 
ATOM      4  C   UNL     1       5.659   5.388  16.801  0.00  0.00    +0.000 A 
ATOM      5  C   UNL     1       5.025   6.386  17.554  0.00  0.00    +0.000 A 
ATOM      6  C   UNL     1       3.705   6.201  17.972  0.00  0.00    +0.000 A 
ENDROOT
BRANCH   4   7
ATOM      7  N   UNL     1       7.024   5.610  16.306  0.00  0.00    +0.000 N 
ATOM      8  O   UNL     1       7.575   6.683  16.590  0.00  0.00    +0.000 OA
ATOM      9  O   UNL     1       7.552   4.704  15.646  0.00  0.00    +0.000 OA
ENDBRANCH   4   7
BRANCH   1  10
ATOM     10  O   UNL     1       1.658   4.854  17.895  0.00  0.00    +0.000 OA
BRANCH  10  12
ATOM     11  O   UNL     1       0.988   2.640  18.212  0.00  0.00    +0.000 OA
ATOM     12  C   UNL     1       1.217   3.762  18.640  0.00  0.00    +0.000 C 
BRANCH  12  13
ATOM     13  C   UNL     1       1.146   4.144  20.102  0.00  0.00    +0.000 C 
BRANCH  13  14
ATOM     14  C   UNL     1       2.490   4.067  20.819  0.00  0.00    +0.000 C 
BRANCH  14  15
ATOM     15  C   UNL     1       2.958   2.613  20.947  0.00  0.00    +0.000 C 
BRANCH  15  16
ATOM     16  C   UNL     1       4.218   2.354  20.132  0.00  0.00    +0.000 C 
ATOM     17 CL   UNL     1       3.888   1.177  18.840  0.00  0.00    +0.000 Cl
ENDBRANCH  15  16
ENDBRANCH  14  15
ENDBRANCH  13  14
ENDBRANCH  12  13
ENDBRANCH  10  12
ENDBRANCH   1  10
TORSDOF 7
ENDMDL
MODEL 7
REMARK VINA RESULT:      -5.8      1.994      2.357
REMARK  Name = 
REMARK  7 active torsions:
REMARK  status: ('A' for Active; 'I' for Inactive)
REMARK    1  A    between atoms: C_2  and  C_3
REMARK    2  A    between atoms: C_2  and  O_8
REMARK    3  A    between atoms: C_3  and  C_4
REMARK    4  A    between atoms: C_4  and  C_5
REMARK    5  A    between atoms: C_5  and  C_6
REMARK    6  A    between atoms: O_8  and  C_9
REMARK    7  A    between atoms: C_12  and  N_13
REMARK                            x       y       z     vdW  Elec       q    Type
REMARK                         _______ _______ _______ _____ _____    ______ ____
ROOT
ATOM      1  C   UNL     1       3.105   4.747  17.687  0.00  0.00    +0.000 A 
ATOM      2  C   UNL     1       3.701   3.804  16.847  0.00  0.00    +0.000 A 
ATOM      3  C   UNL     1       5.059   3.919  16.531  0.00  0.00    +0.000 A 
ATOM      4  C   UNL     1       5.803   4.988  17.052  0.00  0.00    +0.000 A 
ATOM      5  C   UNL     1       5.206   5.924  17.908  0.00  0.00    +0.000 A 
ATOM      6  C   UNL     1       3.849   5.805  18.219  0.00  0.00    +0.000 A 
ENDROOT
BRANCH   4   7
ATOM      7  N   UNL     1       7.213   5.148  16.672  0.00  0.00    +0.000 N 
ATOM      8  O   UNL     1       8.035   4.355  17.154  0.00  0.00    +0.000 OA
ATOM      9  O   UNL     1       7.497   6.057  15.879  0.00  0.00    +0.000 OA
ENDBRANCH   4   7
BRANCH   1  10
ATOM     10  O   UNL     1       1.705   4.682  17.829  0.00  0.00    +0.000 OA
BRANCH  10  12
ATOM     11  O   UNL     1       0.932   2.547  18.371  0.00  0.00    +0.000 OA
ATOM     12  C   UNL     1       1.144   3.716  18.662  0.00  0.00    +0.000 C 
BRANCH  12  13
ATOM     13  C   UNL     1       0.911   4.305  20.035  0.00  0.00    +0.000 C 
BRANCH  13  14
ATOM     14  C   UNL     1       2.072   4.083  20.999  0.00  0.00    +0.000 C 
BRANCH  14  15
ATOM     15  C   UNL     1       2.008   2.682  21.617  0.00  0.00    +0.000 C 
BRANCH  15  16
ATOM     16  C   UNL     1       3.353   1.973  21.541  0.00  0.00    +0.000 C 
ATOM     17 CL   UNL     1       4.229   2.465  20.073  0.00  0.00    +0.000 Cl
ENDBRANCH  15  16
ENDBRANCH  14  15
ENDBRANCH  13  14
ENDBRANCH  12  13
ENDBRANCH  10  12
ENDBRANCH   1  10
TORSDOF 7
ENDMDL
MODEL 8
REMARK VINA RESULT:      -5.8      2.560      3.450
REMARK  Name = 
REMARK  7 active torsions:
REMARK  status: ('A' for Active; 'I' for Inactive)
REMARK    1  A    between atoms: C_2  and  C_3
REMARK    2  A    between atoms: C_2  and  O_8
REMARK    3  A    between atoms: C_3  and  C_4
REMARK    4  A    between atoms: C_4  and  C_5
REMARK    5  A    between atoms: C_5  and  C_6
REMARK    6  A    between atoms: O_8  and  C_9
REMARK    7  A    between atoms: C_12  and  N_13
REMARK                            x       y       z     vdW  Elec       q    Type
REMARK                         _______ _______ _______ _____ _____    ______ ____
ROOT
ATOM      1  C   UNL     1       5.666   5.403  18.094  0.00  0.00    +0.000 A 
ATOM      2  C   UNL     1       6.875   4.740  17.867  0.00  0.00    +0.000 A 
ATOM      3  C   UNL     1       7.343   4.585  16.558  0.00  0.00    +0.000 A 
ATOM      4  C   UNL     1       6.586   5.085  15.488  0.00  0.00    +0.000 A 
ATOM      5  C   UNL     1       5.381   5.763  15.720  0.00  0.00    +0.000 A 
ATOM      6  C   UNL     1       4.918   5.915  17.030  0.00  0.00    +0.000 A 
ENDROOT
BRANCH   4   7
ATOM      7  N   UNL     1       7.042   4.868  14.108  0.00  0.00    +0.000 N 
ATOM      8  O   UNL     1       7.973   5.571  13.691  0.00  0.00    +0.000 OA
ATOM      9  O   UNL     1       6.480   3.983  13.447  0.00  0.00    +0.000 OA
ENDBRANCH   4   7
BRANCH   1  10
ATOM     10  O   UNL     1       5.161   5.377  19.409  0.00  0.00    +0.000 OA
BRANCH  10  12
ATOM     11  O   UNL     1       4.466   3.197  19.878  0.00  0.00    +0.000 OA
ATOM     12  C   UNL     1       4.241   4.395  19.771  0.00  0.00    +0.000 C 
BRANCH  12  13
ATOM     13  C   UNL     1       2.916   5.043  20.107  0.00  0.00    +0.000 C 
BRANCH  13  14
ATOM     14  C   UNL     1       1.788   4.654  19.157  0.00  0.00    +0.000 C 
BRANCH  14  15
ATOM     15  C   UNL     1       1.015   3.445  19.695  0.00  0.00    +0.000 C 
BRANCH  15  16
ATOM     16  C   UNL     1       1.075   2.267  18.731  0.00  0.00    +0.000 C 
ATOM     17 CL   UNL     1       2.272   2.575  17.453  0.00  0.00    +0.000 Cl
ENDBRANCH  15  16
ENDBRANCH  14  15
ENDBRANCH  13  14
ENDBRANCH  12  13
ENDBRANCH  10  12
ENDBRANCH   1  10
TORSDOF 7
ENDMDL
MODEL 9
REMARK VINA RESULT:      -5.8      1.475      1.739
REMARK  Name = 
REMARK  7 active torsions:
REMARK  status: ('A' for Active; 'I' for Inactive)
REMARK    1  A    between atoms: C_2  and  C_3
REMARK    2  A    between atoms: C_2  and  O_8
REMARK    3  A    between atoms: C_3  and  C_4
REMARK    4  A    between atoms: C_4  and  C_5
REMARK    5  A    between atoms: C_5  and  C_6
REMARK    6  A    between atoms: O_8  and  C_9
REMARK    7  A    between atoms: C_12  and  N_13
REMARK                            x       y       z     vdW  Elec       q    Type
REMARK                         _______ _______ _______ _____ _____    ______ ____
ROOT
ATOM      1  C   UNL     1       4.304   3.079  18.635  0.00  0.00    +0.000 A 
ATOM      2  C   UNL     1       3.979   3.162  17.279  0.00  0.00    +0.000 A 
ATOM      3  C   UNL     1       4.598   4.128  16.478  0.00  0.00    +0.000 A 
ATOM      4  C   UNL     1       5.527   5.010  17.050  0.00  0.00    +0.000 A 
ATOM      5  C   UNL     1       5.861   4.914  18.408  0.00  0.00    +0.000 A 
ATOM      6  C   UNL     1       5.240   3.948  19.204  0.00  0.00    +0.000 A 
ENDROOT
BRANCH   4   7
ATOM      7  N   UNL     1       6.131   6.067  16.227  0.00  0.00    +0.000 N 
ATOM      8  O   UNL     1       7.363   6.195  16.265  0.00  0.00    +0.000 OA
ATOM      9  O   UNL     1       5.375   6.758  15.530  0.00  0.00    +0.000 OA
ENDBRANCH   4   7
BRANCH   1  10
ATOM     10  O   UNL     1       3.527   2.209  19.425  0.00  0.00    +0.000 OA
BRANCH  10  12
ATOM     11  O   UNL     1       1.233   2.018  19.031  0.00  0.00    +0.000 OA
ATOM     12  C   UNL     1       2.180   2.496  19.641  0.00  0.00    +0.000 C 
BRANCH  12  13
ATOM     13  C   UNL     1       2.045   3.434  20.819  0.00  0.00    +0.000 C 
BRANCH  13  14
ATOM     14  C   UNL     1       1.262   4.704  20.502  0.00  0.00    +0.000 C 
BRANCH  14  15
ATOM     15  C   UNL     1       1.783   5.360  19.219  0.00  0.00    +0.000 C 
BRANCH  15  16
ATOM     16  C   UNL     1       2.619   6.597  19.519  0.00  0.00    +0.000 C 
ATOM     17 CL   UNL     1       3.017   7.453  18.011  0.00  0.00    +0.000 Cl
ENDBRANCH  15  16
ENDBRANCH  14  15
ENDBRANCH  13  14
ENDBRANCH  12  13
ENDBRANCH  10  12
ENDBRANCH   1  10
TORSDOF 7
ENDMDL
