MODEL 1
REMARK VINA RESULT:      -8.6      0.000      0.000
REMARK  Name = 
REMARK  8 active torsions:
REMARK  status: ('A' for Active; 'I' for Inactive)
REMARK    1  A    between atoms: C_1  and  C_2
REMARK    2  A    between atoms: C_2  and  C_3
REMARK    3  A    between atoms: C_3  and  S_4
REMARK    4  A    between atoms: S_4  and  C_5
REMARK    5  A    between atoms: C_7  and  C_8
REMARK    6  A    between atoms: C_16  and  C_17
REMARK    7  A    between atoms: C_20  and  C_21
REMARK    8  A    between atoms: N_23  and  C_24
REMARK                            x       y       z     vdW  Elec       q    Type
REMARK                         _______ _______ _______ _____ _____    ______ ____
ROOT
ATOM      1  C   UNL     1      -1.176  11.659  21.361  0.00  0.00    +0.000 A 
ATOM      2  N   UNL     1      -1.864  11.752  20.255  0.00  0.00    +0.000 NA
ATOM      3  C   UNL     1      -1.604  10.820  19.265  0.00  0.00    +0.000 A 
ATOM      4  C   UNL     1      -0.689   9.840  19.382  0.00  0.00    +0.000 A 
ATOM      5  N   UNL     1       0.071   9.759  20.538  0.00  0.00    +0.000 N 
ATOM      6  C   UNL     1       1.099   8.916  20.939  0.00  0.00    +0.000 A 
ATOM      7  C   UNL     1       1.366   9.329  22.236  0.00  0.00    +0.000 A 
ATOM      8  N   UNL     1       0.590  10.396  22.614  0.00  0.00    +0.000 NA
ATOM      9  C   UNL     1      -0.164  10.644  21.566  0.00  0.00    +0.000 A 
ENDROOT
BRANCH   3  10
ATOM     10  C   UNL     1      -2.358  10.886  18.002  0.00  0.00    +0.000 A 
ATOM     11  C   UNL     1      -3.579  11.570  17.949  0.00  0.00    +0.000 A 
ATOM     12  C   UNL     1      -4.339  11.565  16.777  0.00  0.00    +0.000 A 
ATOM     13  C   UNL     1      -3.886  10.877  15.653  0.00  0.00    +0.000 A 
ATOM     14  C   UNL     1      -2.668  10.200  15.693  0.00  0.00    +0.000 A 
ATOM     15  C   UNL     1      -1.905  10.203  16.865  0.00  0.00    +0.000 A 
ENDBRANCH   3  10
BRANCH   6  16
ATOM     16  C   UNL     1       1.701   7.845  20.138  0.00  0.00    +0.000 A 
ATOM     17  C   UNL     1       2.235   8.103  18.870  0.00  0.00    +0.000 A 
ATOM     18  C   UNL     1       2.737   7.072  18.075  0.00  0.00    +0.000 A 
ATOM     19  C   UNL     1       2.761   5.758  18.551  0.00  0.00    +0.000 A 
ATOM     20  C   UNL     1       2.298   5.493  19.844  0.00  0.00    +0.000 A 
ATOM     21  C   UNL     1       1.769   6.531  20.629  0.00  0.00    +0.000 A 
BRANCH  19  22
ATOM     22  C   UNL     1       3.329   4.719  17.650  0.00  0.00    +0.000 C 
ATOM     23  O   UNL     1       2.745   3.645  17.521  0.00  0.00    +0.000 OA
ATOM     24  N   UNL     1       4.530   5.010  17.031  0.00  0.00    +0.000 N 
ATOM     25  H   UNL     1       5.040   5.848  17.278  0.00  0.00    +0.000 HD
BRANCH  24  26
ATOM     26  C   UNL     1       5.170   4.049  16.187  0.00  0.00    +0.000 C 
ATOM     27  C   UNL     1       5.547   4.432  14.783  0.00  0.00    +0.000 C 
ATOM     28  C   UNL     1       6.617   4.170  15.801  0.00  0.00    +0.000 C 
ENDBRANCH  24  26
ENDBRANCH  19  22
ENDBRANCH   6  16
BRANCH   1  29
ATOM     29  S   UNL     1      -1.411  12.784  22.676  0.00  0.00    +0.000 S 
BRANCH  29  30
ATOM     30  C   UNL     1      -2.975  12.179  23.370  0.00  0.00    +0.000 C 
BRANCH  30  32
ATOM     31  C   UNL     1      -2.683  14.494  24.339  0.00  0.00    +0.000 C 
ATOM     32  C   UNL     1      -3.598  13.285  24.224  0.00  0.00    +0.000 C 
ENDBRANCH  30  32
ENDBRANCH  29  30
ENDBRANCH   1  29
TORSDOF 7
ENDMDL
MODEL 2
REMARK VINA RESULT:      -8.4      0.539      1.094
REMARK  Name = 
REMARK  8 active torsions:
REMARK  status: ('A' for Active; 'I' for Inactive)
REMARK    1  A    between atoms: C_1  and  C_2
REMARK    2  A    between atoms: C_2  and  C_3
REMARK    3  A    between atoms: C_3  and  S_4
REMARK    4  A    between atoms: S_4  and  C_5
REMARK    5  A    between atoms: C_7  and  C_8
REMARK    6  A    between atoms: C_16  and  C_17
REMARK    7  A    between atoms: C_20  and  C_21
REMARK    8  A    between atoms: N_23  and  C_24
REMARK                            x       y       z     vdW  Elec       q    Type
REMARK                         _______ _______ _______ _____ _____    ______ ____
ROOT
ATOM      1  C   UNL     1      -1.293  11.692  21.132  0.00  0.00    +0.000 A 
ATOM      2  N   UNL     1      -2.005  11.707  20.038  0.00  0.00    +0.000 NA
ATOM      3  C   UNL     1      -1.731  10.739  19.087  0.00  0.00    +0.000 A 
ATOM      4  C   UNL     1      -0.779   9.798  19.232  0.00  0.00    +0.000 A 
ATOM      5  N   UNL     1       0.005   9.800  20.374  0.00  0.00    +0.000 N 
ATOM      6  C   UNL     1       1.070   9.013  20.792  0.00  0.00    +0.000 A 
ATOM      7  C   UNL     1       1.348   9.496  22.063  0.00  0.00    +0.000 A 
ATOM      8  N   UNL     1       0.541  10.552  22.406  0.00  0.00    +0.000 NA
ATOM      9  C   UNL     1      -0.241  10.723  21.364  0.00  0.00    +0.000 A 
ENDROOT
BRANCH   3  10
ATOM     10  C   UNL     1      -2.512  10.718  17.839  0.00  0.00    +0.000 A 
ATOM     11  C   UNL     1      -2.063   9.972  16.743  0.00  0.00    +0.000 A 
ATOM     12  C   UNL     1      -2.755  10.016  15.530  0.00  0.00    +0.000 A 
ATOM     13  C   UNL     1      -3.898  10.804  15.405  0.00  0.00    +0.000 A 
ATOM     14  C   UNL     1      -4.357  11.544  16.494  0.00  0.00    +0.000 A 
ATOM     15  C   UNL     1      -3.666  11.502  17.708  0.00  0.00    +0.000 A 
ENDBRANCH   3  10
BRANCH   6  16
ATOM     16  C   UNL     1       1.695   7.926  20.030  0.00  0.00    +0.000 A 
ATOM     17  C   UNL     1       2.258   8.158  18.770  0.00  0.00    +0.000 A 
ATOM     18  C   UNL     1       2.782   7.112  18.011  0.00  0.00    +0.000 A 
ATOM     19  C   UNL     1       2.799   5.809  18.516  0.00  0.00    +0.000 A 
ATOM     20  C   UNL     1       2.307   5.570  19.803  0.00  0.00    +0.000 A 
ATOM     21  C   UNL     1       1.756   6.624  20.552  0.00  0.00    +0.000 A 
BRANCH  19  22
ATOM     22  C   UNL     1       3.393   4.752  17.652  0.00  0.00    +0.000 C 
ATOM     23  O   UNL     1       2.852   3.649  17.589  0.00  0.00    +0.000 OA
ATOM     24  N   UNL     1       4.567   5.062  16.993  0.00  0.00    +0.000 N 
ATOM     25  H   UNL     1       5.045   5.932  17.187  0.00  0.00    +0.000 HD
BRANCH  24  26
ATOM     26  C   UNL     1       5.229   4.089  16.180  0.00  0.00    +0.000 C 
ATOM     27  C   UNL     1       5.497   4.392  14.733  0.00  0.00    +0.000 C 
ATOM     28  C   UNL     1       6.639   4.284  15.699  0.00  0.00    +0.000 C 
ENDBRANCH  24  26
ENDBRANCH  19  22
ENDBRANCH   6  16
BRANCH   1  29
ATOM     29  S   UNL     1      -1.543  12.869  22.397  0.00  0.00    +0.000 S 
BRANCH  29  30
ATOM     30  C   UNL     1      -3.121  13.600  21.880  0.00  0.00    +0.000 C 
BRANCH  30  32
ATOM     31  C   UNL     1      -3.718  12.381  24.011  0.00  0.00    +0.000 C 
ATOM     32  C   UNL     1      -4.246  13.001  22.726  0.00  0.00    +0.000 C 
ENDBRANCH  30  32
ENDBRANCH  29  30
ENDBRANCH   1  29
TORSDOF 7
ENDMDL
MODEL 3
REMARK VINA RESULT:      -8.4      0.566      1.381
REMARK  Name = 
REMARK  8 active torsions:
REMARK  status: ('A' for Active; 'I' for Inactive)
REMARK    1  A    between atoms: C_1  and  C_2
REMARK    2  A    between atoms: C_2  and  C_3
REMARK    3  A    between atoms: C_3  and  S_4
REMARK    4  A    between atoms: S_4  and  C_5
REMARK    5  A    between atoms: C_7  and  C_8
REMARK    6  A    between atoms: C_16  and  C_17
REMARK    7  A    between atoms: C_20  and  C_21
REMARK    8  A    between atoms: N_23  and  C_24
REMARK                            x       y       z     vdW  Elec       q    Type
REMARK                         _______ _______ _______ _____ _____    ______ ____
ROOT
ATOM      1  C   UNL     1      -1.115  11.578  21.279  0.00  0.00    +0.000 A 
ATOM      2  N   UNL     1      -1.868  11.656  20.214  0.00  0.00    +0.000 NA
ATOM      3  C   UNL     1      -1.627  10.748  19.198  0.00  0.00    +0.000 A 
ATOM      4  C   UNL     1      -0.668   9.804  19.249  0.00  0.00    +0.000 A 
ATOM      5  N   UNL     1       0.159   9.741  20.359  0.00  0.00    +0.000 N 
ATOM      6  C   UNL     1       1.241   8.936  20.689  0.00  0.00    +0.000 A 
ATOM      7  C   UNL     1       1.565   9.344  21.975  0.00  0.00    +0.000 A 
ATOM      8  N   UNL     1       0.769  10.373  22.411  0.00  0.00    +0.000 NA
ATOM      9  C   UNL     1      -0.052  10.603  21.411  0.00  0.00    +0.000 A 
ENDROOT
BRANCH   3  10
ATOM     10  C   UNL     1      -2.455  10.798  17.981  0.00  0.00    +0.000 A 
ATOM     11  C   UNL     1      -1.999  10.206  16.797  0.00  0.00    +0.000 A 
ATOM     12  C   UNL     1      -2.741  10.323  15.620  0.00  0.00    +0.000 A 
ATOM     13  C   UNL     1      -3.941  11.032  15.617  0.00  0.00    +0.000 A 
ATOM     14  C   UNL     1      -4.408  11.619  16.792  0.00  0.00    +0.000 A 
ATOM     15  C   UNL     1      -3.666  11.504  17.972  0.00  0.00    +0.000 A 
ENDBRANCH   3  10
BRANCH   6  16
ATOM     16  C   UNL     1       1.839   7.900  19.840  0.00  0.00    +0.000 A 
ATOM     17  C   UNL     1       1.980   6.584  20.297  0.00  0.00    +0.000 A 
ATOM     18  C   UNL     1       2.619   5.617  19.522  0.00  0.00    +0.000 A 
ATOM     19  C   UNL     1       3.091   5.930  18.244  0.00  0.00    +0.000 A 
ATOM     20  C   UNL     1       2.894   7.220  17.742  0.00  0.00    +0.000 A 
ATOM     21  C   UNL     1       2.274   8.198  18.539  0.00  0.00    +0.000 A 
BRANCH  19  22
ATOM     22  C   UNL     1       3.744   4.837  17.473  0.00  0.00    +0.000 C 
ATOM     23  O   UNL     1       3.237   3.717  17.466  0.00  0.00    +0.000 OA
ATOM     24  N   UNL     1       4.931   5.139  16.833  0.00  0.00    +0.000 N 
ATOM     25  H   UNL     1       5.378   6.033  16.985  0.00  0.00    +0.000 HD
BRANCH  24  26
ATOM     26  C   UNL     1       5.648   4.135  16.110  0.00  0.00    +0.000 C 
ATOM     27  C   UNL     1       5.693   4.194  14.609  0.00  0.00    +0.000 C 
ATOM     28  C   UNL     1       6.940   4.434  15.406  0.00  0.00    +0.000 C 
ENDBRANCH  24  26
ENDBRANCH  19  22
ENDBRANCH   6  16
BRANCH   1  29
ATOM     29  S   UNL     1      -1.319  12.676  22.620  0.00  0.00    +0.000 S 
BRANCH  29  30
ATOM     30  C   UNL     1      -2.708  11.899  23.493  0.00  0.00    +0.000 C 
BRANCH  30  32
ATOM     31  C   UNL     1      -4.902  12.644  24.499  0.00  0.00    +0.000 C 
ATOM     32  C   UNL     1      -3.953  12.768  23.316  0.00  0.00    +0.000 C 
ENDBRANCH  30  32
ENDBRANCH  29  30
ENDBRANCH   1  29
TORSDOF 7
ENDMDL
MODEL 4
REMARK VINA RESULT:      -8.3      1.050      1.559
REMARK  Name = 
REMARK  8 active torsions:
REMARK  status: ('A' for Active; 'I' for Inactive)
REMARK    1  A    between atoms: C_1  and  C_2
REMARK    2  A    between atoms: C_2  and  C_3
REMARK    3  A    between atoms: C_3  and  S_4
REMARK    4  A    between atoms: S_4  and  C_5
REMARK    5  A    between atoms: C_7  and  C_8
REMARK    6  A    between atoms: C_16  and  C_17
REMARK    7  A    between atoms: C_20  and  C_21
REMARK    8  A    between atoms: N_23  and  C_24
REMARK                            x       y       z     vdW  Elec       q    Type
REMARK                         _______ _______ _______ _____ _____    ______ ____
ROOT
ATOM      1  C   UNL     1      -1.141  11.547  21.427  0.00  0.00    +0.000 A 
ATOM      2  N   UNL     1      -1.848  11.663  20.334  0.00  0.00    +0.000 NA
ATOM      3  C   UNL     1      -1.585  10.770  19.310  0.00  0.00    +0.000 A 
ATOM      4  C   UNL     1      -0.650   9.804  19.381  0.00  0.00    +0.000 A 
ATOM      5  N   UNL     1       0.129   9.700  20.523  0.00  0.00    +0.000 N 
ATOM      6  C   UNL     1       1.178   8.864  20.880  0.00  0.00    +0.000 A 
ATOM      7  C   UNL     1       1.458   9.238  22.186  0.00  0.00    +0.000 A 
ATOM      8  N   UNL     1       0.667  10.277  22.611  0.00  0.00    +0.000 NA
ATOM      9  C   UNL     1      -0.107  10.545  21.583  0.00  0.00    +0.000 A 
ENDROOT
BRANCH   3  10
ATOM     10  C   UNL     1      -2.360  10.863  18.061  0.00  0.00    +0.000 A 
ATOM     11  C   UNL     1      -3.565  11.575  18.035  0.00  0.00    +0.000 A 
ATOM     12  C   UNL     1      -4.346  11.597  16.877  0.00  0.00    +0.000 A 
ATOM     13  C   UNL     1      -3.928  10.908  15.739  0.00  0.00    +0.000 A 
ATOM     14  C   UNL     1      -2.726  10.202  15.753  0.00  0.00    +0.000 A 
ATOM     15  C   UNL     1      -1.943  10.178  16.912  0.00  0.00    +0.000 A 
ENDBRANCH   3  10
BRANCH   6  16
ATOM     16  C   UNL     1       1.788   7.832  20.035  0.00  0.00    +0.000 A 
ATOM     17  C   UNL     1       1.870   6.502  20.464  0.00  0.00    +0.000 A 
ATOM     18  C   UNL     1       2.518   5.535  19.697  0.00  0.00    +0.000 A 
ATOM     19  C   UNL     1       3.062   5.865  18.452  0.00  0.00    +0.000 A 
ATOM     20  C   UNL     1       2.926   7.172  17.974  0.00  0.00    +0.000 A 
ATOM     21  C   UNL     1       2.295   8.148  18.764  0.00  0.00    +0.000 A 
BRANCH  19  22
ATOM     22  C   UNL     1       3.721   4.772  17.686  0.00  0.00    +0.000 C 
ATOM     23  O   UNL     1       3.389   3.606  17.891  0.00  0.00    +0.000 OA
ATOM     24  N   UNL     1       4.720   5.135  16.803  0.00  0.00    +0.000 N 
ATOM     25  H   UNL     1       5.051   6.089  16.774  0.00  0.00    +0.000 HD
BRANCH  24  26
ATOM     26  C   UNL     1       5.437   4.144  16.062  0.00  0.00    +0.000 C 
ATOM     27  C   UNL     1       5.624   4.319  14.581  0.00  0.00    +0.000 C 
ATOM     28  C   UNL     1       6.805   4.408  15.501  0.00  0.00    +0.000 C 
ENDBRANCH  24  26
ENDBRANCH  19  22
ENDBRANCH   6  16
BRANCH   1  29
ATOM     29  S   UNL     1      -1.377  12.622  22.782  0.00  0.00    +0.000 S 
BRANCH  29  30
ATOM     30  C   UNL     1      -0.309  14.011  22.309  0.00  0.00    +0.000 C 
BRANCH  30  32
ATOM     31  C   UNL     1      -0.701  15.121  20.073  0.00  0.00    +0.000 C 
ATOM     32  C   UNL     1      -1.139  15.031  21.528  0.00  0.00    +0.000 C 
ENDBRANCH  30  32
ENDBRANCH  29  30
ENDBRANCH   1  29
TORSDOF 7
ENDMDL
MODEL 5
REMARK VINA RESULT:      -8.0      0.977      1.660
REMARK  Name = 
REMARK  8 active torsions:
REMARK  status: ('A' for Active; 'I' for Inactive)
REMARK    1  A    between atoms: C_1  and  C_2
REMARK    2  A    between atoms: C_2  and  C_3
REMARK    3  A    between atoms: C_3  and  S_4
REMARK    4  A    between atoms: S_4  and  C_5
REMARK    5  A    between atoms: C_7  and  C_8
REMARK    6  A    between atoms: C_16  and  C_17
REMARK    7  A    between atoms: C_20  and  C_21
REMARK    8  A    between atoms: N_23  and  C_24
REMARK                            x       y       z     vdW  Elec       q    Type
REMARK                         _______ _______ _______ _____ _____    ______ ____
ROOT
ATOM      1  C   UNL     1      -1.178  11.487  21.298  0.00  0.00    +0.000 A 
ATOM      2  N   UNL     1      -1.918  11.573  20.226  0.00  0.00    +0.000 NA
ATOM      3  C   UNL     1      -1.652  10.688  19.196  0.00  0.00    +0.000 A 
ATOM      4  C   UNL     1      -0.681   9.757  19.243  0.00  0.00    +0.000 A 
ATOM      5  N   UNL     1       0.133   9.685  20.362  0.00  0.00    +0.000 N 
ATOM      6  C   UNL     1       1.223   8.890  20.691  0.00  0.00    +0.000 A 
ATOM      7  C   UNL     1       1.525   9.278  21.988  0.00  0.00    +0.000 A 
ATOM      8  N   UNL     1       0.709  10.289  22.433  0.00  0.00    +0.000 NA
ATOM      9  C   UNL     1      -0.103  10.524  21.427  0.00  0.00    +0.000 A 
ENDROOT
BRANCH   3  10
ATOM     10  C   UNL     1      -2.465  10.748  17.970  0.00  0.00    +0.000 A 
ATOM     11  C   UNL     1      -2.018  10.124  16.799  0.00  0.00    +0.000 A 
ATOM     12  C   UNL     1      -2.743  10.249  15.613  0.00  0.00    +0.000 A 
ATOM     13  C   UNL     1      -3.918  10.998  15.587  0.00  0.00    +0.000 A 
ATOM     14  C   UNL     1      -4.376  11.617  16.749  0.00  0.00    +0.000 A 
ATOM     15  C   UNL     1      -3.652  11.494  17.938  0.00  0.00    +0.000 A 
ENDBRANCH   3  10
BRANCH   6  16
ATOM     16  C   UNL     1       1.846   7.877  19.831  0.00  0.00    +0.000 A 
ATOM     17  C   UNL     1       1.999   6.556  20.266  0.00  0.00    +0.000 A 
ATOM     18  C   UNL     1       2.661   5.611  19.482  0.00  0.00    +0.000 A 
ATOM     19  C   UNL     1       3.147   5.954  18.217  0.00  0.00    +0.000 A 
ATOM     20  C   UNL     1       2.938   7.251  17.736  0.00  0.00    +0.000 A 
ATOM     21  C   UNL     1       2.294   8.206  18.542  0.00  0.00    +0.000 A 
BRANCH  19  22
ATOM     22  C   UNL     1       3.824   4.885  17.435  0.00  0.00    +0.000 C 
ATOM     23  O   UNL     1       3.362   3.745  17.444  0.00  0.00    +0.000 OA
ATOM     24  N   UNL     1       4.982   5.231  16.766  0.00  0.00    +0.000 N 
ATOM     25  H   UNL     1       5.396   6.143  16.903  0.00  0.00    +0.000 HD
BRANCH  24  26
ATOM     26  C   UNL     1       5.722   4.253  16.029  0.00  0.00    +0.000 C 
ATOM     27  C   UNL     1       5.691   4.279  14.527  0.00  0.00    +0.000 C 
ATOM     28  C   UNL     1       6.959   4.610  15.256  0.00  0.00    +0.000 C 
ENDBRANCH  24  26
ENDBRANCH  19  22
ENDBRANCH   6  16
BRANCH   1  29
ATOM     29  S   UNL     1      -1.415  12.558  22.656  0.00  0.00    +0.000 S 
BRANCH  29  30
ATOM     30  C   UNL     1      -0.281  13.910  22.231  0.00  0.00    +0.000 C 
BRANCH  30  32
ATOM     31  C   UNL     1      -2.183  15.570  22.153  0.00  0.00    +0.000 C 
ATOM     32  C   UNL     1      -1.032  14.939  21.385  0.00  0.00    +0.000 C 
ENDBRANCH  30  32
ENDBRANCH  29  30
ENDBRANCH   1  29
TORSDOF 7
ENDMDL
MODEL 6
REMARK VINA RESULT:      -8.0      0.917      1.357
REMARK  Name = 
REMARK  8 active torsions:
REMARK  status: ('A' for Active; 'I' for Inactive)
REMARK    1  A    between atoms: C_1  and  C_2
REMARK    2  A    between atoms: C_2  and  C_3
REMARK    3  A    between atoms: C_3  and  S_4
REMARK    4  A    between atoms: S_4  and  C_5
REMARK    5  A    between atoms: C_7  and  C_8
REMARK    6  A    between atoms: C_16  and  C_17
REMARK    7  A    between atoms: C_20  and  C_21
REMARK    8  A    between atoms: N_23  and  C_24
REMARK                            x       y       z     vdW  Elec       q    Type
REMARK                         _______ _______ _______ _____ _____    ______ ____
ROOT
ATOM      1  C   UNL     1      -1.308  11.584  21.458  0.00  0.00    +0.000 A 
ATOM      2  N   UNL     1      -1.989  11.657  20.346  0.00  0.00    +0.000 NA
ATOM      3  C   UNL     1      -1.696  10.733  19.358  0.00  0.00    +0.000 A 
ATOM      4  C   UNL     1      -0.755   9.778  19.484  0.00  0.00    +0.000 A 
ATOM      5  N   UNL     1      -0.002   9.720  20.645  0.00  0.00    +0.000 N 
ATOM      6  C   UNL     1       1.046   8.906  21.054  0.00  0.00    +0.000 A 
ATOM      7  C   UNL     1       1.292   9.326  22.354  0.00  0.00    +0.000 A 
ATOM      8  N   UNL     1       0.483  10.371  22.725  0.00  0.00    +0.000 NA
ATOM      9  C   UNL     1      -0.269  10.597  21.671  0.00  0.00    +0.000 A 
ENDROOT
BRANCH   3  10
ATOM     10  C   UNL     1      -2.442  10.777  18.090  0.00  0.00    +0.000 A 
ATOM     11  C   UNL     1      -1.956  10.100  16.965  0.00  0.00    +0.000 A 
ATOM     12  C   UNL     1      -2.615  10.207  15.739  0.00  0.00    +0.000 A 
ATOM     13  C   UNL     1      -3.762  10.992  15.627  0.00  0.00    +0.000 A 
ATOM     14  C   UNL     1      -4.259  11.664  16.744  0.00  0.00    +0.000 A 
ATOM     15  C   UNL     1      -3.600  11.558  17.973  0.00  0.00    +0.000 A 
ENDBRANCH   3  10
BRANCH   6  16
ATOM     16  C   UNL     1       1.684   7.851  20.259  0.00  0.00    +0.000 A 
ATOM     17  C   UNL     1       2.235   8.127  19.002  0.00  0.00    +0.000 A 
ATOM     18  C   UNL     1       2.772   7.112  18.211  0.00  0.00    +0.000 A 
ATOM     19  C   UNL     1       2.814   5.795  18.680  0.00  0.00    +0.000 A 
ATOM     20  C   UNL     1       2.334   5.513  19.963  0.00  0.00    +0.000 A 
ATOM     21  C   UNL     1       1.770   6.536  20.744  0.00  0.00    +0.000 A 
BRANCH  19  22
ATOM     22  C   UNL     1       3.420   4.773  17.784  0.00  0.00    +0.000 C 
ATOM     23  O   UNL     1       3.136   3.587  17.941  0.00  0.00    +0.000 OA
ATOM     24  N   UNL     1       4.319   5.220  16.835  0.00  0.00    +0.000 N 
ATOM     25  H   UNL     1       4.625   6.184  16.838  0.00  0.00    +0.000 HD
BRANCH  24  26
ATOM     26  C   UNL     1       4.984   4.300  15.965  0.00  0.00    +0.000 C 
ATOM     27  C   UNL     1       5.828   4.825  14.838  0.00  0.00    +0.000 C 
ATOM     28  C   UNL     1       6.474   4.117  15.991  0.00  0.00    +0.000 C 
ENDBRANCH  24  26
ENDBRANCH  19  22
ENDBRANCH   6  16
BRANCH   1  29
ATOM     29  S   UNL     1      -1.584  12.702  22.770  0.00  0.00    +0.000 S 
BRANCH  29  30
ATOM     30  C   UNL     1      -0.963  14.245  22.044  0.00  0.00    +0.000 C 
BRANCH  30  32
ATOM     31  C   UNL     1      -3.160  14.991  21.044  0.00  0.00    +0.000 C 
ATOM     32  C   UNL     1      -2.079  15.290  22.072  0.00  0.00    +0.000 C 
ENDBRANCH  30  32
ENDBRANCH  29  30
ENDBRANCH   1  29
TORSDOF 7
ENDMDL
MODEL 7
REMARK VINA RESULT:      -7.7      1.618      2.062
REMARK  Name = 
REMARK  8 active torsions:
REMARK  status: ('A' for Active; 'I' for Inactive)
REMARK    1  A    between atoms: C_1  and  C_2
REMARK    2  A    between atoms: C_2  and  C_3
REMARK    3  A    between atoms: C_3  and  S_4
REMARK    4  A    between atoms: S_4  and  C_5
REMARK    5  A    between atoms: C_7  and  C_8
REMARK    6  A    between atoms: C_16  and  C_17
REMARK    7  A    between atoms: C_20  and  C_21
REMARK    8  A    between atoms: N_23  and  C_24
REMARK                            x       y       z     vdW  Elec       q    Type
REMARK                         _______ _______ _______ _____ _____    ______ ____
ROOT
ATOM      1  C   UNL     1      -1.581  12.431  20.496  0.00  0.00    +0.000 A 
ATOM      2  N   UNL     1      -2.243  12.244  19.385  0.00  0.00    +0.000 NA
ATOM      3  C   UNL     1      -1.954  11.104  18.656  0.00  0.00    +0.000 A 
ATOM      4  C   UNL     1      -1.037  10.191  19.028  0.00  0.00    +0.000 A 
ATOM      5  N   UNL     1      -0.304  10.402  20.185  0.00  0.00    +0.000 N 
ATOM      6  C   UNL     1       0.719   9.693  20.800  0.00  0.00    +0.000 A 
ATOM      7  C   UNL     1       0.953  10.411  21.964  0.00  0.00    +0.000 A 
ATOM      8  N   UNL     1       0.162  11.529  22.055  0.00  0.00    +0.000 NA
ATOM      9  C   UNL     1      -0.568  11.507  20.962  0.00  0.00    +0.000 A 
ENDROOT
BRANCH   3  10
ATOM     10  C   UNL     1      -2.679  10.853  17.400  0.00  0.00    +0.000 A 
ATOM     11  C   UNL     1      -2.135   9.999  16.434  0.00  0.00    +0.000 A 
ATOM     12  C   UNL     1      -2.777   9.823  15.206  0.00  0.00    +0.000 A 
ATOM     13  C   UNL     1      -3.966  10.500  14.935  0.00  0.00    +0.000 A 
ATOM     14  C   UNL     1      -4.520  11.347  15.894  0.00  0.00    +0.000 A 
ATOM     15  C   UNL     1      -3.879  11.525  17.124  0.00  0.00    +0.000 A 
ENDBRANCH   3  10
BRANCH   6  16
ATOM     16  C   UNL     1       1.346   8.466  20.296  0.00  0.00    +0.000 A 
ATOM     17  C   UNL     1       1.987   8.440  19.052  0.00  0.00    +0.000 A 
ATOM     18  C   UNL     1       2.515   7.257  18.537  0.00  0.00    +0.000 A 
ATOM     19  C   UNL     1       2.457   6.073  19.278  0.00  0.00    +0.000 A 
ATOM     20  C   UNL     1       1.884   6.096  20.555  0.00  0.00    +0.000 A 
ATOM     21  C   UNL     1       1.331   7.286  21.056  0.00  0.00    +0.000 A 
BRANCH  19  22
ATOM     22  C   UNL     1       3.059   4.857  18.668  0.00  0.00    +0.000 C 
ATOM     23  O   UNL     1       2.813   4.585  17.494  0.00  0.00    +0.000 OA
ATOM     24  N   UNL     1       3.841   4.063  19.484  0.00  0.00    +0.000 N 
ATOM     25  H   UNL     1       3.899   4.254  20.475  0.00  0.00    +0.000 HD
BRANCH  24  26
ATOM     26  C   UNL     1       4.420   2.851  18.991  0.00  0.00    +0.000 C 
ATOM     27  C   UNL     1       4.551   1.668  19.908  0.00  0.00    +0.000 C 
ATOM     28  C   UNL     1       3.596   1.618  18.752  0.00  0.00    +0.000 C 
ENDBRANCH  24  26
ENDBRANCH  19  22
ENDBRANCH   6  16
BRANCH   1  29
ATOM     29  S   UNL     1      -1.853  13.838  21.493  0.00  0.00    +0.000 S 
BRANCH  29  30
ATOM     30  C   UNL     1      -3.454  13.424  22.241  0.00  0.00    +0.000 C 
BRANCH  30  32
ATOM     31  C   UNL     1      -4.129  12.536  24.508  0.00  0.00    +0.000 C 
ATOM     32  C   UNL     1      -3.243  12.330  23.289  0.00  0.00    +0.000 C 
ENDBRANCH  30  32
ENDBRANCH  29  30
ENDBRANCH   1  29
TORSDOF 7
ENDMDL
MODEL 8
REMARK VINA RESULT:      -7.5      1.523      1.726
REMARK  Name = 
REMARK  8 active torsions:
REMARK  status: ('A' for Active; 'I' for Inactive)
REMARK    1  A    between atoms: C_1  and  C_2
REMARK    2  A    between atoms: C_2  and  C_3
REMARK    3  A    between atoms: C_3  and  S_4
REMARK    4  A    between atoms: S_4  and  C_5
REMARK    5  A    between atoms: C_7  and  C_8
REMARK    6  A    between atoms: C_16  and  C_17
REMARK    7  A    between atoms: C_20  and  C_21
REMARK    8  A    between atoms: N_23  and  C_24
REMARK                            x       y       z     vdW  Elec       q    Type
REMARK                         _______ _______ _______ _____ _____    ______ ____
ROOT
ATOM      1  C   UNL     1      -1.755  12.155  21.088  0.00  0.00    +0.000 A 
ATOM      2  N   UNL     1      -2.351  12.102  19.928  0.00  0.00    +0.000 NA
ATOM      3  C   UNL     1      -1.991  11.075  19.073  0.00  0.00    +0.000 A 
ATOM      4  C   UNL     1      -1.069  10.141  19.374  0.00  0.00    +0.000 A 
ATOM      5  N   UNL     1      -0.405  10.214  20.588  0.00  0.00    +0.000 N 
ATOM      6  C   UNL     1       0.604   9.452  21.162  0.00  0.00    +0.000 A 
ATOM      7  C   UNL     1       0.755  10.015  22.422  0.00  0.00    +0.000 A 
ATOM      8  N   UNL     1      -0.072  11.093  22.613  0.00  0.00    +0.000 NA
ATOM      9  C   UNL     1      -0.742  11.200  21.487  0.00  0.00    +0.000 A 
ENDROOT
BRANCH   3  10
ATOM     10  C   UNL     1      -2.641  10.976  17.756  0.00  0.00    +0.000 A 
ATOM     11  C   UNL     1      -3.873  11.603  17.532  0.00  0.00    +0.000 A 
ATOM     12  C   UNL     1      -4.533  11.443  16.312  0.00  0.00    +0.000 A 
ATOM     13  C   UNL     1      -3.969  10.657  15.309  0.00  0.00    +0.000 A 
ATOM     14  C   UNL     1      -2.738  10.036  15.519  0.00  0.00    +0.000 A 
ATOM     15  C   UNL     1      -2.075  10.194  16.740  0.00  0.00    +0.000 A 
ENDBRANCH   3  10
BRANCH   6  16
ATOM     16  C   UNL     1       1.292   8.316  20.539  0.00  0.00    +0.000 A 
ATOM     17  C   UNL     1       1.967   8.460  19.321  0.00  0.00    +0.000 A 
ATOM     18  C   UNL     1       2.555   7.365  18.688  0.00  0.00    +0.000 A 
ATOM     19  C   UNL     1       2.524   6.101  19.285  0.00  0.00    +0.000 A 
ATOM     20  C   UNL     1       1.917   5.953  20.536  0.00  0.00    +0.000 A 
ATOM     21  C   UNL     1       1.304   7.055  21.156  0.00  0.00    +0.000 A 
BRANCH  19  22
ATOM     22  C   UNL     1       3.190   4.988  18.556  0.00  0.00    +0.000 C 
ATOM     23  O   UNL     1       3.315   5.055  17.334  0.00  0.00    +0.000 OA
ATOM     24  N   UNL     1       3.599   3.901  19.303  0.00  0.00    +0.000 N 
ATOM     25  H   UNL     1       3.349   3.832  20.280  0.00  0.00    +0.000 HD
BRANCH  24  26
ATOM     26  C   UNL     1       4.205   2.767  18.675  0.00  0.00    +0.000 C 
ATOM     27  C   UNL     1       4.167   1.432  19.364  0.00  0.00    +0.000 C 
ATOM     28  C   UNL     1       3.387   1.646  18.101  0.00  0.00    +0.000 C 
ENDBRANCH  24  26
ENDBRANCH  19  22
ENDBRANCH   6  16
BRANCH   1  29
ATOM     29  S   UNL     1      -2.121  13.412  22.244  0.00  0.00    +0.000 S 
BRANCH  29  30
ATOM     30  C   UNL     1      -3.242  12.531  23.367  0.00  0.00    +0.000 C 
BRANCH  30  32
ATOM     31  C   UNL     1      -4.868  14.461  23.475  0.00  0.00    +0.000 C 
ATOM     32  C   UNL     1      -4.674  12.999  23.104  0.00  0.00    +0.000 C 
ENDBRANCH  30  32
ENDBRANCH  29  30
ENDBRANCH   1  29
TORSDOF 7
ENDMDL
MODEL 9
REMARK VINA RESULT:      -7.5      1.567      2.307
REMARK  Name = 
REMARK  8 active torsions:
REMARK  status: ('A' for Active; 'I' for Inactive)
REMARK    1  A    between atoms: C_1  and  C_2
REMARK    2  A    between atoms: C_2  and  C_3
REMARK    3  A    between atoms: C_3  and  S_4
REMARK    4  A    between atoms: S_4  and  C_5
REMARK    5  A    between atoms: C_7  and  C_8
REMARK    6  A    between atoms: C_16  and  C_17
REMARK    7  A    between atoms: C_20  and  C_21
REMARK    8  A    between atoms: N_23  and  C_24
REMARK                            x       y       z     vdW  Elec       q    Type
REMARK                         _______ _______ _______ _____ _____    ______ ____
ROOT
ATOM      1  C   UNL     1      -1.686  12.193  20.753  0.00  0.00    +0.000 A 
ATOM      2  N   UNL     1      -2.356  12.081  19.638  0.00  0.00    +0.000 NA
ATOM      3  C   UNL     1      -2.014  11.041  18.792  0.00  0.00    +0.000 A 
ATOM      4  C   UNL     1      -1.036  10.153  19.055  0.00  0.00    +0.000 A 
ATOM      5  N   UNL     1      -0.296  10.290  20.218  0.00  0.00    +0.000 N 
ATOM      6  C   UNL     1       0.779   9.586  20.744  0.00  0.00    +0.000 A 
ATOM      7  C   UNL     1       0.993  10.194  21.973  0.00  0.00    +0.000 A 
ATOM      8  N   UNL     1       0.138  11.246  22.189  0.00  0.00    +0.000 NA
ATOM      9  C   UNL     1      -0.610  11.291  21.109  0.00  0.00    +0.000 A 
ENDROOT
BRANCH   3  10
ATOM     10  C   UNL     1      -2.747  10.876  17.525  0.00  0.00    +0.000 A 
ATOM     11  C   UNL     1      -2.223  10.065  16.512  0.00  0.00    +0.000 A 
ATOM     12  C   UNL     1      -2.871   9.972  15.278  0.00  0.00    +0.000 A 
ATOM     13  C   UNL     1      -4.045  10.688  15.049  0.00  0.00    +0.000 A 
ATOM     14  C   UNL     1      -4.579  11.492  16.055  0.00  0.00    +0.000 A 
ATOM     15  C   UNL     1      -3.931  11.588  17.290  0.00  0.00    +0.000 A 
ENDBRANCH   3  10
BRANCH   6  16
ATOM     16  C   UNL     1       1.469   8.458  20.108  0.00  0.00    +0.000 A 
ATOM     17  C   UNL     1       1.588   7.224  20.759  0.00  0.00    +0.000 A 
ATOM     18  C   UNL     1       2.310   6.175  20.190  0.00  0.00    +0.000 A 
ATOM     19  C   UNL     1       2.893   6.319  18.928  0.00  0.00    +0.000 A 
ATOM     20  C   UNL     1       2.723   7.520  18.231  0.00  0.00    +0.000 A 
ATOM     21  C   UNL     1       2.017   8.582  18.822  0.00  0.00    +0.000 A 
BRANCH  19  22
ATOM     22  C   UNL     1       3.630   5.147  18.382  0.00  0.00    +0.000 C 
ATOM     23  O   UNL     1       4.213   5.249  17.304  0.00  0.00    +0.000 OA
ATOM     24  N   UNL     1       3.579   3.975  19.111  0.00  0.00    +0.000 N 
ATOM     25  H   UNL     1       2.973   3.903  19.917  0.00  0.00    +0.000 HD
BRANCH  24  26
ATOM     26  C   UNL     1       4.220   2.788  18.635  0.00  0.00    +0.000 C 
ATOM     27  C   UNL     1       4.337   1.595  19.542  0.00  0.00    +0.000 C 
ATOM     28  C   UNL     1       3.448   1.534  18.335  0.00  0.00    +0.000 C 
ENDBRANCH  24  26
ENDBRANCH  19  22
ENDBRANCH   6  16
BRANCH   1  29
ATOM     29  S   UNL     1      -2.022  13.472  21.893  0.00  0.00    +0.000 S 
BRANCH  29  30
ATOM     30  C   UNL     1      -3.596  12.902  22.594  0.00  0.00    +0.000 C 
BRANCH  30  32
ATOM     31  C   UNL     1      -5.880  12.620  21.552  0.00  0.00    +0.000 C 
ATOM     32  C   UNL     1      -4.746  13.587  21.854  0.00  0.00    +0.000 C 
ENDBRANCH  30  32
ENDBRANCH  29  30
ENDBRANCH   1  29
TORSDOF 7
ENDMDL
