MODEL 1
REMARK VINA RESULT:      -9.0      0.000      0.000
REMARK  Name = 
REMARK  5 active torsions:
REMARK  status: ('A' for Active; 'I' for Inactive)
REMARK    1  A    between atoms: C_4  and  C_5
REMARK    2  A    between atoms: C_13  and  C_14
REMARK    3  A    between atoms: C_16  and  C_17
REMARK    4  A    between atoms: C_16  and  C_23
REMARK    5  A    between atoms: C_17  and  N_18
REMARK                            x       y       z     vdW  Elec       q    Type
REMARK                         _______ _______ _______ _____ _____    ______ ____
ROOT
ATOM      1  C   UNL     1       2.540   5.624  18.670  0.00  0.00    +0.000 C 
ATOM      2  N   UNL     1       3.572   4.961  19.066  0.00  0.00    +0.000 NA
ATOM      3  C   UNL     1       3.761   3.900  18.040  0.00  0.00    +0.000 C 
ATOM      4  C   UNL     1       2.460   3.974  17.218  0.00  0.00    +0.000 C 
ATOM      5  O   UNL     1       1.871   5.225  17.567  0.00  0.00    +0.000 OA
ENDROOT
BRANCH   1  12
ATOM      6  F   UNL     1       1.696   5.839  21.385  0.00  0.00    +0.000 F 
ATOM      7  C   UNL     1       1.649   6.921  20.594  0.00  0.00    +0.000 A 
ATOM      8  C   UNL     1       1.191   8.120  21.136  0.00  0.00    +0.000 A 
ATOM      9  C   UNL     1       1.151   9.304  20.372  0.00  0.00    +0.000 A 
ATOM     10  C   UNL     1       1.603   9.229  19.041  0.00  0.00    +0.000 A 
ATOM     11  C   UNL     1       2.059   8.024  18.495  0.00  0.00    +0.000 A 
ATOM     12  C   UNL     1       2.071   6.865  19.275  0.00  0.00    +0.000 A 
BRANCH   9  13
ATOM     13  C   UNL     1       0.638  10.567  20.948  0.00  0.00    +0.000 A 
ATOM     14  C   UNL     1      -0.278  10.565  22.016  0.00  0.00    +0.000 A 
ATOM     15  C   UNL     1      -0.810  11.752  22.527  0.00  0.00    +0.000 A 
ATOM     16  C   UNL     1      -0.419  12.976  21.993  0.00  0.00    +0.000 A 
ATOM     17  C   UNL     1       0.504  13.011  20.954  0.00  0.00    +0.000 A 
ATOM     18  C   UNL     1       1.022  11.820  20.435  0.00  0.00    +0.000 A 
ENDBRANCH   9  13
ENDBRANCH   1  12
BRANCH   3  19
ATOM     19  C   UNL     1       4.972   4.214  17.148  0.00  0.00    +0.000 A 
ATOM     20  C   UNL     1       4.876   4.270  15.747  0.00  0.00    +0.000 A 
ATOM     21  C   UNL     1       6.001   4.529  14.959  0.00  0.00    +0.000 A 
ATOM     22  C   UNL     1       7.240   4.760  15.551  0.00  0.00    +0.000 A 
ATOM     23  C   UNL     1       7.354   4.743  16.935  0.00  0.00    +0.000 A 
ATOM     24  C   UNL     1       6.232   4.480  17.722  0.00  0.00    +0.000 A 
ENDBRANCH   3  19
BRANCH   3  25
ATOM     25  C   UNL     1       3.823   2.542  18.781  0.00  0.00    +0.000 C 
BRANCH  25  26
ATOM     26  N   UNL     1       3.036   2.469  19.994  0.00  0.00    +0.000 N 
ATOM     27  C   UNL     1       3.459   2.585  21.283  0.00  0.00    +0.000 A 
ATOM     28  N   UNL     1       2.420   2.585  22.090  0.00  0.00    +0.000 NA
ATOM     29  C   UNL     1       1.368   2.481  21.228  0.00  0.00    +0.000 A 
ATOM     30  N   UNL     1       1.689   2.431  19.933  0.00  0.00    +0.000 NA
ENDBRANCH  25  26
ENDBRANCH   3  25
TORSDOF 5
ENDMDL
MODEL 2
REMARK VINA RESULT:      -9.0      0.914      1.268
REMARK  Name = 
REMARK  5 active torsions:
REMARK  status: ('A' for Active; 'I' for Inactive)
REMARK    1  A    between atoms: C_4  and  C_5
REMARK    2  A    between atoms: C_13  and  C_14
REMARK    3  A    between atoms: C_16  and  C_17
REMARK    4  A    between atoms: C_16  and  C_23
REMARK    5  A    between atoms: C_17  and  N_18
REMARK                            x       y       z     vdW  Elec       q    Type
REMARK                         _______ _______ _______ _____ _____    ______ ____
ROOT
ATOM      1  C   UNL     1       2.535   5.792  18.826  0.00  0.00    +0.000 C 
ATOM      2  N   UNL     1       3.570   5.166  19.271  0.00  0.00    +0.000 NA
ATOM      3  C   UNL     1       3.790   4.056  18.305  0.00  0.00    +0.000 C 
ATOM      4  C   UNL     1       2.502   4.067  17.461  0.00  0.00    +0.000 C 
ATOM      5  O   UNL     1       1.889   5.325  17.735  0.00  0.00    +0.000 OA
ENDROOT
BRANCH   1  12
ATOM      6  F   UNL     1       2.442   8.214  17.325  0.00  0.00    +0.000 F 
ATOM      7  C   UNL     1       2.029   8.215  18.601  0.00  0.00    +0.000 A 
ATOM      8  C   UNL     1       1.561   9.408  19.147  0.00  0.00    +0.000 A 
ATOM      9  C   UNL     1       1.077   9.472  20.468  0.00  0.00    +0.000 A 
ATOM     10  C   UNL     1       1.075   8.277  21.213  0.00  0.00    +0.000 A 
ATOM     11  C   UNL     1       1.548   7.080  20.668  0.00  0.00    +0.000 A 
ATOM     12  C   UNL     1       2.037   7.054  19.358  0.00  0.00    +0.000 A 
BRANCH   9  13
ATOM     13  C   UNL     1       0.606  10.750  21.049  0.00  0.00    +0.000 A 
ATOM     14  C   UNL     1      -0.373  10.776  22.060  0.00  0.00    +0.000 A 
ATOM     15  C   UNL     1      -0.863  11.981  22.572  0.00  0.00    +0.000 A 
ATOM     16  C   UNL     1      -0.367  13.191  22.099  0.00  0.00    +0.000 A 
ATOM     17  C   UNL     1       0.619  13.196  21.118  0.00  0.00    +0.000 A 
ATOM     18  C   UNL     1       1.095  11.989  20.598  0.00  0.00    +0.000 A 
ENDBRANCH   9  13
ENDBRANCH   1  12
BRANCH   3  19
ATOM     19  C   UNL     1       5.010   4.343  17.416  0.00  0.00    +0.000 A 
ATOM     20  C   UNL     1       4.928   4.359  16.013  0.00  0.00    +0.000 A 
ATOM     21  C   UNL     1       6.061   4.593  15.228  0.00  0.00    +0.000 A 
ATOM     22  C   UNL     1       7.295   4.839  15.825  0.00  0.00    +0.000 A 
ATOM     23  C   UNL     1       7.395   4.862  17.210  0.00  0.00    +0.000 A 
ATOM     24  C   UNL     1       6.266   4.624  17.993  0.00  0.00    +0.000 A 
ENDBRANCH   3  19
BRANCH   3  25
ATOM     25  C   UNL     1       3.861   2.740  19.116  0.00  0.00    +0.000 C 
BRANCH  25  26
ATOM     26  N   UNL     1       2.879   2.617  20.172  0.00  0.00    +0.000 N 
ATOM     27  C   UNL     1       3.070   2.705  21.517  0.00  0.00    +0.000 A 
ATOM     28  N   UNL     1       1.908   2.662  22.132  0.00  0.00    +0.000 NA
ATOM     29  C   UNL     1       1.023   2.562  21.099  0.00  0.00    +0.000 A 
ATOM     30  N   UNL     1       1.563   2.555  19.878  0.00  0.00    +0.000 NA
ENDBRANCH  25  26
ENDBRANCH   3  25
TORSDOF 5
ENDMDL
MODEL 3
REMARK VINA RESULT:      -8.9      1.086      1.541
REMARK  Name = 
REMARK  5 active torsions:
REMARK  status: ('A' for Active; 'I' for Inactive)
REMARK    1  A    between atoms: C_4  and  C_5
REMARK    2  A    between atoms: C_13  and  C_14
REMARK    3  A    between atoms: C_16  and  C_17
REMARK    4  A    between atoms: C_16  and  C_23
REMARK    5  A    between atoms: C_17  and  N_18
REMARK                            x       y       z     vdW  Elec       q    Type
REMARK                         _______ _______ _______ _____ _____    ______ ____
ROOT
ATOM      1  C   UNL     1       2.724   6.171  18.576  0.00  0.00    +0.000 C 
ATOM      2  N   UNL     1       3.838   5.729  19.049  0.00  0.00    +0.000 NA
ATOM      3  C   UNL     1       4.029   4.403  18.402  0.00  0.00    +0.000 C 
ATOM      4  C   UNL     1       2.662   4.135  17.745  0.00  0.00    +0.000 C 
ATOM      5  O   UNL     1       2.000   5.398  17.737  0.00  0.00    +0.000 OA
ENDROOT
BRANCH   1  12
ATOM      6  F   UNL     1       1.531   7.018  21.022  0.00  0.00    +0.000 F 
ATOM      7  C   UNL     1       1.611   7.878  19.998  0.00  0.00    +0.000 A 
ATOM      8  C   UNL     1       1.109   9.167  20.172  0.00  0.00    +0.000 A 
ATOM      9  C   UNL     1       1.195  10.133  19.150  0.00  0.00    +0.000 A 
ATOM     10  C   UNL     1       1.819   9.748  17.948  0.00  0.00    +0.000 A 
ATOM     11  C   UNL     1       2.319   8.454  17.771  0.00  0.00    +0.000 A 
ATOM     12  C   UNL     1       2.203   7.514  18.799  0.00  0.00    +0.000 A 
BRANCH   9  13
ATOM     13  C   UNL     1       0.636  11.491  19.334  0.00  0.00    +0.000 A 
ATOM     14  C   UNL     1      -0.497  11.712  20.140  0.00  0.00    +0.000 A 
ATOM     15  C   UNL     1      -1.064  12.983  20.272  0.00  0.00    +0.000 A 
ATOM     16  C   UNL     1      -0.496  14.070  19.617  0.00  0.00    +0.000 A 
ATOM     17  C   UNL     1       0.639  13.887  18.834  0.00  0.00    +0.000 A 
ATOM     18  C   UNL     1       1.194  12.612  18.692  0.00  0.00    +0.000 A 
ENDBRANCH   9  13
ENDBRANCH   1  12
BRANCH   3  19
ATOM     19  C   UNL     1       5.129   4.473  17.331  0.00  0.00    +0.000 A 
ATOM     20  C   UNL     1       6.484   4.652  17.660  0.00  0.00    +0.000 A 
ATOM     21  C   UNL     1       7.460   4.742  16.663  0.00  0.00    +0.000 A 
ATOM     22  C   UNL     1       7.109   4.633  15.319  0.00  0.00    +0.000 A 
ATOM     23  C   UNL     1       5.782   4.420  14.971  0.00  0.00    +0.000 A 
ATOM     24  C   UNL     1       4.807   4.336  15.966  0.00  0.00    +0.000 A 
ENDBRANCH   3  19
BRANCH   3  25
ATOM     25  C   UNL     1       4.270   3.367  19.527  0.00  0.00    +0.000 C 
BRANCH  25  26
ATOM     26  N   UNL     1       3.115   3.079  20.352  0.00  0.00    +0.000 N 
ATOM     27  C   UNL     1       2.740   3.675  21.517  0.00  0.00    +0.000 A 
ATOM     28  N   UNL     1       1.567   3.213  21.891  0.00  0.00    +0.000 NA
ATOM     29  C   UNL     1       1.256   2.334  20.895  0.00  0.00    +0.000 A 
ATOM     30  N   UNL     1       2.159   2.233  19.916  0.00  0.00    +0.000 NA
ENDBRANCH  25  26
ENDBRANCH   3  25
TORSDOF 5
ENDMDL
MODEL 4
REMARK VINA RESULT:      -8.9      1.092      1.540
REMARK  Name = 
REMARK  5 active torsions:
REMARK  status: ('A' for Active; 'I' for Inactive)
REMARK    1  A    between atoms: C_4  and  C_5
REMARK    2  A    between atoms: C_13  and  C_14
REMARK    3  A    between atoms: C_16  and  C_17
REMARK    4  A    between atoms: C_16  and  C_23
REMARK    5  A    between atoms: C_17  and  N_18
REMARK                            x       y       z     vdW  Elec       q    Type
REMARK                         _______ _______ _______ _____ _____    ______ ____
ROOT
ATOM      1  C   UNL     1       2.702   6.192  18.574  0.00  0.00    +0.000 C 
ATOM      2  N   UNL     1       3.825   5.760  19.036  0.00  0.00    +0.000 NA
ATOM      3  C   UNL     1       4.012   4.427  18.399  0.00  0.00    +0.000 C 
ATOM      4  C   UNL     1       2.637   4.147  17.765  0.00  0.00    +0.000 C 
ATOM      5  O   UNL     1       1.969   5.408  17.754  0.00  0.00    +0.000 OA
ENDROOT
BRANCH   1  12
ATOM      6  F   UNL     1       1.552   7.062  21.033  0.00  0.00    +0.000 F 
ATOM      7  C   UNL     1       1.608   7.911  19.997  0.00  0.00    +0.000 A 
ATOM      8  C   UNL     1       1.103   9.199  20.165  0.00  0.00    +0.000 A 
ATOM      9  C   UNL     1       1.164  10.153  19.130  0.00  0.00    +0.000 A 
ATOM     10  C   UNL     1       1.767   9.757  17.921  0.00  0.00    +0.000 A 
ATOM     11  C   UNL     1       2.270   8.463  17.750  0.00  0.00    +0.000 A 
ATOM     12  C   UNL     1       2.179   7.535  18.791  0.00  0.00    +0.000 A 
BRANCH   9  13
ATOM     13  C   UNL     1       0.602  11.511  19.309  0.00  0.00    +0.000 A 
ATOM     14  C   UNL     1       1.196  12.634  18.703  0.00  0.00    +0.000 A 
ATOM     15  C   UNL     1       0.703  13.925  18.914  0.00  0.00    +0.000 A 
ATOM     16  C   UNL     1      -0.413  14.121  19.720  0.00  0.00    +0.000 A 
ATOM     17  C   UNL     1      -1.036  13.028  20.311  0.00  0.00    +0.000 A 
ATOM     18  C   UNL     1      -0.532  11.740  20.111  0.00  0.00    +0.000 A 
ENDBRANCH   9  13
ENDBRANCH   1  12
BRANCH   3  19
ATOM     19  C   UNL     1       5.096   4.491  17.312  0.00  0.00    +0.000 A 
ATOM     20  C   UNL     1       4.792   4.378  15.945  0.00  0.00    +0.000 A 
ATOM     21  C   UNL     1       5.803   4.409  14.979  0.00  0.00    +0.000 A 
ATOM     22  C   UNL     1       7.133   4.576  15.354  0.00  0.00    +0.000 A 
ATOM     23  C   UNL     1       7.455   4.725  16.696  0.00  0.00    +0.000 A 
ATOM     24  C   UNL     1       6.448   4.689  17.661  0.00  0.00    +0.000 A 
ENDBRANCH   3  19
BRANCH   3  25
ATOM     25  C   UNL     1       4.273   3.404  19.531  0.00  0.00    +0.000 C 
BRANCH  25  26
ATOM     26  N   UNL     1       3.126   3.102  20.361  0.00  0.00    +0.000 N 
ATOM     27  C   UNL     1       2.740   3.705  21.519  0.00  0.00    +0.000 A 
ATOM     28  N   UNL     1       1.577   3.224  21.901  0.00  0.00    +0.000 NA
ATOM     29  C   UNL     1       1.283   2.326  20.917  0.00  0.00    +0.000 A 
ATOM     30  N   UNL     1       2.187   2.231  19.938  0.00  0.00    +0.000 NA
ENDBRANCH  25  26
ENDBRANCH   3  25
TORSDOF 5
ENDMDL
MODEL 5
REMARK VINA RESULT:      -8.8      1.008      1.786
REMARK  Name = 
REMARK  5 active torsions:
REMARK  status: ('A' for Active; 'I' for Inactive)
REMARK    1  A    between atoms: C_4  and  C_5
REMARK    2  A    between atoms: C_13  and  C_14
REMARK    3  A    between atoms: C_16  and  C_17
REMARK    4  A    between atoms: C_16  and  C_23
REMARK    5  A    between atoms: C_17  and  N_18
REMARK                            x       y       z     vdW  Elec       q    Type
REMARK                         _______ _______ _______ _____ _____    ______ ____
ROOT
ATOM      1  C   UNL     1       2.567   5.965  18.898  0.00  0.00    +0.000 C 
ATOM      2  N   UNL     1       3.642   5.397  19.325  0.00  0.00    +0.000 NA
ATOM      3  C   UNL     1       3.891   4.283  18.371  0.00  0.00    +0.000 C 
ATOM      4  C   UNL     1       2.583   4.218  17.561  0.00  0.00    +0.000 C 
ATOM      5  O   UNL     1       1.917   5.450  17.832  0.00  0.00    +0.000 OA
ENDROOT
BRANCH   1  12
ATOM      6  F   UNL     1       2.375   8.371  17.379  0.00  0.00    +0.000 F 
ATOM      7  C   UNL     1       1.968   8.365  18.656  0.00  0.00    +0.000 A 
ATOM      8  C   UNL     1       1.456   9.544  19.195  0.00  0.00    +0.000 A 
ATOM      9  C   UNL     1       0.974   9.599  20.518  0.00  0.00    +0.000 A 
ATOM     10  C   UNL     1       1.021   8.410  21.272  0.00  0.00    +0.000 A 
ATOM     11  C   UNL     1       1.538   7.228  20.733  0.00  0.00    +0.000 A 
ATOM     12  C   UNL     1       2.023   7.212  19.422  0.00  0.00    +0.000 A 
BRANCH   9  13
ATOM     13  C   UNL     1       0.457  10.862  21.091  0.00  0.00    +0.000 A 
ATOM     14  C   UNL     1       0.938  12.111  20.659  0.00  0.00    +0.000 A 
ATOM     15  C   UNL     1       0.495  13.305  21.236  0.00  0.00    +0.000 A 
ATOM     16  C   UNL     1      -0.460  13.278  22.246  0.00  0.00    +0.000 A 
ATOM     17  C   UNL     1      -0.973  12.058  22.676  0.00  0.00    +0.000 A 
ATOM     18  C   UNL     1      -0.516  10.866  22.108  0.00  0.00    +0.000 A 
ENDBRANCH   9  13
ENDBRANCH   1  12
BRANCH   3  19
ATOM     19  C   UNL     1       5.073   4.612  17.446  0.00  0.00    +0.000 A 
ATOM     20  C   UNL     1       6.088   5.510  17.819  0.00  0.00    +0.000 A 
ATOM     21  C   UNL     1       7.136   5.814  16.945  0.00  0.00    +0.000 A 
ATOM     22  C   UNL     1       7.207   5.213  15.691  0.00  0.00    +0.000 A 
ATOM     23  C   UNL     1       6.235   4.296  15.314  0.00  0.00    +0.000 A 
ATOM     24  C   UNL     1       5.186   3.996  16.183  0.00  0.00    +0.000 A 
ENDBRANCH   3  19
BRANCH   3  25
ATOM     25  C   UNL     1       4.046   2.986  19.201  0.00  0.00    +0.000 C 
BRANCH  25  26
ATOM     26  N   UNL     1       2.986   2.739  20.156  0.00  0.00    +0.000 N 
ATOM     27  C   UNL     1       3.038   2.820  21.515  0.00  0.00    +0.000 A 
ATOM     28  N   UNL     1       1.834   2.642  22.014  0.00  0.00    +0.000 NA
ATOM     29  C   UNL     1       1.067   2.470  20.899  0.00  0.00    +0.000 A 
ATOM     30  N   UNL     1       1.719   2.544  19.736  0.00  0.00    +0.000 NA
ENDBRANCH  25  26
ENDBRANCH   3  25
TORSDOF 5
ENDMDL
MODEL 6
REMARK VINA RESULT:      -8.8      1.834      2.399
REMARK  Name = 
REMARK  5 active torsions:
REMARK  status: ('A' for Active; 'I' for Inactive)
REMARK    1  A    between atoms: C_4  and  C_5
REMARK    2  A    between atoms: C_13  and  C_14
REMARK    3  A    between atoms: C_16  and  C_17
REMARK    4  A    between atoms: C_16  and  C_23
REMARK    5  A    between atoms: C_17  and  N_18
REMARK                            x       y       z     vdW  Elec       q    Type
REMARK                         _______ _______ _______ _____ _____    ______ ____
ROOT
ATOM      1  C   UNL     1       2.560   6.671  19.155  0.00  0.00    +0.000 C 
ATOM      2  N   UNL     1       3.412   6.003  19.856  0.00  0.00    +0.000 NA
ATOM      3  C   UNL     1       4.143   5.163  18.869  0.00  0.00    +0.000 C 
ATOM      4  C   UNL     1       3.302   5.317  17.588  0.00  0.00    +0.000 C 
ATOM      5  O   UNL     1       2.465   6.447  17.827  0.00  0.00    +0.000 OA
ENDROOT
BRANCH   1  12
ATOM      6  F   UNL     1       1.943   9.034  17.685  0.00  0.00    +0.000 F 
ATOM      7  C   UNL     1       1.469   8.893  18.931  0.00  0.00    +0.000 A 
ATOM      8  C   UNL     1       0.681   9.911  19.462  0.00  0.00    +0.000 A 
ATOM      9  C   UNL     1       0.119   9.811  20.750  0.00  0.00    +0.000 A 
ATOM     10  C   UNL     1       0.377   8.633  21.477  0.00  0.00    +0.000 A 
ATOM     11  C   UNL     1       1.171   7.611  20.947  0.00  0.00    +0.000 A 
ATOM     12  C   UNL     1       1.727   7.750  19.672  0.00  0.00    +0.000 A 
BRANCH   9  13
ATOM     13  C   UNL     1      -0.696  10.910  21.317  0.00  0.00    +0.000 A 
ATOM     14  C   UNL     1      -0.927  11.009  22.702  0.00  0.00    +0.000 A 
ATOM     15  C   UNL     1      -1.742  12.011  23.237  0.00  0.00    +0.000 A 
ATOM     16  C   UNL     1      -2.328  12.953  22.399  0.00  0.00    +0.000 A 
ATOM     17  C   UNL     1      -2.096  12.896  21.029  0.00  0.00    +0.000 A 
ATOM     18  C   UNL     1      -1.293  11.884  20.495  0.00  0.00    +0.000 A 
ENDBRANCH   9  13
ENDBRANCH   1  12
BRANCH   3  19
ATOM     19  C   UNL     1       5.563   5.704  18.640  0.00  0.00    +0.000 A 
ATOM     20  C   UNL     1       6.643   5.344  19.464  0.00  0.00    +0.000 A 
ATOM     21  C   UNL     1       7.919   5.875  19.251  0.00  0.00    +0.000 A 
ATOM     22  C   UNL     1       8.149   6.758  18.199  0.00  0.00    +0.000 A 
ATOM     23  C   UNL     1       7.105   7.102  17.350  0.00  0.00    +0.000 A 
ATOM     24  C   UNL     1       5.831   6.577  17.566  0.00  0.00    +0.000 A 
ENDBRANCH   3  19
BRANCH   3  25
ATOM     25  C   UNL     1       4.068   3.697  19.360  0.00  0.00    +0.000 C 
BRANCH  25  26
ATOM     26  N   UNL     1       2.829   3.333  20.014  0.00  0.00    +0.000 N 
ATOM     27  C   UNL     1       1.627   3.042  19.444  0.00  0.00    +0.000 A 
ATOM     28  N   UNL     1       0.785   2.638  20.371  0.00  0.00    +0.000 NA
ATOM     29  C   UNL     1       1.540   2.687  21.507  0.00  0.00    +0.000 A 
ATOM     30  N   UNL     1       2.804   3.082  21.340  0.00  0.00    +0.000 NA
ENDBRANCH  25  26
ENDBRANCH   3  25
TORSDOF 5
ENDMDL
MODEL 7
REMARK VINA RESULT:      -8.6      1.840      2.306
REMARK  Name = 
REMARK  5 active torsions:
REMARK  status: ('A' for Active; 'I' for Inactive)
REMARK    1  A    between atoms: C_4  and  C_5
REMARK    2  A    between atoms: C_13  and  C_14
REMARK    3  A    between atoms: C_16  and  C_17
REMARK    4  A    between atoms: C_16  and  C_23
REMARK    5  A    between atoms: C_17  and  N_18
REMARK                            x       y       z     vdW  Elec       q    Type
REMARK                         _______ _______ _______ _____ _____    ______ ____
ROOT
ATOM      1  C   UNL     1       2.557   6.662  19.164  0.00  0.00    +0.000 C 
ATOM      2  N   UNL     1       3.430   6.017  19.859  0.00  0.00    +0.000 NA
ATOM      3  C   UNL     1       4.159   5.175  18.872  0.00  0.00    +0.000 C 
ATOM      4  C   UNL     1       3.295   5.299  17.603  0.00  0.00    +0.000 C 
ATOM      5  O   UNL     1       2.445   6.419  17.840  0.00  0.00    +0.000 OA
ENDROOT
BRANCH   1  12
ATOM      6  F   UNL     1       1.939   9.029  17.700  0.00  0.00    +0.000 F 
ATOM      7  C   UNL     1       1.458   8.880  18.942  0.00  0.00    +0.000 A 
ATOM      8  C   UNL     1       0.661   9.893  19.472  0.00  0.00    +0.000 A 
ATOM      9  C   UNL     1       0.091   9.784  20.756  0.00  0.00    +0.000 A 
ATOM     10  C   UNL     1       0.350   8.604  21.480  0.00  0.00    +0.000 A 
ATOM     11  C   UNL     1       1.152   7.589  20.950  0.00  0.00    +0.000 A 
ATOM     12  C   UNL     1       1.716   7.735  19.679  0.00  0.00    +0.000 A 
BRANCH   9  13
ATOM     13  C   UNL     1      -0.732  10.877  21.322  0.00  0.00    +0.000 A 
ATOM     14  C   UNL     1      -1.340  11.838  20.493  0.00  0.00    +0.000 A 
ATOM     15  C   UNL     1      -2.071  12.905  21.024  0.00  0.00    +0.000 A 
ATOM     16  C   UNL     1      -2.230  13.023  22.400  0.00  0.00    +0.000 A 
ATOM     17  C   UNL     1      -1.661  12.074  23.243  0.00  0.00    +0.000 A 
ATOM     18  C   UNL     1      -0.918  11.017  22.710  0.00  0.00    +0.000 A 
ENDBRANCH   9  13
ENDBRANCH   1  12
BRANCH   3  19
ATOM     19  C   UNL     1       5.566   5.734  18.614  0.00  0.00    +0.000 A 
ATOM     20  C   UNL     1       5.837   6.625  17.562  0.00  0.00    +0.000 A 
ATOM     21  C   UNL     1       7.133   7.094  17.332  0.00  0.00    +0.000 A 
ATOM     22  C   UNL     1       8.183   6.703  18.160  0.00  0.00    +0.000 A 
ATOM     23  C   UNL     1       7.935   5.850  19.227  0.00  0.00    +0.000 A 
ATOM     24  C   UNL     1       6.642   5.378  19.453  0.00  0.00    +0.000 A 
ENDBRANCH   3  19
BRANCH   3  25
ATOM     25  C   UNL     1       4.113   3.715  19.383  0.00  0.00    +0.000 C 
BRANCH  25  26
ATOM     26  N   UNL     1       2.844   3.300  19.944  0.00  0.00    +0.000 N 
ATOM     27  C   UNL     1       2.486   3.224  21.256  0.00  0.00    +0.000 A 
ATOM     28  N   UNL     1       1.208   2.924  21.347  0.00  0.00    +0.000 NA
ATOM     29  C   UNL     1       0.822   2.842  20.041  0.00  0.00    +0.000 A 
ATOM     30  N   UNL     1       1.780   3.088  19.143  0.00  0.00    +0.000 NA
ENDBRANCH  25  26
ENDBRANCH   3  25
TORSDOF 5
ENDMDL
MODEL 8
REMARK VINA RESULT:      -8.5      1.883      2.651
REMARK  Name = 
REMARK  5 active torsions:
REMARK  status: ('A' for Active; 'I' for Inactive)
REMARK    1  A    between atoms: C_4  and  C_5
REMARK    2  A    between atoms: C_13  and  C_14
REMARK    3  A    between atoms: C_16  and  C_17
REMARK    4  A    between atoms: C_16  and  C_23
REMARK    5  A    between atoms: C_17  and  N_18
REMARK                            x       y       z     vdW  Elec       q    Type
REMARK                         _______ _______ _______ _____ _____    ______ ____
ROOT
ATOM      1  C   UNL     1       2.412   6.946  19.312  0.00  0.00    +0.000 C 
ATOM      2  N   UNL     1       3.245   6.180  19.929  0.00  0.00    +0.000 NA
ATOM      3  C   UNL     1       3.846   5.331  18.865  0.00  0.00    +0.000 C 
ATOM      4  C   UNL     1       2.946   5.611  17.646  0.00  0.00    +0.000 C 
ATOM      5  O   UNL     1       2.222   6.793  17.983  0.00  0.00    +0.000 OA
ENDROOT
BRANCH   1  12
ATOM      6  F   UNL     1       1.735   9.340  17.921  0.00  0.00    +0.000 F 
ATOM      7  C   UNL     1       1.412   9.219  19.216  0.00  0.00    +0.000 A 
ATOM      8  C   UNL     1       0.746  10.274  19.836  0.00  0.00    +0.000 A 
ATOM      9  C   UNL     1       0.343  10.198  21.184  0.00  0.00    +0.000 A 
ATOM     10  C   UNL     1       0.631   9.006  21.878  0.00  0.00    +0.000 A 
ATOM     11  C   UNL     1       1.302   7.948  21.257  0.00  0.00    +0.000 A 
ATOM     12  C   UNL     1       1.703   8.063  19.923  0.00  0.00    +0.000 A 
BRANCH   9  13
ATOM     13  C   UNL     1      -0.341  11.334  21.843  0.00  0.00    +0.000 A 
ATOM     14  C   UNL     1       0.043  12.664  21.589  0.00  0.00    +0.000 A 
ATOM     15  C   UNL     1      -0.560  13.738  22.250  0.00  0.00    +0.000 A 
ATOM     16  C   UNL     1      -1.580  13.507  23.168  0.00  0.00    +0.000 A 
ATOM     17  C   UNL     1      -1.997  12.204  23.420  0.00  0.00    +0.000 A 
ATOM     18  C   UNL     1      -1.382  11.132  22.768  0.00  0.00    +0.000 A 
ENDBRANCH   9  13
ENDBRANCH   1  12
BRANCH   3  19
ATOM     19  C   UNL     1       5.290   5.766  18.572  0.00  0.00    +0.000 A 
ATOM     20  C   UNL     1       6.374   5.342  19.360  0.00  0.00    +0.000 A 
ATOM     21  C   UNL     1       7.674   5.778  19.088  0.00  0.00    +0.000 A 
ATOM     22  C   UNL     1       7.924   6.627  18.012  0.00  0.00    +0.000 A 
ATOM     23  C   UNL     1       6.874   7.031  17.199  0.00  0.00    +0.000 A 
ATOM     24  C   UNL     1       5.575   6.601  17.473  0.00  0.00    +0.000 A 
ENDBRANCH   3  19
BRANCH   3  25
ATOM     25  C   UNL     1       3.677   3.855  19.298  0.00  0.00    +0.000 C 
BRANCH  25  26
ATOM     26  N   UNL     1       2.333   3.330  19.178  0.00  0.00    +0.000 N 
ATOM     27  C   UNL     1       1.834   2.497  18.223  0.00  0.00    +0.000 A 
ATOM     28  N   UNL     1       0.604   2.154  18.537  0.00  0.00    +0.000 NA
ATOM     29  C   UNL     1       0.400   2.801  19.720  0.00  0.00    +0.000 A 
ATOM     30  N   UNL     1       1.436   3.516  20.168  0.00  0.00    +0.000 NA
ENDBRANCH  25  26
ENDBRANCH   3  25
TORSDOF 5
ENDMDL
MODEL 9
REMARK VINA RESULT:      -8.4      1.614      2.219
REMARK  Name = 
REMARK  5 active torsions:
REMARK  status: ('A' for Active; 'I' for Inactive)
REMARK    1  A    between atoms: C_4  and  C_5
REMARK    2  A    between atoms: C_13  and  C_14
REMARK    3  A    between atoms: C_16  and  C_17
REMARK    4  A    between atoms: C_16  and  C_23
REMARK    5  A    between atoms: C_17  and  N_18
REMARK                            x       y       z     vdW  Elec       q    Type
REMARK                         _______ _______ _______ _____ _____    ______ ____
ROOT
ATOM      1  C   UNL     1       2.618   6.775  19.016  0.00  0.00    +0.000 C 
ATOM      2  N   UNL     1       3.409   6.009  19.686  0.00  0.00    +0.000 NA
ATOM      3  C   UNL     1       4.168   5.249  18.657  0.00  0.00    +0.000 C 
ATOM      4  C   UNL     1       3.404   5.563  17.357  0.00  0.00    +0.000 C 
ATOM      5  O   UNL     1       2.589   6.691  17.668  0.00  0.00    +0.000 OA
ENDROOT
BRANCH   1  12
ATOM      6  F   UNL     1       1.393   6.581  21.584  0.00  0.00    +0.000 F 
ATOM      7  C   UNL     1       1.195   7.680  20.842  0.00  0.00    +0.000 A 
ATOM      8  C   UNL     1       0.396   8.697  21.361  0.00  0.00    +0.000 A 
ATOM      9  C   UNL     1       0.177   9.894  20.652  0.00  0.00    +0.000 A 
ATOM     10  C   UNL     1       0.807  10.028  19.400  0.00  0.00    +0.000 A 
ATOM     11  C   UNL     1       1.606   9.006  18.876  0.00  0.00    +0.000 A 
ATOM     12  C   UNL     1       1.790   7.824  19.598  0.00  0.00    +0.000 A 
BRANCH   9  13
ATOM     13  C   UNL     1      -0.694  10.958  21.200  0.00  0.00    +0.000 A 
ATOM     14  C   UNL     1      -1.283  11.924  20.362  0.00  0.00    +0.000 A 
ATOM     15  C   UNL     1      -2.061  12.964  20.879  0.00  0.00    +0.000 A 
ATOM     16  C   UNL     1      -2.286  13.050  22.249  0.00  0.00    +0.000 A 
ATOM     17  C   UNL     1      -1.738  12.096  23.098  0.00  0.00    +0.000 A 
ATOM     18  C   UNL     1      -0.949  11.066  22.580  0.00  0.00    +0.000 A 
ENDBRANCH   9  13
ENDBRANCH   1  12
BRANCH   3  19
ATOM     19  C   UNL     1       5.614   5.760  18.560  0.00  0.00    +0.000 A 
ATOM     20  C   UNL     1       6.618   5.341  19.450  0.00  0.00    +0.000 A 
ATOM     21  C   UNL     1       7.918   5.845  19.357  0.00  0.00    +0.000 A 
ATOM     22  C   UNL     1       8.251   6.760  18.360  0.00  0.00    +0.000 A 
ATOM     23  C   UNL     1       7.285   7.163  17.448  0.00  0.00    +0.000 A 
ATOM     24  C   UNL     1       5.986   6.664  17.544  0.00  0.00    +0.000 A 
ENDBRANCH   3  19
BRANCH   3  25
ATOM     25  C   UNL     1       4.022   3.744  18.988  0.00  0.00    +0.000 C 
BRANCH  25  26
ATOM     26  N   UNL     1       2.799   3.383  19.674  0.00  0.00    +0.000 N 
ATOM     27  C   UNL     1       1.566   3.162  19.140  0.00  0.00    +0.000 A 
ATOM     28  N   UNL     1       0.750   2.735  20.079  0.00  0.00    +0.000 NA
ATOM     29  C   UNL     1       1.551   2.696  21.182  0.00  0.00    +0.000 A 
ATOM     30  N   UNL     1       2.820   3.060  20.983  0.00  0.00    +0.000 NA
ENDBRANCH  25  26
ENDBRANCH   3  25
TORSDOF 5
ENDMDL
