MODEL 1
REMARK VINA RESULT:      -7.6      0.000      0.000
REMARK  Name = 
REMARK  9 active torsions:
REMARK  status: ('A' for Active; 'I' for Inactive)
REMARK    1  A    between atoms: O_1  and  C_2
REMARK    2  A    between atoms: C_2  and  C_3
REMARK    3  A    between atoms: C_2  and  C_17
REMARK    4  A    between atoms: C_3  and  C_4
REMARK    5  A    between atoms: C_4  and  N_5
REMARK    6  A    between atoms: N_8  and  C_9
REMARK    7  A    between atoms: C_17  and  O_18
REMARK    8  A    between atoms: O_18  and  C_19
REMARK    9  A    between atoms: C_22  and  C_23
REMARK                            x       y       z     vdW  Elec       q    Type
REMARK                         _______ _______ _______ _____ _____    ______ ____
ROOT
ATOM      1  C   UNL     1       2.787   6.455  19.012  0.00  0.00    +0.000 C 
ENDROOT
BRANCH   1   2
ATOM      2  O   UNL     1       3.485   7.390  18.185  0.00  0.00    +0.000 OA
ATOM      3  H   UNL     1       3.736   8.139  18.768  0.00  0.00    +0.000 HD
ENDBRANCH   1   2
BRANCH   1   4
ATOM      4  C   UNL     1       3.747   5.476  19.694  0.00  0.00    +0.000 C 
BRANCH   4   5
ATOM      5  C   UNL     1       5.190   5.605  19.192  0.00  0.00    +0.000 C 
BRANCH   5   6
ATOM      6  N   UNL     1       5.693   4.379  18.544  0.00  0.00    +0.000 NA
ATOM      7  C   UNL     1       4.795   3.891  17.458  0.00  0.00    +0.000 C 
ATOM      8  C   UNL     1       4.670   4.865  16.279  0.00  0.00    +0.000 C 
ATOM      9  N   UNL     1       5.996   5.151  15.722  0.00  0.00    +0.000 N 
ATOM     10  C   UNL     1       7.046   5.532  16.686  0.00  0.00    +0.000 C 
ATOM     11  C   UNL     1       7.028   4.613  17.937  0.00  0.00    +0.000 C 
BRANCH   9  12
ATOM     12  C   UNL     1       6.319   4.779  14.431  0.00  0.00    +0.000 A 
ATOM     13  C   UNL     1       5.584   3.789  13.767  0.00  0.00    +0.000 A 
ATOM     14  C   UNL     1       5.943   3.342  12.491  0.00  0.00    +0.000 A 
ATOM     15  C   UNL     1       7.047   3.890  11.848  0.00  0.00    +0.000 A 
ATOM     16  C   UNL     1       7.780   4.892  12.469  0.00  0.00    +0.000 A 
ATOM     17  C   UNL     1       7.412   5.332  13.747  0.00  0.00    +0.000 A 
ENDBRANCH   9  12
ENDBRANCH   5   6
ENDBRANCH   4   5
ENDBRANCH   1   4
BRANCH   1  18
ATOM     18  C   UNL     1       2.013   7.239  20.068  0.00  0.00    +0.000 C 
BRANCH  18  19
ATOM     19  O   UNL     1       1.648   8.497  19.499  0.00  0.00    +0.000 OA
BRANCH  19  20
ATOM     20  C   UNL     1       0.963   9.320  20.341  0.00  0.00    +0.000 A 
ATOM     21  C   UNL     1       0.860  10.646  19.940  0.00  0.00    +0.000 A 
ATOM     22  C   UNL     1       0.136  11.555  20.711  0.00  0.00    +0.000 A 
ATOM     23  C   UNL     1      -0.532  11.153  21.884  0.00  0.00    +0.000 A 
ATOM     24  C   UNL     1      -0.417   9.804  22.258  0.00  0.00    +0.000 A 
ATOM     25  C   UNL     1       0.326   8.896  21.504  0.00  0.00    +0.000 A 
BRANCH  23  26
ATOM     26  C   UNL     1      -1.334  12.108  22.678  0.00  0.00    +0.000 A 
ATOM     27  C   UNL     1      -2.619  11.775  23.140  0.00  0.00    +0.000 A 
ATOM     28  C   UNL     1      -3.388  12.683  23.875  0.00  0.00    +0.000 A 
ATOM     29  C   UNL     1      -2.874  13.937  24.185  0.00  0.00    +0.000 A 
ATOM     30  C   UNL     1      -1.600  14.286  23.758  0.00  0.00    +0.000 A 
ATOM     31  C   UNL     1      -0.840  13.385  23.008  0.00  0.00    +0.000 A 
ENDBRANCH  23  26
ENDBRANCH  19  20
ENDBRANCH  18  19
ENDBRANCH   1  18
TORSDOF 9
ENDMDL
MODEL 2
REMARK VINA RESULT:      -7.5      1.131      1.599
REMARK  Name = 
REMARK  9 active torsions:
REMARK  status: ('A' for Active; 'I' for Inactive)
REMARK    1  A    between atoms: O_1  and  C_2
REMARK    2  A    between atoms: C_2  and  C_3
REMARK    3  A    between atoms: C_2  and  C_17
REMARK    4  A    between atoms: C_3  and  C_4
REMARK    5  A    between atoms: C_4  and  N_5
REMARK    6  A    between atoms: N_8  and  C_9
REMARK    7  A    between atoms: C_17  and  O_18
REMARK    8  A    between atoms: O_18  and  C_19
REMARK    9  A    between atoms: C_22  and  C_23
REMARK                            x       y       z     vdW  Elec       q    Type
REMARK                         _______ _______ _______ _____ _____    ______ ____
ROOT
ATOM      1  C   UNL     1       2.632   5.753  19.098  0.00  0.00    +0.000 C 
ENDROOT
BRANCH   1   2
ATOM      2  O   UNL     1       1.890   5.141  18.041  0.00  0.00    +0.000 OA
ATOM      3  H   UNL     1       1.100   4.733  18.458  0.00  0.00    +0.000 HD
ENDBRANCH   1   2
BRANCH   1   4
ATOM      4  C   UNL     1       3.713   4.815  19.646  0.00  0.00    +0.000 C 
BRANCH   4   5
ATOM      5  C   UNL     1       5.132   5.248  19.259  0.00  0.00    +0.000 C 
BRANCH   5   6
ATOM      6  N   UNL     1       5.903   4.183  18.589  0.00  0.00    +0.000 NA
ATOM      7  C   UNL     1       5.120   3.484  17.531  0.00  0.00    +0.000 C 
ATOM      8  C   UNL     1       4.719   4.392  16.361  0.00  0.00    +0.000 C 
ATOM      9  N   UNL     1       5.913   4.997  15.763  0.00  0.00    +0.000 N 
ATOM     10  C   UNL     1       6.866   5.630  16.694  0.00  0.00    +0.000 C 
ATOM     11  C   UNL     1       7.118   4.739  17.940  0.00  0.00    +0.000 C 
BRANCH   9  12
ATOM     12  C   UNL     1       6.276   4.713  14.460  0.00  0.00    +0.000 A 
ATOM     13  C   UNL     1       5.541   3.796  13.697  0.00  0.00    +0.000 A 
ATOM     14  C   UNL     1       5.938   3.436  12.405  0.00  0.00    +0.000 A 
ATOM     15  C   UNL     1       7.080   3.997  11.846  0.00  0.00    +0.000 A 
ATOM     16  C   UNL     1       7.815   4.927  12.568  0.00  0.00    +0.000 A 
ATOM     17  C   UNL     1       7.409   5.282  13.860  0.00  0.00    +0.000 A 
ENDBRANCH   9  12
ENDBRANCH   5   6
ENDBRANCH   4   5
ENDBRANCH   1   4
BRANCH   1  18
ATOM     18  C   UNL     1       3.280   7.023  18.553  0.00  0.00    +0.000 C 
BRANCH  18  19
ATOM     19  O   UNL     1       2.268   7.775  17.881  0.00  0.00    +0.000 OA
BRANCH  19  20
ATOM     20  C   UNL     1       1.561   8.615  18.687  0.00  0.00    +0.000 A 
ATOM     21  C   UNL     1       0.762   9.547  18.037  0.00  0.00    +0.000 A 
ATOM     22  C   UNL     1      -0.037  10.419  18.775  0.00  0.00    +0.000 A 
ATOM     23  C   UNL     1      -0.084  10.357  20.182  0.00  0.00    +0.000 A 
ATOM     24  C   UNL     1       0.729   9.399  20.810  0.00  0.00    +0.000 A 
ATOM     25  C   UNL     1       1.548   8.541  20.077  0.00  0.00    +0.000 A 
BRANCH  23  26
ATOM     26  C   UNL     1      -0.962  11.254  20.962  0.00  0.00    +0.000 A 
ATOM     27  C   UNL     1      -1.841  12.149  20.328  0.00  0.00    +0.000 A 
ATOM     28  C   UNL     1      -2.659  13.012  21.063  0.00  0.00    +0.000 A 
ATOM     29  C   UNL     1      -2.632  12.980  22.453  0.00  0.00    +0.000 A 
ATOM     30  C   UNL     1      -1.787  12.094  23.107  0.00  0.00    +0.000 A 
ATOM     31  C   UNL     1      -0.956  11.244  22.371  0.00  0.00    +0.000 A 
ENDBRANCH  23  26
ENDBRANCH  19  20
ENDBRANCH  18  19
ENDBRANCH   1  18
TORSDOF 9
ENDMDL
MODEL 3
REMARK VINA RESULT:      -7.5      4.012      8.638
REMARK  Name = 
REMARK  9 active torsions:
REMARK  status: ('A' for Active; 'I' for Inactive)
REMARK    1  A    between atoms: O_1  and  C_2
REMARK    2  A    between atoms: C_2  and  C_3
REMARK    3  A    between atoms: C_2  and  C_17
REMARK    4  A    between atoms: C_3  and  C_4
REMARK    5  A    between atoms: C_4  and  N_5
REMARK    6  A    between atoms: N_8  and  C_9
REMARK    7  A    between atoms: C_17  and  O_18
REMARK    8  A    between atoms: O_18  and  C_19
REMARK    9  A    between atoms: C_22  and  C_23
REMARK                            x       y       z     vdW  Elec       q    Type
REMARK                         _______ _______ _______ _____ _____    ______ ____
ROOT
ATOM      1  C   UNL     1       4.865   2.765  18.431  0.00  0.00    +0.000 C 
ENDROOT
BRANCH   1   2
ATOM      2  O   UNL     1       5.284   2.243  19.695  0.00  0.00    +0.000 OA
ATOM      3  H   UNL     1       5.545   3.017  20.240  0.00  0.00    +0.000 HD
ENDBRANCH   1   2
BRANCH   1   4
ATOM      4  C   UNL     1       3.354   2.615  18.231  0.00  0.00    +0.000 C 
BRANCH   4   5
ATOM      5  C   UNL     1       2.561   2.747  19.536  0.00  0.00    +0.000 C 
BRANCH   5   6
ATOM      6  N   UNL     1       1.305   3.505  19.381  0.00  0.00    +0.000 NA
ATOM      7  C   UNL     1       1.074   4.471  20.493  0.00  0.00    +0.000 C 
ATOM      8  C   UNL     1       2.128   5.584  20.570  0.00  0.00    +0.000 C 
ATOM      9  N   UNL     1       2.183   6.310  19.297  0.00  0.00    +0.000 N 
ATOM     10  C   UNL     1       2.288   5.491  18.076  0.00  0.00    +0.000 C 
ATOM     11  C   UNL     1       1.312   4.284  18.117  0.00  0.00    +0.000 C 
BRANCH   9  12
ATOM     12  C   UNL     1       1.840   7.647  19.227  0.00  0.00    +0.000 A 
ATOM     13  C   UNL     1       2.027   8.372  18.043  0.00  0.00    +0.000 A 
ATOM     14  C   UNL     1       1.760   9.744  17.975  0.00  0.00    +0.000 A 
ATOM     15  C   UNL     1       1.290  10.417  19.096  0.00  0.00    +0.000 A 
ATOM     16  C   UNL     1       1.070   9.721  20.277  0.00  0.00    +0.000 A 
ATOM     17  C   UNL     1       1.340   8.348  20.334  0.00  0.00    +0.000 A 
ENDBRANCH   9  12
ENDBRANCH   5   6
ENDBRANCH   4   5
ENDBRANCH   1   4
BRANCH   1  18
ATOM     18  C   UNL     1       5.248   4.241  18.374  0.00  0.00    +0.000 C 
BRANCH  18  19
ATOM     19  O   UNL     1       6.604   4.324  17.929  0.00  0.00    +0.000 OA
BRANCH  19  20
ATOM     20  C   UNL     1       7.176   5.549  18.092  0.00  0.00    +0.000 A 
ATOM     21  C   UNL     1       6.834   6.506  17.145  0.00  0.00    +0.000 A 
ATOM     22  C   UNL     1       7.330   7.805  17.253  0.00  0.00    +0.000 A 
ATOM     23  C   UNL     1       8.152   8.188  18.331  0.00  0.00    +0.000 A 
ATOM     24  C   UNL     1       8.473   7.201  19.277  0.00  0.00    +0.000 A 
ATOM     25  C   UNL     1       7.999   5.895  19.160  0.00  0.00    +0.000 A 
BRANCH  23  26
ATOM     26  C   UNL     1       8.644   9.576  18.468  0.00  0.00    +0.000 A 
ATOM     27  C   UNL     1       8.263  10.578  17.559  0.00  0.00    +0.000 A 
ATOM     28  C   UNL     1       8.742  11.887  17.674  0.00  0.00    +0.000 A 
ATOM     29  C   UNL     1       9.594  12.225  18.720  0.00  0.00    +0.000 A 
ATOM     30  C   UNL     1       9.972  11.260  19.643  0.00  0.00    +0.000 A 
ATOM     31  C   UNL     1       9.508   9.948  19.516  0.00  0.00    +0.000 A 
ENDBRANCH  23  26
ENDBRANCH  19  20
ENDBRANCH  18  19
ENDBRANCH   1  18
TORSDOF 9
ENDMDL
MODEL 4
REMARK VINA RESULT:      -7.4      2.727      3.404
REMARK  Name = 
REMARK  9 active torsions:
REMARK  status: ('A' for Active; 'I' for Inactive)
REMARK    1  A    between atoms: O_1  and  C_2
REMARK    2  A    between atoms: C_2  and  C_3
REMARK    3  A    between atoms: C_2  and  C_17
REMARK    4  A    between atoms: C_3  and  C_4
REMARK    5  A    between atoms: C_4  and  N_5
REMARK    6  A    between atoms: N_8  and  C_9
REMARK    7  A    between atoms: C_17  and  O_18
REMARK    8  A    between atoms: O_18  and  C_19
REMARK    9  A    between atoms: C_22  and  C_23
REMARK                            x       y       z     vdW  Elec       q    Type
REMARK                         _______ _______ _______ _____ _____    ______ ____
ROOT
ATOM      1  C   UNL     1       2.442   3.618  20.621  0.00  0.00    +0.000 C 
ENDROOT
BRANCH   1   2
ATOM      2  O   UNL     1       1.581   2.513  20.912  0.00  0.00    +0.000 OA
ATOM      3  H   UNL     1       0.805   2.885  21.384  0.00  0.00    +0.000 HD
ENDBRANCH   1   2
BRANCH   1   4
ATOM      4  C   UNL     1       3.271   3.371  19.357  0.00  0.00    +0.000 C 
BRANCH   4   5
ATOM      5  C   UNL     1       4.641   4.057  19.397  0.00  0.00    +0.000 C 
BRANCH   5   6
ATOM      6  N   UNL     1       4.744   5.207  18.478  0.00  0.00    +0.000 NA
ATOM      7  C   UNL     1       6.137   5.443  18.003  0.00  0.00    +0.000 C 
ATOM      8  C   UNL     1       6.702   4.291  17.160  0.00  0.00    +0.000 C 
ATOM      9  N   UNL     1       5.831   4.038  16.008  0.00  0.00    +0.000 N 
ATOM     10  C   UNL     1       4.390   3.902  16.291  0.00  0.00    +0.000 C 
ATOM     11  C   UNL     1       3.899   4.999  17.274  0.00  0.00    +0.000 C 
BRANCH   9  12
ATOM     12  C   UNL     1       6.286   4.233  14.718  0.00  0.00    +0.000 A 
ATOM     13  C   UNL     1       5.771   3.476  13.657  0.00  0.00    +0.000 A 
ATOM     14  C   UNL     1       6.274   3.601  12.357  0.00  0.00    +0.000 A 
ATOM     15  C   UNL     1       7.302   4.499  12.093  0.00  0.00    +0.000 A 
ATOM     16  C   UNL     1       7.815   5.281  13.118  0.00  0.00    +0.000 A 
ATOM     17  C   UNL     1       7.304   5.149  14.415  0.00  0.00    +0.000 A 
ENDBRANCH   9  12
ENDBRANCH   5   6
ENDBRANCH   4   5
ENDBRANCH   1   4
BRANCH   1  18
ATOM     18  C   UNL     1       1.575   4.861  20.434  0.00  0.00    +0.000 C 
BRANCH  18  19
ATOM     19  O   UNL     1       2.204   5.939  21.130  0.00  0.00    +0.000 OA
BRANCH  19  20
ATOM     20  C   UNL     1       1.797   7.177  20.734  0.00  0.00    +0.000 A 
ATOM     21  C   UNL     1       2.115   7.529  19.428  0.00  0.00    +0.000 A 
ATOM     22  C   UNL     1       1.699   8.757  18.913  0.00  0.00    +0.000 A 
ATOM     23  C   UNL     1       0.924   9.649  19.681  0.00  0.00    +0.000 A 
ATOM     24  C   UNL     1       0.612   9.261  20.995  0.00  0.00    +0.000 A 
ATOM     25  C   UNL     1       1.046   8.045  21.521  0.00  0.00    +0.000 A 
BRANCH  23  26
ATOM     26  C   UNL     1       0.449  10.932  19.122  0.00  0.00    +0.000 A 
ATOM     27  C   UNL     1       1.264  12.076  19.125  0.00  0.00    +0.000 A 
ATOM     28  C   UNL     1       0.810  13.296  18.614  0.00  0.00    +0.000 A 
ATOM     29  C   UNL     1      -0.464  13.389  18.066  0.00  0.00    +0.000 A 
ATOM     30  C   UNL     1      -1.285  12.270  18.033  0.00  0.00    +0.000 A 
ATOM     31  C   UNL     1      -0.837  11.056  18.560  0.00  0.00    +0.000 A 
ENDBRANCH  23  26
ENDBRANCH  19  20
ENDBRANCH  18  19
ENDBRANCH   1  18
TORSDOF 9
ENDMDL
MODEL 5
REMARK VINA RESULT:      -7.4      2.455     11.669
REMARK  Name = 
REMARK  9 active torsions:
REMARK  status: ('A' for Active; 'I' for Inactive)
REMARK    1  A    between atoms: O_1  and  C_2
REMARK    2  A    between atoms: C_2  and  C_3
REMARK    3  A    between atoms: C_2  and  C_17
REMARK    4  A    between atoms: C_3  and  C_4
REMARK    5  A    between atoms: C_4  and  N_5
REMARK    6  A    between atoms: N_8  and  C_9
REMARK    7  A    between atoms: C_17  and  O_18
REMARK    8  A    between atoms: O_18  and  C_19
REMARK    9  A    between atoms: C_22  and  C_23
REMARK                            x       y       z     vdW  Elec       q    Type
REMARK                         _______ _______ _______ _____ _____    ______ ____
ROOT
ATOM      1  C   UNL     1       1.963   5.781  19.787  0.00  0.00    +0.000 C 
ENDROOT
BRANCH   1   2
ATOM      2  O   UNL     1       0.928   5.389  20.692  0.00  0.00    +0.000 OA
ATOM      3  H   UNL     1       0.820   4.420  20.584  0.00  0.00    +0.000 HD
ENDBRANCH   1   2
BRANCH   1   4
ATOM      4  C   UNL     1       2.275   7.277  19.898  0.00  0.00    +0.000 C 
BRANCH   4   5
ATOM      5  C   UNL     1       1.506   7.966  21.031  0.00  0.00    +0.000 C 
BRANCH   5   6
ATOM      6  N   UNL     1       0.209   8.523  20.601  0.00  0.00    +0.000 NA
ATOM      7  C   UNL     1      -0.734   8.729  21.737  0.00  0.00    +0.000 C 
ATOM      8  C   UNL     1      -0.249   9.766  22.760  0.00  0.00    +0.000 C 
ATOM      9  N   UNL     1       0.000  11.048  22.094  0.00  0.00    +0.000 N 
ATOM     10  C   UNL     1       0.822  11.006  20.871  0.00  0.00    +0.000 C 
ATOM     11  C   UNL     1       0.394   9.840  19.940  0.00  0.00    +0.000 C 
BRANCH   9  12
ATOM     12  C   UNL     1      -0.746  12.168  22.409  0.00  0.00    +0.000 A 
ATOM     13  C   UNL     1      -0.299  13.448  22.053  0.00  0.00    +0.000 A 
ATOM     14  C   UNL     1      -0.999  14.598  22.432  0.00  0.00    +0.000 A 
ATOM     15  C   UNL     1      -2.171  14.488  23.172  0.00  0.00    +0.000 A 
ATOM     16  C   UNL     1      -2.652  13.233  23.517  0.00  0.00    +0.000 A 
ATOM     17  C   UNL     1      -1.945  12.087  23.133  0.00  0.00    +0.000 A 
ENDBRANCH   9  12
ENDBRANCH   5   6
ENDBRANCH   4   5
ENDBRANCH   1   4
BRANCH   1  18
ATOM     18  C   UNL     1       3.214   4.969  20.113  0.00  0.00    +0.000 C 
BRANCH  18  19
ATOM     19  O   UNL     1       4.342   5.678  19.596  0.00  0.00    +0.000 OA
BRANCH  19  20
ATOM     20  C   UNL     1       4.695   5.326  18.329  0.00  0.00    +0.000 A 
ATOM     21  C   UNL     1       5.194   6.351  17.534  0.00  0.00    +0.000 A 
ATOM     22  C   UNL     1       5.629   6.080  16.236  0.00  0.00    +0.000 A 
ATOM     23  C   UNL     1       5.609   4.772  15.714  0.00  0.00    +0.000 A 
ATOM     24  C   UNL     1       5.107   3.756  16.545  0.00  0.00    +0.000 A 
ATOM     25  C   UNL     1       4.649   4.026  17.834  0.00  0.00    +0.000 A 
BRANCH  23  26
ATOM     26  C   UNL     1       6.109   4.479  14.354  0.00  0.00    +0.000 A 
ATOM     27  C   UNL     1       7.280   5.081  13.861  0.00  0.00    +0.000 A 
ATOM     28  C   UNL     1       7.744   4.821  12.568  0.00  0.00    +0.000 A 
ATOM     29  C   UNL     1       7.058   3.932  11.749  0.00  0.00    +0.000 A 
ATOM     30  C   UNL     1       5.908   3.309  12.216  0.00  0.00    +0.000 A 
ATOM     31  C   UNL     1       5.435   3.583  13.502  0.00  0.00    +0.000 A 
ENDBRANCH  23  26
ENDBRANCH  19  20
ENDBRANCH  18  19
ENDBRANCH   1  18
TORSDOF 9
ENDMDL
MODEL 6
REMARK VINA RESULT:      -7.3      3.382      4.381
REMARK  Name = 
REMARK  9 active torsions:
REMARK  status: ('A' for Active; 'I' for Inactive)
REMARK    1  A    between atoms: O_1  and  C_2
REMARK    2  A    between atoms: C_2  and  C_3
REMARK    3  A    between atoms: C_2  and  C_17
REMARK    4  A    between atoms: C_3  and  C_4
REMARK    5  A    between atoms: C_4  and  N_5
REMARK    6  A    between atoms: N_8  and  C_9
REMARK    7  A    between atoms: C_17  and  O_18
REMARK    8  A    between atoms: O_18  and  C_19
REMARK    9  A    between atoms: C_22  and  C_23
REMARK                            x       y       z     vdW  Elec       q    Type
REMARK                         _______ _______ _______ _____ _____    ______ ____
ROOT
ATOM      1  C   UNL     1       1.004   3.876  19.922  0.00  0.00    +0.000 C 
ENDROOT
BRANCH   1   2
ATOM      2  O   UNL     1       1.018   4.340  18.569  0.00  0.00    +0.000 OA
ATOM      3  H   UNL     1       0.134   4.732  18.403  0.00  0.00    +0.000 HD
ENDBRANCH   1   2
BRANCH   1   4
ATOM      4  C   UNL     1       1.965   2.700  20.126  0.00  0.00    +0.000 C 
BRANCH   4   5
ATOM      5  C   UNL     1       2.274   1.947  18.827  0.00  0.00    +0.000 C 
BRANCH   5   6
ATOM      6  N   UNL     1       3.719   1.792  18.574  0.00  0.00    +0.000 NA
ATOM      7  C   UNL     1       4.159   2.464  17.318  0.00  0.00    +0.000 C 
ATOM      8  C   UNL     1       3.987   3.989  17.344  0.00  0.00    +0.000 C 
ATOM      9  N   UNL     1       4.717   4.556  18.481  0.00  0.00    +0.000 N 
ATOM     10  C   UNL     1       4.489   3.921  19.792  0.00  0.00    +0.000 C 
ATOM     11  C   UNL     1       4.515   2.373  19.684  0.00  0.00    +0.000 C 
BRANCH   9  12
ATOM     12  C   UNL     1       5.782   5.415  18.284  0.00  0.00    +0.000 A 
ATOM     13  C   UNL     1       6.926   5.331  19.089  0.00  0.00    +0.000 A 
ATOM     14  C   UNL     1       7.981   6.240  18.958  0.00  0.00    +0.000 A 
ATOM     15  C   UNL     1       7.913   7.252  18.007  0.00  0.00    +0.000 A 
ATOM     16  C   UNL     1       6.804   7.345  17.177  0.00  0.00    +0.000 A 
ATOM     17  C   UNL     1       5.754   6.429  17.316  0.00  0.00    +0.000 A 
ENDBRANCH   9  12
ENDBRANCH   5   6
ENDBRANCH   4   5
ENDBRANCH   1   4
BRANCH   1  18
ATOM     18  C   UNL     1       1.408   5.035  20.828  0.00  0.00    +0.000 C 
BRANCH  18  19
ATOM     19  O   UNL     1       2.352   5.837  20.116  0.00  0.00    +0.000 OA
BRANCH  19  20
ATOM     20  C   UNL     1       1.975   7.135  19.947  0.00  0.00    +0.000 A 
ATOM     21  C   UNL     1       2.253   7.688  18.703  0.00  0.00    +0.000 A 
ATOM     22  C   UNL     1       1.861   8.996  18.416  0.00  0.00    +0.000 A 
ATOM     23  C   UNL     1       1.151   9.770  19.354  0.00  0.00    +0.000 A 
ATOM     24  C   UNL     1       0.878   9.181  20.599  0.00  0.00    +0.000 A 
ATOM     25  C   UNL     1       1.289   7.883  20.899  0.00  0.00    +0.000 A 
BRANCH  23  26
ATOM     26  C   UNL     1       0.700  11.142  19.034  0.00  0.00    +0.000 A 
ATOM     27  C   UNL     1       1.619  12.158  18.722  0.00  0.00    +0.000 A 
ATOM     28  C   UNL     1       1.197  13.461  18.438  0.00  0.00    +0.000 A 
ATOM     29  C   UNL     1      -0.159  13.767  18.437  0.00  0.00    +0.000 A 
ATOM     30  C   UNL     1      -1.091  12.778  18.724  0.00  0.00    +0.000 A 
ATOM     31  C   UNL     1      -0.667  11.481  19.025  0.00  0.00    +0.000 A 
ENDBRANCH  23  26
ENDBRANCH  19  20
ENDBRANCH  18  19
ENDBRANCH   1  18
TORSDOF 9
ENDMDL
MODEL 7
REMARK VINA RESULT:      -7.2      4.904      9.622
REMARK  Name = 
REMARK  9 active torsions:
REMARK  status: ('A' for Active; 'I' for Inactive)
REMARK    1  A    between atoms: O_1  and  C_2
REMARK    2  A    between atoms: C_2  and  C_3
REMARK    3  A    between atoms: C_2  and  C_17
REMARK    4  A    between atoms: C_3  and  C_4
REMARK    5  A    between atoms: C_4  and  N_5
REMARK    6  A    between atoms: N_8  and  C_9
REMARK    7  A    between atoms: C_17  and  O_18
REMARK    8  A    between atoms: O_18  and  C_19
REMARK    9  A    between atoms: C_22  and  C_23
REMARK                            x       y       z     vdW  Elec       q    Type
REMARK                         _______ _______ _______ _____ _____    ______ ____
ROOT
ATOM      1  C   UNL     1      -1.331  12.564  19.755  0.00  0.00    +0.000 C 
ENDROOT
BRANCH   1   2
ATOM      2  O   UNL     1      -0.931  12.793  21.109  0.00  0.00    +0.000 OA
ATOM      3  H   UNL     1      -1.650  13.318  21.523  0.00  0.00    +0.000 HD
ENDBRANCH   1   2
BRANCH   1   4
ATOM      4  C   UNL     1      -0.490  13.383  18.770  0.00  0.00    +0.000 C 
BRANCH   4   5
ATOM      5  C   UNL     1       0.704  14.075  19.436  0.00  0.00    +0.000 C 
BRANCH   5   6
ATOM      6  N   UNL     1       1.859  13.178  19.639  0.00  0.00    +0.000 NA
ATOM      7  C   UNL     1       2.741  13.095  18.440  0.00  0.00    +0.000 C 
ATOM      8  C   UNL     1       3.413  14.427  18.078  0.00  0.00    +0.000 C 
ATOM      9  N   UNL     1       4.187  14.924  19.220  0.00  0.00    +0.000 N 
ATOM     10  C   UNL     1       3.494  14.955  20.521  0.00  0.00    +0.000 C 
ATOM     11  C   UNL     1       2.698  13.646  20.771  0.00  0.00    +0.000 C 
BRANCH   9  12
ATOM     12  C   UNL     1       5.561  15.052  19.144  0.00  0.00    +0.000 A 
ATOM     13  C   UNL     1       6.216  15.010  17.906  0.00  0.00    +0.000 A 
ATOM     14  C   UNL     1       7.611  15.058  17.814  0.00  0.00    +0.000 A 
ATOM     15  C   UNL     1       8.381  15.158  18.967  0.00  0.00    +0.000 A 
ATOM     16  C   UNL     1       7.760  15.228  20.206  0.00  0.00    +0.000 A 
ATOM     17  C   UNL     1       6.363  15.180  20.288  0.00  0.00    +0.000 A 
ENDBRANCH   9  12
ENDBRANCH   5   6
ENDBRANCH   4   5
ENDBRANCH   1   4
BRANCH   1  18
ATOM     18  C   UNL     1      -1.170  11.076  19.456  0.00  0.00    +0.000 C 
BRANCH  18  19
ATOM     19  O   UNL     1      -0.116  10.576  20.282  0.00  0.00    +0.000 OA
BRANCH  19  20
ATOM     20  C   UNL     1       0.715   9.693  19.661  0.00  0.00    +0.000 A 
ATOM     21  C   UNL     1       1.180   8.646  20.448  0.00  0.00    +0.000 A 
ATOM     22  C   UNL     1       1.997   7.663  19.890  0.00  0.00    +0.000 A 
ATOM     23  C   UNL     1       2.340   7.682  18.525  0.00  0.00    +0.000 A 
ATOM     24  C   UNL     1       1.847   8.748  17.753  0.00  0.00    +0.000 A 
ATOM     25  C   UNL     1       1.050   9.747  18.311  0.00  0.00    +0.000 A 
BRANCH  23  26
ATOM     26  C   UNL     1       3.172   6.617  17.925  0.00  0.00    +0.000 A 
ATOM     27  C   UNL     1       4.380   6.916  17.271  0.00  0.00    +0.000 A 
ATOM     28  C   UNL     1       5.159   5.913  16.686  0.00  0.00    +0.000 A 
ATOM     29  C   UNL     1       4.757   4.584  16.766  0.00  0.00    +0.000 A 
ATOM     30  C   UNL     1       3.577   4.258  17.422  0.00  0.00    +0.000 A 
ATOM     31  C   UNL     1       2.790   5.263  17.990  0.00  0.00    +0.000 A 
ENDBRANCH  23  26
ENDBRANCH  19  20
ENDBRANCH  18  19
ENDBRANCH   1  18
TORSDOF 9
ENDMDL
MODEL 8
REMARK VINA RESULT:      -7.2      4.827     11.472
REMARK  Name = 
REMARK  9 active torsions:
REMARK  status: ('A' for Active; 'I' for Inactive)
REMARK    1  A    between atoms: O_1  and  C_2
REMARK    2  A    between atoms: C_2  and  C_3
REMARK    3  A    between atoms: C_2  and  C_17
REMARK    4  A    between atoms: C_3  and  C_4
REMARK    5  A    between atoms: C_4  and  N_5
REMARK    6  A    between atoms: N_8  and  C_9
REMARK    7  A    between atoms: C_17  and  O_18
REMARK    8  A    between atoms: O_18  and  C_19
REMARK    9  A    between atoms: C_22  and  C_23
REMARK                            x       y       z     vdW  Elec       q    Type
REMARK                         _______ _______ _______ _____ _____    ______ ____
ROOT
ATOM      1  C   UNL     1       2.184  12.853  18.639  0.00  0.00    +0.000 C 
ENDROOT
BRANCH   1   2
ATOM      2  O   UNL     1       2.339  12.524  17.256  0.00  0.00    +0.000 OA
ATOM      3  H   UNL     1       1.444  12.580  16.857  0.00  0.00    +0.000 HD
ENDBRANCH   1   2
BRANCH   1   4
ATOM      4  C   UNL     1       1.308  14.095  18.830  0.00  0.00    +0.000 C 
BRANCH   4   5
ATOM      5  C   UNL     1       0.386  13.996  20.050  0.00  0.00    +0.000 C 
BRANCH   5   6
ATOM      6  N   UNL     1      -1.043  14.147  19.715  0.00  0.00    +0.000 NA
ATOM      7  C   UNL     1      -1.796  12.864  19.808  0.00  0.00    +0.000 C 
ATOM      8  C   UNL     1      -1.846  12.281  21.227  0.00  0.00    +0.000 C 
ATOM      9  N   UNL     1      -2.433  13.257  22.149  0.00  0.00    +0.000 N 
ATOM     10  C   UNL     1      -1.882  14.624  22.099  0.00  0.00    +0.000 C 
ATOM     11  C   UNL     1      -1.702  15.109  20.635  0.00  0.00    +0.000 C 
BRANCH   9  12
ATOM     12  C   UNL     1      -3.630  12.998  22.790  0.00  0.00    +0.000 A 
ATOM     13  C   UNL     1      -4.851  13.285  22.167  0.00  0.00    +0.000 A 
ATOM     14  C   UNL     1      -6.070  13.104  22.829  0.00  0.00    +0.000 A 
ATOM     15  C   UNL     1      -6.089  12.620  24.132  0.00  0.00    +0.000 A 
ATOM     16  C   UNL     1      -4.897  12.303  24.767  0.00  0.00    +0.000 A 
ATOM     17  C   UNL     1      -3.681  12.487  24.096  0.00  0.00    +0.000 A 
ENDBRANCH   9  12
ENDBRANCH   5   6
ENDBRANCH   4   5
ENDBRANCH   1   4
BRANCH   1  18
ATOM     18  C   UNL     1       1.546  11.659  19.344  0.00  0.00    +0.000 C 
BRANCH  18  19
ATOM     19  O   UNL     1       1.251  10.673  18.353  0.00  0.00    +0.000 OA
BRANCH  19  20
ATOM     20  C   UNL     1       1.649   9.412  18.679  0.00  0.00    +0.000 A 
ATOM     21  C   UNL     1       1.298   8.977  19.951  0.00  0.00    +0.000 A 
ATOM     22  C   UNL     1       1.618   7.682  20.360  0.00  0.00    +0.000 A 
ATOM     23  C   UNL     1       2.264   6.779  19.494  0.00  0.00    +0.000 A 
ATOM     24  C   UNL     1       2.598   7.245  18.212  0.00  0.00    +0.000 A 
ATOM     25  C   UNL     1       2.302   8.546  17.807  0.00  0.00    +0.000 A 
BRANCH  23  26
ATOM     26  C   UNL     1       2.566   5.393  19.914  0.00  0.00    +0.000 A 
ATOM     27  C   UNL     1       1.847   4.772  20.950  0.00  0.00    +0.000 A 
ATOM     28  C   UNL     1       2.143   3.469  21.362  0.00  0.00    +0.000 A 
ATOM     29  C   UNL     1       3.149   2.751  20.727  0.00  0.00    +0.000 A 
ATOM     30  C   UNL     1       3.863   3.333  19.688  0.00  0.00    +0.000 A 
ATOM     31  C   UNL     1       3.579   4.641  19.289  0.00  0.00    +0.000 A 
ENDBRANCH  23  26
ENDBRANCH  19  20
ENDBRANCH  18  19
ENDBRANCH   1  18
TORSDOF 9
ENDMDL
MODEL 9
REMARK VINA RESULT:      -7.2      4.803     10.039
REMARK  Name = 
REMARK  9 active torsions:
REMARK  status: ('A' for Active; 'I' for Inactive)
REMARK    1  A    between atoms: O_1  and  C_2
REMARK    2  A    between atoms: C_2  and  C_3
REMARK    3  A    between atoms: C_2  and  C_17
REMARK    4  A    between atoms: C_3  and  C_4
REMARK    5  A    between atoms: C_4  and  N_5
REMARK    6  A    between atoms: N_8  and  C_9
REMARK    7  A    between atoms: C_17  and  O_18
REMARK    8  A    between atoms: O_18  and  C_19
REMARK    9  A    between atoms: C_22  and  C_23
REMARK                            x       y       z     vdW  Elec       q    Type
REMARK                         _______ _______ _______ _____ _____    ______ ____
ROOT
ATOM      1  C   UNL     1      -1.452  11.658  20.141  0.00  0.00    +0.000 C 
ENDROOT
BRANCH   1   2
ATOM      2  O   UNL     1      -0.771  11.861  21.382  0.00  0.00    +0.000 OA
ATOM      3  H   UNL     1      -0.612  10.968  21.758  0.00  0.00    +0.000 HD
ENDBRANCH   1   2
BRANCH   1   4
ATOM      4  C   UNL     1      -1.423  12.917  19.268  0.00  0.00    +0.000 C 
BRANCH   4   5
ATOM      5  C   UNL     1      -0.014  13.275  18.781  0.00  0.00    +0.000 C 
BRANCH   5   6
ATOM      6  N   UNL     1       0.882  13.721  19.865  0.00  0.00    +0.000 NA
ATOM      7  C   UNL     1       2.231  13.091  19.793  0.00  0.00    +0.000 C 
ATOM      8  C   UNL     1       3.020  13.470  18.532  0.00  0.00    +0.000 C 
ATOM      9  N   UNL     1       3.156  14.927  18.445  0.00  0.00    +0.000 N 
ATOM     10  C   UNL     1       1.923  15.715  18.620  0.00  0.00    +0.000 C 
ATOM     11  C   UNL     1       1.080  15.192  19.814  0.00  0.00    +0.000 C 
BRANCH   9  12
ATOM     12  C   UNL     1       4.399  15.529  18.514  0.00  0.00    +0.000 A 
ATOM     13  C   UNL     1       5.514  14.937  17.906  0.00  0.00    +0.000 A 
ATOM     14  C   UNL     1       6.794  15.488  18.031  0.00  0.00    +0.000 A 
ATOM     15  C   UNL     1       6.980  16.655  18.764  0.00  0.00    +0.000 A 
ATOM     16  C   UNL     1       5.890  17.279  19.355  0.00  0.00    +0.000 A 
ATOM     17  C   UNL     1       4.613  16.719  19.224  0.00  0.00    +0.000 A 
ENDBRANCH   9  12
ENDBRANCH   5   6
ENDBRANCH   4   5
ENDBRANCH   1   4
BRANCH   1  18
ATOM     18  C   UNL     1      -0.772  10.506  19.406  0.00  0.00    +0.000 C 
BRANCH  18  19
ATOM     19  O   UNL     1       0.425  10.181  20.117  0.00  0.00    +0.000 OA
BRANCH  19  20
ATOM     20  C   UNL     1       1.238   9.297  19.475  0.00  0.00    +0.000 A 
ATOM     21  C   UNL     1       1.552   8.143  20.181  0.00  0.00    +0.000 A 
ATOM     22  C   UNL     1       2.340   7.154  19.590  0.00  0.00    +0.000 A 
ATOM     23  C   UNL     1       2.802   7.281  18.265  0.00  0.00    +0.000 A 
ATOM     24  C   UNL     1       2.461   8.455  17.574  0.00  0.00    +0.000 A 
ATOM     25  C   UNL     1       1.695   9.457  18.170  0.00  0.00    +0.000 A 
BRANCH  23  26
ATOM     26  C   UNL     1       3.602   6.214  17.625  0.00  0.00    +0.000 A 
ATOM     27  C   UNL     1       3.325   4.856  17.856  0.00  0.00    +0.000 A 
ATOM     28  C   UNL     1       4.092   3.846  17.268  0.00  0.00    +0.000 A 
ATOM     29  C   UNL     1       5.138   4.175  16.413  0.00  0.00    +0.000 A 
ATOM     30  C   UNL     1       5.422   5.509  16.151  0.00  0.00    +0.000 A 
ATOM     31  C   UNL     1       4.667   6.518  16.755  0.00  0.00    +0.000 A 
ENDBRANCH  23  26
ENDBRANCH  19  20
ENDBRANCH  18  19
ENDBRANCH   1  18
TORSDOF 9
ENDMDL
