MODEL 1
REMARK VINA RESULT:      -6.8      0.000      0.000
REMARK  Name = 
REMARK  3 active torsions:
REMARK  status: ('A' for Active; 'I' for Inactive)
REMARK    1  A    between atoms: C_1  and  C_2
REMARK    2  A    between atoms: C_2  and  C_3
REMARK    3  A    between atoms: C_8  and  C_10
REMARK                            x       y       z     vdW  Elec       q    Type
REMARK                         _______ _______ _______ _____ _____    ______ ____
ROOT
ATOM      1  C   UNL     1       6.884   4.647  15.019  0.00  0.00    +0.000 A 
ATOM      2  N   UNL     1       7.717   4.654  16.039  0.00  0.00    +0.000 NA
ATOM      3  N   UNL     1       7.062   4.455  17.241  0.00  0.00    +0.000 NA
ATOM      4  C   UNL     1       5.770   4.270  17.078  0.00  0.00    +0.000 A 
ATOM      5  N   UNL     1       4.912   4.004  18.115  0.00  0.00    +0.000 N 
ATOM      6  C   UNL     1       3.593   3.626  18.006  0.00  0.00    +0.000 C 
ATOM      7  O   UNL     1       2.941   3.474  16.980  0.00  0.00    +0.000 OA
ATOM      8  S   UNL     1       5.243   4.419  15.464  0.00  0.00    +0.000 S 
ATOM      9  H   UNL     1       5.328   4.008  19.041  0.00  0.00    +0.000 HD
ENDROOT
BRANCH   6  10
ATOM     10  C   UNL     1       2.940   3.354  19.315  0.00  0.00    +0.000 A 
ATOM     11  C   UNL     1       3.642   2.693  20.313  0.00  0.00    +0.000 A 
ATOM     12  N   UNL     1       3.097   2.428  21.527  0.00  0.00    +0.000 NA
ATOM     13  C   UNL     1       1.824   2.852  21.695  0.00  0.00    +0.000 A 
ATOM     14  C   UNL     1       1.122   3.512  20.697  0.00  0.00    +0.000 A 
ATOM     15  N   UNL     1       1.655   3.787  19.481  0.00  0.00    +0.000 NA
ENDBRANCH   6  10
BRANCH   1  17
ATOM     16  C   UNL     1       6.544   3.807  12.698  0.00  0.00    +0.000 C 
ATOM     17  C   UNL     1       7.271   4.806  13.587  0.00  0.00    +0.000 C 
ENDBRANCH   1  17
TORSDOF 2
ENDMDL
MODEL 2
REMARK VINA RESULT:      -6.5      2.095      6.836
REMARK  Name = 
REMARK  3 active torsions:
REMARK  status: ('A' for Active; 'I' for Inactive)
REMARK    1  A    between atoms: C_1  and  C_2
REMARK    2  A    between atoms: C_2  and  C_3
REMARK    3  A    between atoms: C_8  and  C_10
REMARK                            x       y       z     vdW  Elec       q    Type
REMARK                         _______ _______ _______ _____ _____    ______ ____
ROOT
ATOM      1  C   UNL     1       1.591   3.238  19.555  0.00  0.00    +0.000 A 
ATOM      2  N   UNL     1       0.902   3.070  18.446  0.00  0.00    +0.000 NA
ATOM      3  N   UNL     1       1.654   3.360  17.322  0.00  0.00    +0.000 NA
ATOM      4  C   UNL     1       2.889   3.699  17.625  0.00  0.00    +0.000 A 
ATOM      5  N   UNL     1       3.842   3.984  16.681  0.00  0.00    +0.000 N 
ATOM      6  C   UNL     1       5.186   4.171  16.909  0.00  0.00    +0.000 C 
ATOM      7  O   UNL     1       5.774   4.134  17.984  0.00  0.00    +0.000 OA
ATOM      8  S   UNL     1       3.197   3.782  19.299  0.00  0.00    +0.000 S 
ATOM      9  H   UNL     1       3.524   3.969  15.716  0.00  0.00    +0.000 HD
ENDROOT
BRANCH   6  10
ATOM     10  C   UNL     1       5.975   4.412  15.671  0.00  0.00    +0.000 A 
ATOM     11  C   UNL     1       7.051   5.288  15.699  0.00  0.00    +0.000 A 
ATOM     12  N   UNL     1       7.809   5.538  14.601  0.00  0.00    +0.000 NA
ATOM     13  C   UNL     1       7.442   4.874  13.482  0.00  0.00    +0.000 A 
ATOM     14  C   UNL     1       6.366   3.999  13.454  0.00  0.00    +0.000 A 
ATOM     15  N   UNL     1       5.602   3.738  14.544  0.00  0.00    +0.000 NA
ENDBRANCH   6  10
BRANCH   1  17
ATOM     16  C   UNL     1       2.218   2.920  21.946  0.00  0.00    +0.000 C 
ATOM     17  C   UNL     1       1.082   2.984  20.935  0.00  0.00    +0.000 C 
ENDBRANCH   1  17
TORSDOF 2
ENDMDL
MODEL 3
REMARK VINA RESULT:      -6.4      0.827      1.248
REMARK  Name = 
REMARK  3 active torsions:
REMARK  status: ('A' for Active; 'I' for Inactive)
REMARK    1  A    between atoms: C_1  and  C_2
REMARK    2  A    between atoms: C_2  and  C_3
REMARK    3  A    between atoms: C_8  and  C_10
REMARK                            x       y       z     vdW  Elec       q    Type
REMARK                         _______ _______ _______ _____ _____    ______ ____
ROOT
ATOM      1  C   UNL     1       6.875   4.623  14.637  0.00  0.00    +0.000 A 
ATOM      2  N   UNL     1       7.756   4.767  15.605  0.00  0.00    +0.000 NA
ATOM      3  N   UNL     1       7.167   4.684  16.855  0.00  0.00    +0.000 NA
ATOM      4  C   UNL     1       5.876   4.445  16.780  0.00  0.00    +0.000 A 
ATOM      5  N   UNL     1       5.080   4.271  17.884  0.00  0.00    +0.000 N 
ATOM      6  C   UNL     1       3.771   3.846  17.886  0.00  0.00    +0.000 C 
ATOM      7  O   UNL     1       3.074   3.563  16.918  0.00  0.00    +0.000 OA
ATOM      8  S   UNL     1       5.267   4.399  15.190  0.00  0.00    +0.000 S 
ATOM      9  H   UNL     1       5.541   4.390  18.781  0.00  0.00    +0.000 HD
ENDROOT
BRANCH   6  10
ATOM     10  C   UNL     1       3.192   3.703  19.249  0.00  0.00    +0.000 A 
ATOM     11  C   UNL     1       2.285   4.644  19.717  0.00  0.00    +0.000 A 
ATOM     12  N   UNL     1       1.720   4.555  20.947  0.00  0.00    +0.000 NA
ATOM     13  C   UNL     1       2.104   3.489  21.685  0.00  0.00    +0.000 A 
ATOM     14  C   UNL     1       3.012   2.548  21.218  0.00  0.00    +0.000 A 
ATOM     15  N   UNL     1       3.580   2.622  19.989  0.00  0.00    +0.000 NA
ENDBRANCH   6  10
BRANCH   1  17
ATOM     16  C   UNL     1       6.381   3.582  12.428  0.00  0.00    +0.000 C 
ATOM     17  C   UNL     1       7.186   4.634  13.177  0.00  0.00    +0.000 C 
ENDBRANCH   1  17
TORSDOF 2
ENDMDL
MODEL 4
REMARK VINA RESULT:      -6.3      1.111      1.111
REMARK  Name = 
REMARK  3 active torsions:
REMARK  status: ('A' for Active; 'I' for Inactive)
REMARK    1  A    between atoms: C_1  and  C_2
REMARK    2  A    between atoms: C_2  and  C_3
REMARK    3  A    between atoms: C_8  and  C_10
REMARK                            x       y       z     vdW  Elec       q    Type
REMARK                         _______ _______ _______ _____ _____    ______ ____
ROOT
ATOM      1  C   UNL     1       6.210   5.044  14.901  0.00  0.00    +0.000 A 
ATOM      2  N   UNL     1       6.065   6.197  15.520  0.00  0.00    +0.000 NA
ATOM      3  N   UNL     1       5.241   6.089  16.627  0.00  0.00    +0.000 NA
ATOM      4  C   UNL     1       4.828   4.855  16.819  0.00  0.00    +0.000 A 
ATOM      5  N   UNL     1       4.041   4.483  17.879  0.00  0.00    +0.000 N 
ATOM      6  C   UNL     1       3.719   3.195  18.243  0.00  0.00    +0.000 C 
ATOM      7  O   UNL     1       4.055   2.155  17.689  0.00  0.00    +0.000 OA
ATOM      8  S   UNL     1       5.332   3.757  15.617  0.00  0.00    +0.000 S 
ATOM      9  H   UNL     1       3.746   5.236  18.493  0.00  0.00    +0.000 HD
ENDROOT
BRANCH   6  10
ATOM     10  C   UNL     1       2.890   3.113  19.476  0.00  0.00    +0.000 A 
ATOM     11  C   UNL     1       3.446   2.625  20.650  0.00  0.00    +0.000 A 
ATOM     12  N   UNL     1       2.737   2.537  21.804  0.00  0.00    +0.000 NA
ATOM     13  C   UNL     1       1.454   2.956  21.728  0.00  0.00    +0.000 A 
ATOM     14  C   UNL     1       0.898   3.443  20.554  0.00  0.00    +0.000 A 
ATOM     15  N   UNL     1       1.595   3.540  19.395  0.00  0.00    +0.000 NA
ENDBRANCH   6  10
BRANCH   1  17
ATOM     16  C   UNL     1       6.442   3.763  12.777  0.00  0.00    +0.000 C 
ATOM     17  C   UNL     1       7.054   4.814  13.692  0.00  0.00    +0.000 C 
ENDBRANCH   1  17
TORSDOF 2
ENDMDL
MODEL 5
REMARK VINA RESULT:      -6.2      1.973      6.904
REMARK  Name = 
REMARK  3 active torsions:
REMARK  status: ('A' for Active; 'I' for Inactive)
REMARK    1  A    between atoms: C_1  and  C_2
REMARK    2  A    between atoms: C_2  and  C_3
REMARK    3  A    between atoms: C_8  and  C_10
REMARK                            x       y       z     vdW  Elec       q    Type
REMARK                         _______ _______ _______ _____ _____    ______ ____
ROOT
ATOM      1  C   UNL     1       3.113   2.615  19.940  0.00  0.00    +0.000 A 
ATOM      2  N   UNL     1       2.566   1.837  19.029  0.00  0.00    +0.000 NA
ATOM      3  N   UNL     1       3.076   2.083  17.767  0.00  0.00    +0.000 NA
ATOM      4  C   UNL     1       4.010   3.008  17.780  0.00  0.00    +0.000 A 
ATOM      5  N   UNL     1       4.702   3.394  16.660  0.00  0.00    +0.000 N 
ATOM      6  C   UNL     1       5.803   4.217  16.625  0.00  0.00    +0.000 C 
ATOM      7  O   UNL     1       6.357   4.767  17.570  0.00  0.00    +0.000 OA
ATOM      8  S   UNL     1       4.270   3.713  19.310  0.00  0.00    +0.000 S 
ATOM      9  H   UNL     1       4.412   2.953  15.792  0.00  0.00    +0.000 HD
ENDROOT
BRANCH   6  10
ATOM     10  C   UNL     1       6.366   4.405  15.260  0.00  0.00    +0.000 A 
ATOM     11  C   UNL     1       7.377   5.333  15.052  0.00  0.00    +0.000 A 
ATOM     12  N   UNL     1       7.932   5.537  13.831  0.00  0.00    +0.000 NA
ATOM     13  C   UNL     1       7.430   4.775  12.833  0.00  0.00    +0.000 A 
ATOM     14  C   UNL     1       6.418   3.848  13.041  0.00  0.00    +0.000 A 
ATOM     15  N   UNL     1       5.858   3.631  14.257  0.00  0.00    +0.000 NA
ENDBRANCH   6  10
BRANCH   1  17
ATOM     16  C   UNL     1       1.323   2.809  21.662  0.00  0.00    +0.000 C 
ATOM     17  C   UNL     1       2.805   2.584  21.400  0.00  0.00    +0.000 C 
ENDBRANCH   1  17
TORSDOF 2
ENDMDL
MODEL 6
REMARK VINA RESULT:      -6.2      2.029      7.000
REMARK  Name = 
REMARK  3 active torsions:
REMARK  status: ('A' for Active; 'I' for Inactive)
REMARK    1  A    between atoms: C_1  and  C_2
REMARK    2  A    between atoms: C_2  and  C_3
REMARK    3  A    between atoms: C_8  and  C_10
REMARK                            x       y       z     vdW  Elec       q    Type
REMARK                         _______ _______ _______ _____ _____    ______ ____
ROOT
ATOM      1  C   UNL     1       3.162   2.902  19.637  0.00  0.00    +0.000 A 
ATOM      2  N   UNL     1       2.409   2.350  18.709  0.00  0.00    +0.000 NA
ATOM      3  N   UNL     1       2.896   2.594  17.436  0.00  0.00    +0.000 NA
ATOM      4  C   UNL     1       4.014   3.287  17.457  0.00  0.00    +0.000 A 
ATOM      5  N   UNL     1       4.717   3.613  16.325  0.00  0.00    +0.000 N 
ATOM      6  C   UNL     1       5.972   4.175  16.278  0.00  0.00    +0.000 C 
ATOM      7  O   UNL     1       6.681   4.501  17.222  0.00  0.00    +0.000 OA
ATOM      8  S   UNL     1       4.502   3.774  19.015  0.00  0.00    +0.000 S 
ATOM      9  H   UNL     1       4.292   3.328  15.448  0.00  0.00    +0.000 HD
ENDROOT
BRANCH   6  10
ATOM     10  C   UNL     1       6.492   4.359  14.896  0.00  0.00    +0.000 A 
ATOM     11  C   UNL     1       5.931   3.646  13.846  0.00  0.00    +0.000 A 
ATOM     12  N   UNL     1       6.361   3.782  12.567  0.00  0.00    +0.000 NA
ATOM     13  C   UNL     1       7.374   4.660  12.388  0.00  0.00    +0.000 A 
ATOM     14  C   UNL     1       7.936   5.373  13.438  0.00  0.00    +0.000 A 
ATOM     15  N   UNL     1       7.513   5.249  14.720  0.00  0.00    +0.000 NA
ENDBRANCH   6  10
BRANCH   1  17
ATOM     16  C   UNL     1       1.444   2.769  21.437  0.00  0.00    +0.000 C 
ATOM     17  C   UNL     1       2.930   2.806  21.108  0.00  0.00    +0.000 C 
ENDBRANCH   1  17
TORSDOF 2
ENDMDL
MODEL 7
REMARK VINA RESULT:      -6.1      1.902      6.843
REMARK  Name = 
REMARK  3 active torsions:
REMARK  status: ('A' for Active; 'I' for Inactive)
REMARK    1  A    between atoms: C_1  and  C_2
REMARK    2  A    between atoms: C_2  and  C_3
REMARK    3  A    between atoms: C_8  and  C_10
REMARK                            x       y       z     vdW  Elec       q    Type
REMARK                         _______ _______ _______ _____ _____    ______ ____
ROOT
ATOM      1  C   UNL     1       1.984   3.169  19.515  0.00  0.00    +0.000 A 
ATOM      2  N   UNL     1       2.346   1.959  19.142  0.00  0.00    +0.000 NA
ATOM      3  N   UNL     1       3.201   1.990  18.054  0.00  0.00    +0.000 NA
ATOM      4  C   UNL     1       3.478   3.218  17.674  0.00  0.00    +0.000 A 
ATOM      5  N   UNL     1       4.341   3.511  16.649  0.00  0.00    +0.000 N 
ATOM      6  C   UNL     1       4.814   4.758  16.312  0.00  0.00    +0.000 C 
ATOM      7  O   UNL     1       4.545   5.829  16.844  0.00  0.00    +0.000 OA
ATOM      8  S   UNL     1       2.646   4.421  18.548  0.00  0.00    +0.000 S 
ATOM      9  H   UNL     1       4.724   2.710  16.155  0.00  0.00    +0.000 HD
ENDROOT
BRANCH   6  10
ATOM     10  C   UNL     1       5.783   4.745  15.183  0.00  0.00    +0.000 A 
ATOM     11  C   UNL     1       6.988   5.424  15.300  0.00  0.00    +0.000 A 
ATOM     12  N   UNL     1       7.911   5.437  14.305  0.00  0.00    +0.000 NA
ATOM     13  C   UNL     1       7.573   4.745  13.194  0.00  0.00    +0.000 A 
ATOM     14  C   UNL     1       6.367   4.067  13.076  0.00  0.00    +0.000 A 
ATOM     15  N   UNL     1       5.438   4.043  14.064  0.00  0.00    +0.000 NA
ENDBRANCH   6  10
BRANCH   1  17
ATOM     16  C   UNL     1       1.404   2.607  21.872  0.00  0.00    +0.000 C 
ATOM     17  C   UNL     1       1.092   3.486  20.669  0.00  0.00    +0.000 C 
ENDBRANCH   1  17
TORSDOF 2
ENDMDL
MODEL 8
REMARK VINA RESULT:      -6.1      1.328      1.702
REMARK  Name = 
REMARK  3 active torsions:
REMARK  status: ('A' for Active; 'I' for Inactive)
REMARK    1  A    between atoms: C_1  and  C_2
REMARK    2  A    between atoms: C_2  and  C_3
REMARK    3  A    between atoms: C_8  and  C_10
REMARK                            x       y       z     vdW  Elec       q    Type
REMARK                         _______ _______ _______ _____ _____    ______ ____
ROOT
ATOM      1  C   UNL     1       6.181   5.029  14.722  0.00  0.00    +0.000 A 
ATOM      2  N   UNL     1       5.900   6.213  15.227  0.00  0.00    +0.000 NA
ATOM      3  N   UNL     1       5.046   6.121  16.312  0.00  0.00    +0.000 NA
ATOM      4  C   UNL     1       4.748   4.874  16.605  0.00  0.00    +0.000 A 
ATOM      5  N   UNL     1       3.958   4.521  17.670  0.00  0.00    +0.000 N 
ATOM      6  C   UNL     1       3.748   3.246  18.142  0.00  0.00    +0.000 C 
ATOM      7  O   UNL     1       4.205   2.199  17.698  0.00  0.00    +0.000 OA
ATOM      8  S   UNL     1       5.404   3.729  15.527  0.00  0.00    +0.000 S 
ATOM      9  H   UNL     1       3.566   5.293  18.201  0.00  0.00    +0.000 HD
ENDROOT
BRANCH   6  10
ATOM     10  C   UNL     1       2.881   3.191  19.350  0.00  0.00    +0.000 A 
ATOM     11  C   UNL     1       1.578   3.664  19.286  0.00  0.00    +0.000 A 
ATOM     12  N   UNL     1       0.743   3.629  20.355  0.00  0.00    +0.000 NA
ATOM     13  C   UNL     1       1.270   3.103  21.484  0.00  0.00    +0.000 A 
ATOM     14  C   UNL     1       2.573   2.630  21.548  0.00  0.00    +0.000 A 
ATOM     15  N   UNL     1       3.417   2.656  20.486  0.00  0.00    +0.000 NA
ENDBRANCH   6  10
BRANCH   1  17
ATOM     16  C   UNL     1       6.495   3.770  12.596  0.00  0.00    +0.000 C 
ATOM     17  C   UNL     1       7.092   4.778  13.567  0.00  0.00    +0.000 C 
ENDBRANCH   1  17
TORSDOF 2
ENDMDL
MODEL 9
REMARK VINA RESULT:      -5.9      2.136      6.948
REMARK  Name = 
REMARK  3 active torsions:
REMARK  status: ('A' for Active; 'I' for Inactive)
REMARK    1  A    between atoms: C_1  and  C_2
REMARK    2  A    between atoms: C_2  and  C_3
REMARK    3  A    between atoms: C_8  and  C_10
REMARK                            x       y       z     vdW  Elec       q    Type
REMARK                         _______ _______ _______ _____ _____    ______ ____
ROOT
ATOM      1  C   UNL     1       2.946   4.166  19.493  0.00  0.00    +0.000 A 
ATOM      2  N   UNL     1       2.798   2.942  19.030  0.00  0.00    +0.000 NA
ATOM      3  N   UNL     1       3.409   2.780  17.799  0.00  0.00    +0.000 NA
ATOM      4  C   UNL     1       4.022   3.873  17.400  0.00  0.00    +0.000 A 
ATOM      5  N   UNL     1       4.742   3.949  16.235  0.00  0.00    +0.000 N 
ATOM      6  C   UNL     1       5.550   4.991  15.842  0.00  0.00    +0.000 C 
ATOM      7  O   UNL     1       5.764   6.039  16.440  0.00  0.00    +0.000 OA
ATOM      8  S   UNL     1       3.821   5.204  18.445  0.00  0.00    +0.000 S 
ATOM      9  H   UNL     1       4.734   3.112  15.659  0.00  0.00    +0.000 HD
ENDROOT
BRANCH   6  10
ATOM     10  C   UNL     1       6.244   4.753  14.547  0.00  0.00    +0.000 A 
ATOM     11  C   UNL     1       5.734   3.823  13.651  0.00  0.00    +0.000 A 
ATOM     12  N   UNL     1       6.322   3.575  12.454  0.00  0.00    +0.000 NA
ATOM     13  C   UNL     1       7.438   4.294  12.197  0.00  0.00    +0.000 A 
ATOM     14  C   UNL     1       7.948   5.222  13.093  0.00  0.00    +0.000 A 
ATOM     15  N   UNL     1       7.369   5.483  14.291  0.00  0.00    +0.000 NA
ENDBRANCH   6  10
BRANCH   1  17
ATOM     16  C   UNL     1       1.669   5.968  20.647  0.00  0.00    +0.000 C 
ATOM     17  C   UNL     1       2.432   4.660  20.804  0.00  0.00    +0.000 C 
ENDBRANCH   1  17
TORSDOF 2
ENDMDL
