MODEL 1
REMARK VINA RESULT:      -6.4      0.000      0.000
REMARK  Name = 
REMARK  1 active torsions:
REMARK  status: ('A' for Active; 'I' for Inactive)
REMARK    1  A    between atoms: C_2  and  C_3
REMARK                            x       y       z     vdW  Elec       q    Type
REMARK                         _______ _______ _______ _____ _____    ______ ____
ROOT
ATOM      1  C   UNL     1       1.957   3.895  19.454  0.00  0.00    +0.000 C 
ATOM      2  C   UNL     1       3.060   2.855  19.391  0.00  0.00    +0.000 C 
ATOM      3  C   UNL     1       3.665   2.782  18.013  0.00  0.00    +0.000 C 
ATOM      4  O   UNL     1       3.832   1.709  17.441  0.00  0.00    +0.000 OA
ATOM      5  C   UNL     1       4.143   4.037  17.380  0.00  0.00    +0.000 A 
ATOM      6  C   UNL     1       5.036   3.932  16.301  0.00  0.00    +0.000 A 
ATOM      7  C   UNL     1       5.552   5.080  15.708  0.00  0.00    +0.000 A 
ATOM      8 CL   UNL     1       6.670   4.949  14.410  0.00  0.00    +0.000 Cl
ATOM      9  C   UNL     1       5.176   6.338  16.171  0.00  0.00    +0.000 A 
ATOM     10  C   UNL     1       4.279   6.443  17.237  0.00  0.00    +0.000 A 
ATOM     11  C   UNL     1       3.753   5.297  17.853  0.00  0.00    +0.000 A 
ATOM     12  S   UNL     1       2.643   5.572  19.218  0.00  0.00    +0.000 S 
ENDROOT
BRANCH   1  14
ATOM     13  C   UNL     1       1.373   2.890  21.697  0.00  0.00    +0.000 C 
ATOM     14  C   UNL     1       1.282   3.885  20.802  0.00  0.00    +0.000 C 
ENDBRANCH   1  14
TORSDOF 1
ENDMDL
MODEL 2
REMARK VINA RESULT:      -6.1      3.283      5.131
REMARK  Name = 
REMARK  1 active torsions:
REMARK  status: ('A' for Active; 'I' for Inactive)
REMARK    1  A    between atoms: C_2  and  C_3
REMARK                            x       y       z     vdW  Elec       q    Type
REMARK                         _______ _______ _______ _____ _____    ______ ____
ROOT
ATOM      1  C   UNL     1       6.282   5.174  16.376  0.00  0.00    +0.000 C 
ATOM      2  C   UNL     1       5.551   4.003  17.007  0.00  0.00    +0.000 C 
ATOM      3  C   UNL     1       4.970   4.378  18.346  0.00  0.00    +0.000 C 
ATOM      4  O   UNL     1       5.131   3.672  19.336  0.00  0.00    +0.000 OA
ATOM      5  C   UNL     1       4.117   5.591  18.435  0.00  0.00    +0.000 A 
ATOM      6  C   UNL     1       3.279   5.724  19.555  0.00  0.00    +0.000 A 
ATOM      7  C   UNL     1       2.424   6.817  19.659  0.00  0.00    +0.000 A 
ATOM      8 CL   UNL     1       1.374   6.962  21.012  0.00  0.00    +0.000 Cl
ATOM      9  C   UNL     1       2.404   7.789  18.662  0.00  0.00    +0.000 A 
ATOM     10  C   UNL     1       3.245   7.662  17.555  0.00  0.00    +0.000 A 
ATOM     11  C   UNL     1       4.110   6.564  17.428  0.00  0.00    +0.000 A 
ATOM     12  S   UNL     1       5.108   6.510  15.954  0.00  0.00    +0.000 S 
ENDROOT
BRANCH   1  14
ATOM     13  C   UNL     1       6.372   4.044  14.118  0.00  0.00    +0.000 C 
ATOM     14  C   UNL     1       6.953   4.760  15.090  0.00  0.00    +0.000 C 
ENDBRANCH   1  14
TORSDOF 1
ENDMDL
MODEL 3
REMARK VINA RESULT:      -6.0      3.209      5.471
REMARK  Name = 
REMARK  1 active torsions:
REMARK  status: ('A' for Active; 'I' for Inactive)
REMARK    1  A    between atoms: C_2  and  C_3
REMARK                            x       y       z     vdW  Elec       q    Type
REMARK                         _______ _______ _______ _____ _____    ______ ____
ROOT
ATOM      1  C   UNL     1       6.227   5.125  16.299  0.00  0.00    +0.000 C 
ATOM      2  C   UNL     1       6.816   4.542  17.570  0.00  0.00    +0.000 C 
ATOM      3  C   UNL     1       5.902   4.759  18.748  0.00  0.00    +0.000 C 
ATOM      4  O   UNL     1       6.319   5.208  19.811  0.00  0.00    +0.000 OA
ATOM      5  C   UNL     1       4.483   4.338  18.631  0.00  0.00    +0.000 A 
ATOM      6  C   UNL     1       3.745   4.178  19.816  0.00  0.00    +0.000 A 
ATOM      7  C   UNL     1       2.426   3.735  19.762  0.00  0.00    +0.000 A 
ATOM      8 CL   UNL     1       1.535   3.508  21.213  0.00  0.00    +0.000 Cl
ATOM      9  C   UNL     1       1.829   3.462  18.535  0.00  0.00    +0.000 A 
ATOM     10  C   UNL     1       2.558   3.631  17.356  0.00  0.00    +0.000 A 
ATOM     11  C   UNL     1       3.891   4.070  17.390  0.00  0.00    +0.000 A 
ATOM     12  S   UNL     1       4.715   4.217  15.818  0.00  0.00    +0.000 S 
ENDROOT
BRANCH   1  14
ATOM     13  C   UNL     1       6.876   4.564  13.924  0.00  0.00    +0.000 C 
ATOM     14  C   UNL     1       7.195   5.003  15.150  0.00  0.00    +0.000 C 
ENDBRANCH   1  14
TORSDOF 1
ENDMDL
MODEL 4
REMARK VINA RESULT:      -5.8      2.596      3.094
REMARK  Name = 
REMARK  1 active torsions:
REMARK  status: ('A' for Active; 'I' for Inactive)
REMARK    1  A    between atoms: C_2  and  C_3
REMARK                            x       y       z     vdW  Elec       q    Type
REMARK                         _______ _______ _______ _____ _____    ______ ____
ROOT
ATOM      1  C   UNL     1       2.128   4.336  19.403  0.00  0.00    +0.000 C 
ATOM      2  C   UNL     1       1.910   5.168  18.153  0.00  0.00    +0.000 C 
ATOM      3  C   UNL     1       2.911   6.290  18.061  0.00  0.00    +0.000 C 
ATOM      4  O   UNL     1       2.565   7.443  17.821  0.00  0.00    +0.000 OA
ATOM      5  C   UNL     1       4.355   5.964  18.184  0.00  0.00    +0.000 A 
ATOM      6  C   UNL     1       5.285   6.911  17.721  0.00  0.00    +0.000 A 
ATOM      7  C   UNL     1       6.647   6.630  17.767  0.00  0.00    +0.000 A 
ATOM      8 CL   UNL     1       7.782   7.775  17.170  0.00  0.00    +0.000 Cl
ATOM      9  C   UNL     1       7.096   5.418  18.283  0.00  0.00    +0.000 A 
ATOM     10  C   UNL     1       6.173   4.481  18.753  0.00  0.00    +0.000 A 
ATOM     11  C   UNL     1       4.795   4.743  18.709  0.00  0.00    +0.000 A 
ATOM     12  S   UNL     1       3.726   3.453  19.314  0.00  0.00    +0.000 S 
ENDROOT
BRANCH   1  14
ATOM     13  C   UNL     1       0.889   2.244  18.719  0.00  0.00    +0.000 C 
ATOM     14  C   UNL     1       1.056   3.286  19.546  0.00  0.00    +0.000 C 
ENDBRANCH   1  14
TORSDOF 1
ENDMDL
MODEL 5
REMARK VINA RESULT:      -5.8      1.178      1.397
REMARK  Name = 
REMARK  1 active torsions:
REMARK  status: ('A' for Active; 'I' for Inactive)
REMARK    1  A    between atoms: C_2  and  C_3
REMARK                            x       y       z     vdW  Elec       q    Type
REMARK                         _______ _______ _______ _____ _____    ______ ____
ROOT
ATOM      1  C   UNL     1       2.242   5.055  19.286  0.00  0.00    +0.000 C 
ATOM      2  C   UNL     1       3.157   3.856  19.449  0.00  0.00    +0.000 C 
ATOM      3  C   UNL     1       3.623   3.337  18.114  0.00  0.00    +0.000 C 
ATOM      4  O   UNL     1       3.568   2.144  17.833  0.00  0.00    +0.000 OA
ATOM      5  C   UNL     1       4.237   4.292  17.156  0.00  0.00    +0.000 A 
ATOM      6  C   UNL     1       5.007   3.766  16.105  0.00  0.00    +0.000 A 
ATOM      7  C   UNL     1       5.646   4.622  15.213  0.00  0.00    +0.000 A 
ATOM      8 CL   UNL     1       6.614   3.979  13.947  0.00  0.00    +0.000 Cl
ATOM      9  C   UNL     1       5.515   6.002  15.349  0.00  0.00    +0.000 A 
ATOM     10  C   UNL     1       4.740   6.524  16.387  0.00  0.00    +0.000 A 
ATOM     11  C   UNL     1       4.094   5.678  17.301  0.00  0.00    +0.000 A 
ATOM     12  S   UNL     1       3.162   6.474  18.593  0.00  0.00    +0.000 S 
ENDROOT
BRANCH   1  14
ATOM     13  C   UNL     1       1.437   6.771  20.956  0.00  0.00    +0.000 C 
ATOM     14  C   UNL     1       1.692   5.500  20.618  0.00  0.00    +0.000 C 
ENDBRANCH   1  14
TORSDOF 1
ENDMDL
MODEL 6
REMARK VINA RESULT:      -5.8      3.216      5.319
REMARK  Name = 
REMARK  1 active torsions:
REMARK  status: ('A' for Active; 'I' for Inactive)
REMARK    1  A    between atoms: C_2  and  C_3
REMARK                            x       y       z     vdW  Elec       q    Type
REMARK                         _______ _______ _______ _____ _____    ______ ____
ROOT
ATOM      1  C   UNL     1       5.788   6.250  16.813  0.00  0.00    +0.000 C 
ATOM      2  C   UNL     1       4.949   6.867  17.916  0.00  0.00    +0.000 C 
ATOM      3  C   UNL     1       3.537   6.342  17.888  0.00  0.00    +0.000 C 
ATOM      4  O   UNL     1       2.570   7.096  17.941  0.00  0.00    +0.000 OA
ATOM      5  C   UNL     1       3.327   4.872  17.881  0.00  0.00    +0.000 A 
ATOM      6  C   UNL     1       2.058   4.387  18.241  0.00  0.00    +0.000 A 
ATOM      7  C   UNL     1       1.827   3.016  18.300  0.00  0.00    +0.000 A 
ATOM      8 CL   UNL     1       0.285   2.424  18.774  0.00  0.00    +0.000 Cl
ATOM      9  C   UNL     1       2.845   2.119  17.988  0.00  0.00    +0.000 A 
ATOM     10  C   UNL     1       4.103   2.601  17.618  0.00  0.00    +0.000 A 
ATOM     11  C   UNL     1       4.358   3.980  17.561  0.00  0.00    +0.000 A 
ATOM     12  S   UNL     1       6.011   4.459  17.103  0.00  0.00    +0.000 S 
ENDROOT
BRANCH   1  14
ATOM     13  C   UNL     1       7.713   7.575  17.771  0.00  0.00    +0.000 C 
ATOM     14  C   UNL     1       7.166   6.861  16.777  0.00  0.00    +0.000 C 
ENDBRANCH   1  14
TORSDOF 1
ENDMDL
MODEL 7
REMARK VINA RESULT:      -5.7      2.856      5.128
REMARK  Name = 
REMARK  1 active torsions:
REMARK  status: ('A' for Active; 'I' for Inactive)
REMARK    1  A    between atoms: C_2  and  C_3
REMARK                            x       y       z     vdW  Elec       q    Type
REMARK                         _______ _______ _______ _____ _____    ______ ____
ROOT
ATOM      1  C   UNL     1       5.166   4.678  16.832  0.00  0.00    +0.000 C 
ATOM      2  C   UNL     1       4.252   3.514  16.497  0.00  0.00    +0.000 C 
ATOM      3  C   UNL     1       3.854   2.757  17.738  0.00  0.00    +0.000 C 
ATOM      4  O   UNL     1       3.931   1.533  17.796  0.00  0.00    +0.000 OA
ATOM      5  C   UNL     1       3.280   3.515  18.878  0.00  0.00    +0.000 A 
ATOM      6  C   UNL     1       2.565   2.798  19.852  0.00  0.00    +0.000 A 
ATOM      7  C   UNL     1       1.963   3.470  20.912  0.00  0.00    +0.000 A 
ATOM      8 CL   UNL     1       1.061   2.595  22.084  0.00  0.00    +0.000 Cl
ATOM      9  C   UNL     1       2.079   4.853  21.021  0.00  0.00    +0.000 A 
ATOM     10  C   UNL     1       2.799   5.565  20.059  0.00  0.00    +0.000 A 
ATOM     11  C   UNL     1       3.407   4.906  18.979  0.00  0.00    +0.000 A 
ATOM     12  S   UNL     1       4.271   5.936  17.810  0.00  0.00    +0.000 S 
ENDROOT
BRANCH   1  14
ATOM     13  C   UNL     1       5.919   4.741  14.422  0.00  0.00    +0.000 C 
ATOM     14  C   UNL     1       5.649   5.362  15.578  0.00  0.00    +0.000 C 
ENDBRANCH   1  14
TORSDOF 1
ENDMDL
MODEL 8
REMARK VINA RESULT:      -5.7      1.533      1.606
REMARK  Name = 
REMARK  1 active torsions:
REMARK  status: ('A' for Active; 'I' for Inactive)
REMARK    1  A    between atoms: C_2  and  C_3
REMARK                            x       y       z     vdW  Elec       q    Type
REMARK                         _______ _______ _______ _____ _____    ______ ____
ROOT
ATOM      1  C   UNL     1       2.705   4.254  19.819  0.00  0.00    +0.000 C 
ATOM      2  C   UNL     1       2.361   3.163  18.821  0.00  0.00    +0.000 C 
ATOM      3  C   UNL     1       2.814   3.531  17.432  0.00  0.00    +0.000 C 
ATOM      4  O   UNL     1       2.066   3.428  16.464  0.00  0.00    +0.000 OA
ATOM      5  C   UNL     1       4.225   3.947  17.232  0.00  0.00    +0.000 A 
ATOM      6  C   UNL     1       4.743   3.912  15.926  0.00  0.00    +0.000 A 
ATOM      7  C   UNL     1       6.075   4.243  15.695  0.00  0.00    +0.000 A 
ATOM      8 CL   UNL     1       6.716   4.167  14.103  0.00  0.00    +0.000 Cl
ATOM      9  C   UNL     1       6.896   4.623  16.753  0.00  0.00    +0.000 A 
ATOM     10  C   UNL     1       6.379   4.669  18.049  0.00  0.00    +0.000 A 
ATOM     11  C   UNL     1       5.040   4.332  18.304  0.00  0.00    +0.000 A 
ATOM     12  S   UNL     1       4.517   4.405  20.004  0.00  0.00    +0.000 S 
ENDROOT
BRANCH   1  14
ATOM     13  C   UNL     1       1.667   2.735  21.550  0.00  0.00    +0.000 C 
ATOM     14  C   UNL     1       2.151   3.930  21.184  0.00  0.00    +0.000 C 
ENDBRANCH   1  14
TORSDOF 1
ENDMDL
MODEL 9
REMARK VINA RESULT:      -5.6      3.157      5.689
REMARK  Name = 
REMARK  1 active torsions:
REMARK  status: ('A' for Active; 'I' for Inactive)
REMARK    1  A    between atoms: C_2  and  C_3
REMARK                            x       y       z     vdW  Elec       q    Type
REMARK                         _______ _______ _______ _____ _____    ______ ____
ROOT
ATOM      1  C   UNL     1       5.585   5.204  15.520  0.00  0.00    +0.000 C 
ATOM      2  C   UNL     1       5.592   6.205  16.661  0.00  0.00    +0.000 C 
ATOM      3  C   UNL     1       4.242   6.289  17.323  0.00  0.00    +0.000 C 
ATOM      4  O   UNL     1       3.703   7.369  17.550  0.00  0.00    +0.000 OA
ATOM      5  C   UNL     1       3.597   5.032  17.782  0.00  0.00    +0.000 A 
ATOM      6  C   UNL     1       2.557   5.132  18.721  0.00  0.00    +0.000 A 
ATOM      7  C   UNL     1       1.956   3.980  19.220  0.00  0.00    +0.000 A 
ATOM      8 CL   UNL     1       0.707   4.101  20.394  0.00  0.00    +0.000 Cl
ATOM      9  C   UNL     1       2.372   2.726  18.782  0.00  0.00    +0.000 A 
ATOM     10  C   UNL     1       3.398   2.627  17.840  0.00  0.00    +0.000 A 
ATOM     11  C   UNL     1       4.021   3.777  17.330  0.00  0.00    +0.000 A 
ATOM     12  S   UNL     1       5.334   3.510  16.156  0.00  0.00    +0.000 S 
ENDROOT
BRANCH   1  14
ATOM     13  C   UNL     1       7.093   4.752  13.545  0.00  0.00    +0.000 C 
ATOM     14  C   UNL     1       6.905   5.207  14.792  0.00  0.00    +0.000 C 
ENDBRANCH   1  14
TORSDOF 1
ENDMDL
