MODEL 1
REMARK VINA RESULT:      -9.3      0.000      0.000
REMARK  Name = 
REMARK  11 active torsions:
REMARK  status: ('A' for Active; 'I' for Inactive)
REMARK    1  A    between atoms: C_1  and  C_2
REMARK    2  A    between atoms: C_2  and  O_3
REMARK    3  A    between atoms: C_2  and  C_31
REMARK    4  A    between atoms: O_3  and  C_4
REMARK    5  A    between atoms: N_6  and  C_7
REMARK    6  A    between atoms: C_8  and  C_9
REMARK    7  A    between atoms: C_12  and  C_13
REMARK    8  A    between atoms: C_16  and  C_17
REMARK    9  A    between atoms: C_17  and  C_18
REMARK   10  A    between atoms: C_18  and  O_20
REMARK   11  A    between atoms: N_29  and  C_30
REMARK                            x       y       z     vdW  Elec       q    Type
REMARK                         _______ _______ _______ _____ _____    ______ ____
ROOT
ATOM      1  C   UNL     1      -1.185  10.912  21.153  0.00  0.00    +0.000 A 
ATOM      2  C   UNL     1      -0.063  10.185  21.512  0.00  0.00    +0.000 A 
ATOM      3  N   UNL     1       0.214  10.395  22.834  0.00  0.00    +0.000 NA
ATOM      4  N   UNL     1      -0.685  11.245  23.314  0.00  0.00    +0.000 NA
ATOM      5  N   UNL     1      -1.514  11.581  22.307  0.00  0.00    +0.000 N 
ATOM      6  C   UNL     1      -2.708  12.328  22.597  0.00  0.00    +0.000 C 
ENDROOT
BRANCH   2   7
ATOM      7  C   UNL     1       0.763   9.389  20.628  0.00  0.00    +0.000 A 
ATOM      8  C   UNL     1       1.257   8.149  21.042  0.00  0.00    +0.000 A 
ATOM      9  C   UNL     1       2.080   7.397  20.212  0.00  0.00    +0.000 A 
ATOM     10  C   UNL     1       2.382   7.817  18.908  0.00  0.00    +0.000 A 
ATOM     11  C   UNL     1       1.846   9.046  18.483  0.00  0.00    +0.000 A 
ATOM     12  C   UNL     1       1.049   9.827  19.333  0.00  0.00    +0.000 A 
BRANCH  10  13
ATOM     13  C   UNL     1       3.186   6.952  18.022  0.00  0.00    +0.000 A 
ATOM     14  C   UNL     1       4.131   7.516  17.148  0.00  0.00    +0.000 A 
ATOM     15  C   UNL     1       4.926   6.722  16.325  0.00  0.00    +0.000 A 
ATOM     16  C   UNL     1       4.835   5.326  16.351  0.00  0.00    +0.000 A 
ATOM     17  C   UNL     1       3.872   4.758  17.199  0.00  0.00    +0.000 A 
ATOM     18  C   UNL     1       3.060   5.556  18.016  0.00  0.00    +0.000 A 
BRANCH  16  19
ATOM     19  C   UNL     1       5.828   4.496  15.557  0.00  0.00    +0.000 C 
ATOM     20  C   UNL     1       5.503   3.061  15.163  0.00  0.00    +0.000 C 
ATOM     21  C   UNL     1       5.426   4.138  14.128  0.00  0.00    +0.000 C 
BRANCH  19  22
ATOM     22  C   UNL     1       7.269   4.840  15.817  0.00  0.00    +0.000 C 
ATOM     23  O   UNL     1       7.875   4.437  16.795  0.00  0.00    +0.000 OA
BRANCH  22  24
ATOM     24  O   UNL     1       7.819   5.610  14.849  0.00  0.00    +0.000 OA
ATOM     25  H   UNL     1       7.243   5.668  14.064  0.00  0.00    +0.000 HD
ENDBRANCH  22  24
ENDBRANCH  19  22
ENDBRANCH  16  19
ENDBRANCH  10  13
ENDBRANCH   2   7
BRANCH   1  28
ATOM     26  C   UNL     1      -1.728  12.048  19.059  0.00  0.00    +0.000 C 
ATOM     27  O   UNL     1      -1.163  13.059  19.427  0.00  0.00    +0.000 OA
ATOM     28  N   UNL     1      -1.808  10.911  19.909  0.00  0.00    +0.000 N 
ATOM     29  H   UNL     1      -2.038  10.031  19.473  0.00  0.00    +0.000 HD
BRANCH  26  30
ATOM     30  O   UNL     1      -2.266  11.795  17.845  0.00  0.00    +0.000 OA
BRANCH  30  32
ATOM     31  C   UNL     1      -2.860   9.793  16.573  0.00  0.00    +0.000 C 
ATOM     32  C   UNL     1      -3.131  10.643  17.816  0.00  0.00    +0.000 C 
BRANCH  32  33
ATOM     33  C   UNL     1      -4.592  11.068  17.786  0.00  0.00    +0.000 A 
ATOM     34  C   UNL     1      -4.978  12.141  16.964  0.00  0.00    +0.000 A 
ATOM     35  C   UNL     1      -6.266  12.675  17.041  0.00  0.00    +0.000 A 
ATOM     36  C   UNL     1      -7.189  12.139  17.933  0.00  0.00    +0.000 A 
ATOM     37  C   UNL     1      -6.833  11.054  18.734  0.00  0.00    +0.000 A 
ATOM     38  C   UNL     1      -5.543  10.519  18.661  0.00  0.00    +0.000 A 
ENDBRANCH  32  33
ENDBRANCH  30  32
ENDBRANCH  26  30
ENDBRANCH   1  28
TORSDOF 9
ENDMDL
MODEL 2
REMARK VINA RESULT:      -9.0      2.672      4.327
REMARK  Name = 
REMARK  11 active torsions:
REMARK  status: ('A' for Active; 'I' for Inactive)
REMARK    1  A    between atoms: C_1  and  C_2
REMARK    2  A    between atoms: C_2  and  O_3
REMARK    3  A    between atoms: C_2  and  C_31
REMARK    4  A    between atoms: O_3  and  C_4
REMARK    5  A    between atoms: N_6  and  C_7
REMARK    6  A    between atoms: C_8  and  C_9
REMARK    7  A    between atoms: C_12  and  C_13
REMARK    8  A    between atoms: C_16  and  C_17
REMARK    9  A    between atoms: C_17  and  C_18
REMARK   10  A    between atoms: C_18  and  O_20
REMARK   11  A    between atoms: N_29  and  C_30
REMARK                            x       y       z     vdW  Elec       q    Type
REMARK                         _______ _______ _______ _____ _____    ______ ____
ROOT
ATOM      1  C   UNL     1      -2.517  14.072  22.612  0.00  0.00    +0.000 A 
ATOM      2  C   UNL     1      -1.315  13.473  22.951  0.00  0.00    +0.000 A 
ATOM      3  N   UNL     1      -0.727  14.172  23.967  0.00  0.00    +0.000 NA
ATOM      4  N   UNL     1      -1.508  15.201  24.266  0.00  0.00    +0.000 NA
ATOM      5  N   UNL     1      -2.573  15.165  23.442  0.00  0.00    +0.000 N 
ATOM      6  C   UNL     1      -3.683  16.046  23.685  0.00  0.00    +0.000 C 
ENDROOT
BRANCH   2   7
ATOM      7  C   UNL     1      -0.708  12.336  22.291  0.00  0.00    +0.000 A 
ATOM      8  C   UNL     1       0.214  12.524  21.257  0.00  0.00    +0.000 A 
ATOM      9  C   UNL     1       0.773  11.437  20.595  0.00  0.00    +0.000 A 
ATOM     10  C   UNL     1       0.491  10.120  20.986  0.00  0.00    +0.000 A 
ATOM     11  C   UNL     1      -0.406   9.939  22.054  0.00  0.00    +0.000 A 
ATOM     12  C   UNL     1      -1.003  11.033  22.699  0.00  0.00    +0.000 A 
BRANCH  10  13
ATOM     13  C   UNL     1       1.170   8.991  20.319  0.00  0.00    +0.000 A 
ATOM     14  C   UNL     1       1.420   7.800  21.022  0.00  0.00    +0.000 A 
ATOM     15  C   UNL     1       2.029   6.707  20.410  0.00  0.00    +0.000 A 
ATOM     16  C   UNL     1       2.394   6.740  19.059  0.00  0.00    +0.000 A 
ATOM     17  C   UNL     1       2.174   7.936  18.360  0.00  0.00    +0.000 A 
ATOM     18  C   UNL     1       1.577   9.042  18.979  0.00  0.00    +0.000 A 
BRANCH  16  19
ATOM     19  C   UNL     1       2.906   5.476  18.391  0.00  0.00    +0.000 C 
ATOM     20  C   UNL     1       3.972   5.547  17.306  0.00  0.00    +0.000 C 
ATOM     21  C   UNL     1       4.358   5.096  18.678  0.00  0.00    +0.000 C 
BRANCH  19  22
ATOM     22  C   UNL     1       1.894   4.367  18.305  0.00  0.00    +0.000 C 
ATOM     23  O   UNL     1       1.250   3.989  19.270  0.00  0.00    +0.000 OA
BRANCH  22  24
ATOM     24  O   UNL     1       1.756   3.863  17.057  0.00  0.00    +0.000 OA
ATOM     25  H   UNL     1       2.454   3.215  16.851  0.00  0.00    +0.000 HD
ENDBRANCH  22  24
ENDBRANCH  19  22
ENDBRANCH  16  19
ENDBRANCH  10  13
ENDBRANCH   2   7
BRANCH   1  28
ATOM     26  C   UNL     1      -4.430  12.674  22.017  0.00  0.00    +0.000 C 
ATOM     27  O   UNL     1      -4.473  12.205  23.137  0.00  0.00    +0.000 OA
ATOM     28  N   UNL     1      -3.429  13.618  21.664  0.00  0.00    +0.000 N 
ATOM     29  H   UNL     1      -3.593  14.169  20.835  0.00  0.00    +0.000 HD
BRANCH  26  30
ATOM     30  O   UNL     1      -5.302  12.476  21.003  0.00  0.00    +0.000 OA
BRANCH  30  32
ATOM     31  C   UNL     1      -6.070  13.512  18.925  0.00  0.00    +0.000 C 
ATOM     32  C   UNL     1      -4.871  13.029  19.744  0.00  0.00    +0.000 C 
BRANCH  32  33
ATOM     33  C   UNL     1      -4.131  11.984  18.922  0.00  0.00    +0.000 A 
ATOM     34  C   UNL     1      -4.869  11.030  18.199  0.00  0.00    +0.000 A 
ATOM     35  C   UNL     1      -4.234   9.951  17.581  0.00  0.00    +0.000 A 
ATOM     36  C   UNL     1      -2.852   9.815  17.667  0.00  0.00    +0.000 A 
ATOM     37  C   UNL     1      -2.102  10.769  18.353  0.00  0.00    +0.000 A 
ATOM     38  C   UNL     1      -2.735  11.849  18.977  0.00  0.00    +0.000 A 
ENDBRANCH  32  33
ENDBRANCH  30  32
ENDBRANCH  26  30
ENDBRANCH   1  28
TORSDOF 9
ENDMDL
MODEL 3
REMARK VINA RESULT:      -8.9      2.359      3.923
REMARK  Name = 
REMARK  11 active torsions:
REMARK  status: ('A' for Active; 'I' for Inactive)
REMARK    1  A    between atoms: C_1  and  C_2
REMARK    2  A    between atoms: C_2  and  O_3
REMARK    3  A    between atoms: C_2  and  C_31
REMARK    4  A    between atoms: O_3  and  C_4
REMARK    5  A    between atoms: N_6  and  C_7
REMARK    6  A    between atoms: C_8  and  C_9
REMARK    7  A    between atoms: C_12  and  C_13
REMARK    8  A    between atoms: C_16  and  C_17
REMARK    9  A    between atoms: C_17  and  C_18
REMARK   10  A    between atoms: C_18  and  O_20
REMARK   11  A    between atoms: N_29  and  C_30
REMARK                            x       y       z     vdW  Elec       q    Type
REMARK                         _______ _______ _______ _____ _____    ______ ____
ROOT
ATOM      1  C   UNL     1      -2.383  14.112  22.005  0.00  0.00    +0.000 A 
ATOM      2  C   UNL     1      -1.151  13.589  22.362  0.00  0.00    +0.000 A 
ATOM      3  N   UNL     1      -0.568  14.392  23.300  0.00  0.00    +0.000 NA
ATOM      4  N   UNL     1      -1.382  15.414  23.533  0.00  0.00    +0.000 NA
ATOM      5  N   UNL     1      -2.463  15.269  22.742  0.00  0.00    +0.000 N 
ATOM      6  C   UNL     1      -3.601  16.125  22.939  0.00  0.00    +0.000 C 
ENDROOT
BRANCH   2   7
ATOM      7  C   UNL     1      -0.515  12.424  21.783  0.00  0.00    +0.000 A 
ATOM      8  C   UNL     1      -0.785  11.146  22.280  0.00  0.00    +0.000 A 
ATOM      9  C   UNL     1      -0.149  10.028  21.754  0.00  0.00    +0.000 A 
ATOM     10  C   UNL     1       0.726  10.131  20.663  0.00  0.00    +0.000 A 
ATOM     11  C   UNL     1       0.961  11.416  20.141  0.00  0.00    +0.000 A 
ATOM     12  C   UNL     1       0.352  12.551  20.695  0.00  0.00    +0.000 A 
BRANCH  10  13
ATOM     13  C   UNL     1       1.316   8.914  20.071  0.00  0.00    +0.000 A 
ATOM     14  C   UNL     1       1.475   7.754  20.848  0.00  0.00    +0.000 A 
ATOM     15  C   UNL     1       1.998   6.582  20.307  0.00  0.00    +0.000 A 
ATOM     16  C   UNL     1       2.363   6.501  18.958  0.00  0.00    +0.000 A 
ATOM     17  C   UNL     1       2.234   7.664  18.185  0.00  0.00    +0.000 A 
ATOM     18  C   UNL     1       1.724   8.850  18.731  0.00  0.00    +0.000 A 
BRANCH  16  19
ATOM     19  C   UNL     1       2.777   5.162  18.373  0.00  0.00    +0.000 C 
ATOM     20  C   UNL     1       2.187   3.865  18.910  0.00  0.00    +0.000 C 
ATOM     21  C   UNL     1       1.704   4.399  17.599  0.00  0.00    +0.000 C 
BRANCH  19  22
ATOM     22  C   UNL     1       4.184   5.125  17.847  0.00  0.00    +0.000 C 
ATOM     23  O   UNL     1       4.477   5.507  16.726  0.00  0.00    +0.000 OA
BRANCH  22  24
ATOM     24  O   UNL     1       5.081   4.657  18.746  0.00  0.00    +0.000 OA
ATOM     25  H   UNL     1       4.651   4.120  19.437  0.00  0.00    +0.000 HD
ENDBRANCH  22  24
ENDBRANCH  19  22
ENDBRANCH  16  19
ENDBRANCH  10  13
ENDBRANCH   2   7
BRANCH   1  28
ATOM     26  C   UNL     1      -4.266  12.614  21.581  0.00  0.00    +0.000 C 
ATOM     27  O   UNL     1      -4.276  12.252  22.741  0.00  0.00    +0.000 OA
ATOM     28  N   UNL     1      -3.297  13.547  21.121  0.00  0.00    +0.000 N 
ATOM     29  H   UNL     1      -3.490  14.012  20.247  0.00  0.00    +0.000 HD
BRANCH  26  30
ATOM     30  O   UNL     1      -5.148  12.298  20.607  0.00  0.00    +0.000 OA
BRANCH  30  32
ATOM     31  C   UNL     1      -6.020  13.192  18.505  0.00  0.00    +0.000 C 
ATOM     32  C   UNL     1      -4.779  12.785  19.302  0.00  0.00    +0.000 C 
BRANCH  32  33
ATOM     33  C   UNL     1      -4.045  11.711  18.513  0.00  0.00    +0.000 A 
ATOM     34  C   UNL     1      -2.743  11.345  18.899  0.00  0.00    +0.000 A 
ATOM     35  C   UNL     1      -1.971  10.498  18.101  0.00  0.00    +0.000 A 
ATOM     36  C   UNL     1      -2.491   9.998  16.912  0.00  0.00    +0.000 A 
ATOM     37  C   UNL     1      -3.791  10.325  16.530  0.00  0.00    +0.000 A 
ATOM     38  C   UNL     1      -4.566  11.175  17.325  0.00  0.00    +0.000 A 
ENDBRANCH  32  33
ENDBRANCH  30  32
ENDBRANCH  26  30
ENDBRANCH   1  28
TORSDOF 9
ENDMDL
MODEL 4
REMARK VINA RESULT:      -8.6      2.388      3.935
REMARK  Name = 
REMARK  11 active torsions:
REMARK  status: ('A' for Active; 'I' for Inactive)
REMARK    1  A    between atoms: C_1  and  C_2
REMARK    2  A    between atoms: C_2  and  O_3
REMARK    3  A    between atoms: C_2  and  C_31
REMARK    4  A    between atoms: O_3  and  C_4
REMARK    5  A    between atoms: N_6  and  C_7
REMARK    6  A    between atoms: C_8  and  C_9
REMARK    7  A    between atoms: C_12  and  C_13
REMARK    8  A    between atoms: C_16  and  C_17
REMARK    9  A    between atoms: C_17  and  C_18
REMARK   10  A    between atoms: C_18  and  O_20
REMARK   11  A    between atoms: N_29  and  C_30
REMARK                            x       y       z     vdW  Elec       q    Type
REMARK                         _______ _______ _______ _____ _____    ______ ____
ROOT
ATOM      1  C   UNL     1      -3.516  13.956  21.029  0.00  0.00    +0.000 A 
ATOM      2  C   UNL     1      -2.259  13.625  21.507  0.00  0.00    +0.000 A 
ATOM      3  N   UNL     1      -1.876  14.534  22.452  0.00  0.00    +0.000 NA
ATOM      4  N   UNL     1      -2.841  15.436  22.572  0.00  0.00    +0.000 NA
ATOM      5  N   UNL     1      -3.818  15.113  21.704  0.00  0.00    +0.000 N 
ATOM      6  C   UNL     1      -5.077  15.805  21.770  0.00  0.00    +0.000 C 
ENDROOT
BRANCH   2   7
ATOM      7  C   UNL     1      -1.419  12.544  21.035  0.00  0.00    +0.000 A 
ATOM      8  C   UNL     1      -0.906  11.600  21.929  0.00  0.00    +0.000 A 
ATOM      9  C   UNL     1      -0.069  10.582  21.488  0.00  0.00    +0.000 A 
ATOM     10  C   UNL     1       0.230  10.420  20.127  0.00  0.00    +0.000 A 
ATOM     11  C   UNL     1      -0.324  11.349  19.228  0.00  0.00    +0.000 A 
ATOM     12  C   UNL     1      -1.136  12.402  19.674  0.00  0.00    +0.000 A 
BRANCH  10  13
ATOM     13  C   UNL     1       1.049   9.276  19.682  0.00  0.00    +0.000 A 
ATOM     14  C   UNL     1       1.352   8.232  20.572  0.00  0.00    +0.000 A 
ATOM     15  C   UNL     1       2.095   7.125  20.170  0.00  0.00    +0.000 A 
ATOM     16  C   UNL     1       2.551   6.992  18.853  0.00  0.00    +0.000 A 
ATOM     17  C   UNL     1       2.278   8.045  17.967  0.00  0.00    +0.000 A 
ATOM     18  C   UNL     1       1.544   9.168  18.374  0.00  0.00    +0.000 A 
BRANCH  16  19
ATOM     19  C   UNL     1       3.217   5.699  18.418  0.00  0.00    +0.000 C 
ATOM     20  C   UNL     1       2.862   4.378  19.089  0.00  0.00    +0.000 C 
ATOM     21  C   UNL     1       2.321   4.673  17.726  0.00  0.00    +0.000 C 
BRANCH  19  22
ATOM     22  C   UNL     1       4.620   5.867  17.905  0.00  0.00    +0.000 C 
ATOM     23  O   UNL     1       5.602   5.661  18.597  0.00  0.00    +0.000 OA
BRANCH  22  24
ATOM     24  O   UNL     1       4.674   6.238  16.604  0.00  0.00    +0.000 OA
ATOM     25  H   UNL     1       4.384   5.520  16.012  0.00  0.00    +0.000 HD
ENDBRANCH  22  24
ENDBRANCH  19  22
ENDBRANCH  16  19
ENDBRANCH  10  13
ENDBRANCH   2   7
BRANCH   1  28
ATOM     26  C   UNL     1      -5.264  12.324  20.529  0.00  0.00    +0.000 C 
ATOM     27  O   UNL     1      -5.446  12.114  21.712  0.00  0.00    +0.000 OA
ATOM     28  N   UNL     1      -4.262  13.237  20.101  0.00  0.00    +0.000 N 
ATOM     29  H   UNL     1      -4.330  13.576  19.152  0.00  0.00    +0.000 HD
BRANCH  26  30
ATOM     30  O   UNL     1      -5.973  11.842  19.483  0.00  0.00    +0.000 OA
BRANCH  30  32
ATOM     31  C   UNL     1      -6.802  12.512  17.283  0.00  0.00    +0.000 C 
ATOM     32  C   UNL     1      -5.590  12.399  18.211  0.00  0.00    +0.000 C 
BRANCH  32  33
ATOM     33  C   UNL     1      -4.554  11.518  17.527  0.00  0.00    +0.000 A 
ATOM     34  C   UNL     1      -4.360  11.639  16.139  0.00  0.00    +0.000 A 
ATOM     35  C   UNL     1      -3.554  10.732  15.448  0.00  0.00    +0.000 A 
ATOM     36  C   UNL     1      -2.924   9.698  16.134  0.00  0.00    +0.000 A 
ATOM     37  C   UNL     1      -3.081   9.583  17.514  0.00  0.00    +0.000 A 
ATOM     38  C   UNL     1      -3.889  10.488  18.209  0.00  0.00    +0.000 A 
ENDBRANCH  32  33
ENDBRANCH  30  32
ENDBRANCH  26  30
ENDBRANCH   1  28
TORSDOF 9
ENDMDL
MODEL 5
REMARK VINA RESULT:      -8.6      2.313      3.009
REMARK  Name = 
REMARK  11 active torsions:
REMARK  status: ('A' for Active; 'I' for Inactive)
REMARK    1  A    between atoms: C_1  and  C_2
REMARK    2  A    between atoms: C_2  and  O_3
REMARK    3  A    between atoms: C_2  and  C_31
REMARK    4  A    between atoms: O_3  and  C_4
REMARK    5  A    between atoms: N_6  and  C_7
REMARK    6  A    between atoms: C_8  and  C_9
REMARK    7  A    between atoms: C_12  and  C_13
REMARK    8  A    between atoms: C_16  and  C_17
REMARK    9  A    between atoms: C_17  and  C_18
REMARK   10  A    between atoms: C_18  and  O_20
REMARK   11  A    between atoms: N_29  and  C_30
REMARK                            x       y       z     vdW  Elec       q    Type
REMARK                         _______ _______ _______ _____ _____    ______ ____
ROOT
ATOM      1  C   UNL     1      -1.215  12.940  20.613  0.00  0.00    +0.000 A 
ATOM      2  C   UNL     1      -0.152  12.315  21.244  0.00  0.00    +0.000 A 
ATOM      3  N   UNL     1       0.371  13.149  22.192  0.00  0.00    +0.000 NA
ATOM      4  N   UNL     1      -0.315  14.284  22.167  0.00  0.00    +0.000 NA
ATOM      5  N   UNL     1      -1.252  14.180  21.205  0.00  0.00    +0.000 N 
ATOM      6  C   UNL     1      -2.272  15.188  21.101  0.00  0.00    +0.000 C 
ENDROOT
BRANCH   2   7
ATOM      7  C   UNL     1       0.400  11.018  20.912  0.00  0.00    +0.000 A 
ATOM      8  C   UNL     1       0.339   9.965  21.828  0.00  0.00    +0.000 A 
ATOM      9  C   UNL     1       0.899   8.728  21.530  0.00  0.00    +0.000 A 
ATOM     10  C   UNL     1       1.477   8.471  20.278  0.00  0.00    +0.000 A 
ATOM     11  C   UNL     1       1.498   9.524  19.346  0.00  0.00    +0.000 A 
ATOM     12  C   UNL     1       0.970  10.785  19.658  0.00  0.00    +0.000 A 
BRANCH  10  13
ATOM     13  C   UNL     1       1.984   7.121  19.962  0.00  0.00    +0.000 A 
ATOM     14  C   UNL     1       1.851   6.078  20.894  0.00  0.00    +0.000 A 
ATOM     15  C   UNL     1       2.290   4.787  20.609  0.00  0.00    +0.000 A 
ATOM     16  C   UNL     1       2.859   4.467  19.371  0.00  0.00    +0.000 A 
ATOM     17  C   UNL     1       3.022   5.511  18.447  0.00  0.00    +0.000 A 
ATOM     18  C   UNL     1       2.596   6.814  18.738  0.00  0.00    +0.000 A 
BRANCH  16  19
ATOM     19  C   UNL     1       3.175   3.019  19.044  0.00  0.00    +0.000 C 
ATOM     20  C   UNL     1       2.076   1.965  19.041  0.00  0.00    +0.000 C 
ATOM     21  C   UNL     1       2.600   2.476  17.737  0.00  0.00    +0.000 C 
BRANCH  19  22
ATOM     22  C   UNL     1       4.560   2.583  19.437  0.00  0.00    +0.000 C 
ATOM     23  O   UNL     1       4.764   1.668  20.217  0.00  0.00    +0.000 OA
BRANCH  22  24
ATOM     24  O   UNL     1       5.538   3.287  18.821  0.00  0.00    +0.000 OA
ATOM     25  H   UNL     1       5.294   3.517  17.905  0.00  0.00    +0.000 HD
ENDBRANCH  22  24
ENDBRANCH  19  22
ENDBRANCH  16  19
ENDBRANCH  10  13
ENDBRANCH   2   7
BRANCH   1  28
ATOM     26  C   UNL     1      -1.699  12.509  18.258  0.00  0.00    +0.000 C 
ATOM     27  O   UNL     1      -0.721  13.142  17.911  0.00  0.00    +0.000 OA
ATOM     28  N   UNL     1      -2.035  12.389  19.633  0.00  0.00    +0.000 N 
ATOM     29  H   UNL     1      -2.675  11.651  19.884  0.00  0.00    +0.000 HD
BRANCH  26  30
ATOM     30  O   UNL     1      -2.535  11.785  17.480  0.00  0.00    +0.000 OA
BRANCH  30  32
ATOM     31  C   UNL     1      -3.665   9.620  17.594  0.00  0.00    +0.000 C 
ATOM     32  C   UNL     1      -3.495  11.006  18.220  0.00  0.00    +0.000 C 
BRANCH  32  33
ATOM     33  C   UNL     1      -4.854  11.690  18.226  0.00  0.00    +0.000 A 
ATOM     34  C   UNL     1      -5.648  11.628  19.385  0.00  0.00    +0.000 A 
ATOM     35  C   UNL     1      -6.968  12.085  19.374  0.00  0.00    +0.000 A 
ATOM     36  C   UNL     1      -7.509  12.619  18.208  0.00  0.00    +0.000 A 
ATOM     37  C   UNL     1      -6.725  12.716  17.060  0.00  0.00    +0.000 A 
ATOM     38  C   UNL     1      -5.405  12.257  17.067  0.00  0.00    +0.000 A 
ENDBRANCH  32  33
ENDBRANCH  30  32
ENDBRANCH  26  30
ENDBRANCH   1  28
TORSDOF 9
ENDMDL
MODEL 6
REMARK VINA RESULT:      -8.6      3.325      5.465
REMARK  Name = 
REMARK  11 active torsions:
REMARK  status: ('A' for Active; 'I' for Inactive)
REMARK    1  A    between atoms: C_1  and  C_2
REMARK    2  A    between atoms: C_2  and  O_3
REMARK    3  A    between atoms: C_2  and  C_31
REMARK    4  A    between atoms: O_3  and  C_4
REMARK    5  A    between atoms: N_6  and  C_7
REMARK    6  A    between atoms: C_8  and  C_9
REMARK    7  A    between atoms: C_12  and  C_13
REMARK    8  A    between atoms: C_16  and  C_17
REMARK    9  A    between atoms: C_17  and  C_18
REMARK   10  A    between atoms: C_18  and  O_20
REMARK   11  A    between atoms: N_29  and  C_30
REMARK                            x       y       z     vdW  Elec       q    Type
REMARK                         _______ _______ _______ _____ _____    ______ ____
ROOT
ATOM      1  C   UNL     1      -0.445  12.002  21.403  0.00  0.00    +0.000 A 
ATOM      2  C   UNL     1      -0.331  10.632  21.566  0.00  0.00    +0.000 A 
ATOM      3  N   UNL     1      -1.052  10.241  22.659  0.00  0.00    +0.000 NA
ATOM      4  N   UNL     1      -1.599  11.321  23.201  0.00  0.00    +0.000 NA
ATOM      5  N   UNL     1      -1.220  12.386  22.470  0.00  0.00    +0.000 N 
ATOM      6  C   UNL     1      -1.838  13.663  22.710  0.00  0.00    +0.000 C 
ENDROOT
BRANCH   2   7
ATOM      7  C   UNL     1       0.487   9.738  20.773  0.00  0.00    +0.000 A 
ATOM      8  C   UNL     1       0.775  10.035  19.438  0.00  0.00    +0.000 A 
ATOM      9  C   UNL     1       1.529   9.164  18.661  0.00  0.00    +0.000 A 
ATOM     10  C   UNL     1       2.087   7.997  19.204  0.00  0.00    +0.000 A 
ATOM     11  C   UNL     1       1.827   7.726  20.559  0.00  0.00    +0.000 A 
ATOM     12  C   UNL     1       1.033   8.582  21.336  0.00  0.00    +0.000 A 
BRANCH  10  13
ATOM     13  C   UNL     1       2.956   7.139  18.374  0.00  0.00    +0.000 A 
ATOM     14  C   UNL     1       3.745   7.702  17.357  0.00  0.00    +0.000 A 
ATOM     15  C   UNL     1       4.599   6.921  16.582  0.00  0.00    +0.000 A 
ATOM     16  C   UNL     1       4.726   5.544  16.800  0.00  0.00    +0.000 A 
ATOM     17  C   UNL     1       3.918   4.971  17.794  0.00  0.00    +0.000 A 
ATOM     18  C   UNL     1       3.046   5.753  18.564  0.00  0.00    +0.000 A 
BRANCH  16  19
ATOM     19  C   UNL     1       5.783   4.761  16.042  0.00  0.00    +0.000 C 
ATOM     20  C   UNL     1       5.512   3.335  15.581  0.00  0.00    +0.000 C 
ATOM     21  C   UNL     1       5.475   4.445  14.579  0.00  0.00    +0.000 C 
BRANCH  19  22
ATOM     22  C   UNL     1       7.197   5.123  16.401  0.00  0.00    +0.000 C 
ATOM     23  O   UNL     1       7.646   6.247  16.251  0.00  0.00    +0.000 OA
BRANCH  22  24
ATOM     24  O   UNL     1       7.898   4.090  16.926  0.00  0.00    +0.000 OA
ATOM     25  H   UNL     1       8.637   4.402  17.481  0.00  0.00    +0.000 HD
ENDBRANCH  22  24
ENDBRANCH  19  22
ENDBRANCH  16  19
ENDBRANCH  10  13
ENDBRANCH   2   7
BRANCH   1  28
ATOM     26  C   UNL     1       1.346  13.420  20.536  0.00  0.00    +0.000 C 
ATOM     27  O   UNL     1       1.931  13.382  21.600  0.00  0.00    +0.000 OA
ATOM     28  N   UNL     1       0.099  12.759  20.370  0.00  0.00    +0.000 N 
ATOM     29  H   UNL     1      -0.207  12.593  19.422  0.00  0.00    +0.000 HD
BRANCH  26  30
ATOM     30  O   UNL     1       1.770  13.974  19.378  0.00  0.00    +0.000 OA
BRANCH  30  32
ATOM     31  C   UNL     1       1.683  16.269  18.538  0.00  0.00    +0.000 C 
ATOM     32  C   UNL     1       2.324  15.296  19.530  0.00  0.00    +0.000 C 
BRANCH  32  33
ATOM     33  C   UNL     1       3.824  15.283  19.274  0.00  0.00    +0.000 A 
ATOM     34  C   UNL     1       4.298  14.977  17.987  0.00  0.00    +0.000 A 
ATOM     35  C   UNL     1       5.660  14.780  17.753  0.00  0.00    +0.000 A 
ATOM     36  C   UNL     1       6.569  14.896  18.800  0.00  0.00    +0.000 A 
ATOM     37  C   UNL     1       6.120  15.229  20.076  0.00  0.00    +0.000 A 
ATOM     38  C   UNL     1       4.756  15.424  20.314  0.00  0.00    +0.000 A 
ENDBRANCH  32  33
ENDBRANCH  30  32
ENDBRANCH  26  30
ENDBRANCH   1  28
TORSDOF 9
ENDMDL
MODEL 7
REMARK VINA RESULT:      -8.5      1.950      3.317
REMARK  Name = 
REMARK  11 active torsions:
REMARK  status: ('A' for Active; 'I' for Inactive)
REMARK    1  A    between atoms: C_1  and  C_2
REMARK    2  A    between atoms: C_2  and  O_3
REMARK    3  A    between atoms: C_2  and  C_31
REMARK    4  A    between atoms: O_3  and  C_4
REMARK    5  A    between atoms: N_6  and  C_7
REMARK    6  A    between atoms: C_8  and  C_9
REMARK    7  A    between atoms: C_12  and  C_13
REMARK    8  A    between atoms: C_16  and  C_17
REMARK    9  A    between atoms: C_17  and  C_18
REMARK   10  A    between atoms: C_18  and  O_20
REMARK   11  A    between atoms: N_29  and  C_30
REMARK                            x       y       z     vdW  Elec       q    Type
REMARK                         _______ _______ _______ _____ _____    ______ ____
ROOT
ATOM      1  C   UNL     1      -2.068  13.091  22.340  0.00  0.00    +0.000 A 
ATOM      2  C   UNL     1      -0.777  12.623  22.512  0.00  0.00    +0.000 A 
ATOM      3  N   UNL     1      -0.063  13.515  23.262  0.00  0.00    +0.000 NA
ATOM      4  N   UNL     1      -0.856  14.538  23.551  0.00  0.00    +0.000 NA
ATOM      5  N   UNL     1      -2.054  14.306  22.981  0.00  0.00    +0.000 N 
ATOM      6  C   UNL     1      -3.167  15.156  23.308  0.00  0.00    +0.000 C 
ENDROOT
BRANCH   2   7
ATOM      7  C   UNL     1      -0.214  11.423  21.927  0.00  0.00    +0.000 A 
ATOM      8  C   UNL     1       0.292  11.438  20.625  0.00  0.00    +0.000 A 
ATOM      9  C   UNL     1       0.800  10.281  20.045  0.00  0.00    +0.000 A 
ATOM     10  C   UNL     1       0.889   9.082  20.766  0.00  0.00    +0.000 A 
ATOM     11  C   UNL     1       0.415   9.085  22.090  0.00  0.00    +0.000 A 
ATOM     12  C   UNL     1      -0.134  10.240  22.665  0.00  0.00    +0.000 A 
BRANCH  10  13
ATOM     13  C   UNL     1       1.515   7.895  20.149  0.00  0.00    +0.000 A 
ATOM     14  C   UNL     1       2.197   8.008  18.926  0.00  0.00    +0.000 A 
ATOM     15  C   UNL     1       2.824   6.912  18.338  0.00  0.00    +0.000 A 
ATOM     16  C   UNL     1       2.824   5.655  18.955  0.00  0.00    +0.000 A 
ATOM     17  C   UNL     1       2.120   5.529  20.161  0.00  0.00    +0.000 A 
ATOM     18  C   UNL     1       1.474   6.627  20.746  0.00  0.00    +0.000 A 
BRANCH  16  19
ATOM     19  C   UNL     1       3.654   4.530  18.361  0.00  0.00    +0.000 C 
ATOM     20  C   UNL     1       3.206   3.081  18.494  0.00  0.00    +0.000 C 
ATOM     21  C   UNL     1       3.037   3.780  17.182  0.00  0.00    +0.000 C 
BRANCH  19  22
ATOM     22  C   UNL     1       5.132   4.805  18.324  0.00  0.00    +0.000 C 
ATOM     23  O   UNL     1       5.852   4.659  19.298  0.00  0.00    +0.000 OA
BRANCH  22  24
ATOM     24  O   UNL     1       5.574   5.196  17.106  0.00  0.00    +0.000 OA
ATOM     25  H   UNL     1       5.031   4.821  16.389  0.00  0.00    +0.000 HD
ENDBRANCH  22  24
ENDBRANCH  19  22
ENDBRANCH  16  19
ENDBRANCH  10  13
ENDBRANCH   2   7
BRANCH   1  28
ATOM     26  C   UNL     1      -3.322  12.635  20.293  0.00  0.00    +0.000 C 
ATOM     27  O   UNL     1      -2.643  13.423  19.667  0.00  0.00    +0.000 OA
ATOM     28  N   UNL     1      -3.105  12.435  21.684  0.00  0.00    +0.000 N 
ATOM     29  H   UNL     1      -3.496  11.599  22.091  0.00  0.00    +0.000 HD
BRANCH  26  30
ATOM     30  O   UNL     1      -4.274  11.801  19.817  0.00  0.00    +0.000 OA
BRANCH  30  32
ATOM     31  C   UNL     1      -6.222  11.915  18.343  0.00  0.00    +0.000 C 
ATOM     32  C   UNL     1      -4.711  12.114  18.480  0.00  0.00    +0.000 C 
BRANCH  32  33
ATOM     33  C   UNL     1      -4.024  11.214  17.464  0.00  0.00    +0.000 A 
ATOM     34  C   UNL     1      -3.007  10.344  17.896  0.00  0.00    +0.000 A 
ATOM     35  C   UNL     1      -2.232   9.635  16.975  0.00  0.00    +0.000 A 
ATOM     36  C   UNL     1      -2.469   9.778  15.612  0.00  0.00    +0.000 A 
ATOM     37  C   UNL     1      -3.494  10.612  15.168  0.00  0.00    +0.000 A 
ATOM     38  C   UNL     1      -4.269  11.325  16.087  0.00  0.00    +0.000 A 
ENDBRANCH  32  33
ENDBRANCH  30  32
ENDBRANCH  26  30
ENDBRANCH   1  28
TORSDOF 9
ENDMDL
MODEL 8
REMARK VINA RESULT:      -8.5      3.180      5.190
REMARK  Name = 
REMARK  11 active torsions:
REMARK  status: ('A' for Active; 'I' for Inactive)
REMARK    1  A    between atoms: C_1  and  C_2
REMARK    2  A    between atoms: C_2  and  O_3
REMARK    3  A    between atoms: C_2  and  C_31
REMARK    4  A    between atoms: O_3  and  C_4
REMARK    5  A    between atoms: N_6  and  C_7
REMARK    6  A    between atoms: C_8  and  C_9
REMARK    7  A    between atoms: C_12  and  C_13
REMARK    8  A    between atoms: C_16  and  C_17
REMARK    9  A    between atoms: C_17  and  C_18
REMARK   10  A    between atoms: C_18  and  O_20
REMARK   11  A    between atoms: N_29  and  C_30
REMARK                            x       y       z     vdW  Elec       q    Type
REMARK                         _______ _______ _______ _____ _____    ______ ____
ROOT
ATOM      1  C   UNL     1      -0.253  11.357  21.471  0.00  0.00    +0.000 A 
ATOM      2  C   UNL     1       0.018  10.001  21.555  0.00  0.00    +0.000 A 
ATOM      3  N   UNL     1      -0.539   9.494  22.695  0.00  0.00    +0.000 NA
ATOM      4  N   UNL     1      -1.135  10.488  23.341  0.00  0.00    +0.000 NA
ATOM      5  N   UNL     1      -0.947  11.615  22.629  0.00  0.00    +0.000 N 
ATOM      6  C   UNL     1      -1.665  12.807  22.992  0.00  0.00    +0.000 C 
ENDROOT
BRANCH   2   7
ATOM      7  C   UNL     1       0.836   9.232  20.641  0.00  0.00    +0.000 A 
ATOM      8  C   UNL     1       1.396   8.015  21.041  0.00  0.00    +0.000 A 
ATOM      9  C   UNL     1       2.212   7.290  20.180  0.00  0.00    +0.000 A 
ATOM     10  C   UNL     1       2.443   7.713  18.863  0.00  0.00    +0.000 A 
ATOM     11  C   UNL     1       1.842   8.917  18.455  0.00  0.00    +0.000 A 
ATOM     12  C   UNL     1       1.051   9.672  19.333  0.00  0.00    +0.000 A 
BRANCH  10  13
ATOM     13  C   UNL     1       3.242   6.874  17.948  0.00  0.00    +0.000 A 
ATOM     14  C   UNL     1       4.155   7.467  17.059  0.00  0.00    +0.000 A 
ATOM     15  C   UNL     1       4.945   6.698  16.208  0.00  0.00    +0.000 A 
ATOM     16  C   UNL     1       4.882   5.300  16.220  0.00  0.00    +0.000 A 
ATOM     17  C   UNL     1       3.951   4.703  17.083  0.00  0.00    +0.000 A 
ATOM     18  C   UNL     1       3.142   5.475  17.929  0.00  0.00    +0.000 A 
BRANCH  16  19
ATOM     19  C   UNL     1       5.873   4.499  15.393  0.00  0.00    +0.000 C 
ATOM     20  C   UNL     1       5.610   3.033  15.071  0.00  0.00    +0.000 C 
ATOM     21  C   UNL     1       5.405   4.063  14.006  0.00  0.00    +0.000 C 
BRANCH  19  22
ATOM     22  C   UNL     1       7.303   4.935  15.548  0.00  0.00    +0.000 C 
ATOM     23  O   UNL     1       7.866   5.644  14.732  0.00  0.00    +0.000 OA
BRANCH  22  24
ATOM     24  O   UNL     1       7.880   4.486  16.688  0.00  0.00    +0.000 OA
ATOM     25  H   UNL     1       8.024   3.522  16.662  0.00  0.00    +0.000 HD
ENDBRANCH  22  24
ENDBRANCH  19  22
ENDBRANCH  16  19
ENDBRANCH  10  13
ENDBRANCH   2   7
BRANCH   1  28
ATOM     26  C   UNL     1       1.205  13.088  20.553  0.00  0.00    +0.000 C 
ATOM     27  O   UNL     1       1.830  13.155  21.593  0.00  0.00    +0.000 OA
ATOM     28  N   UNL     1       0.098  12.207  20.427  0.00  0.00    +0.000 N 
ATOM     29  H   UNL     1      -0.209  11.991  19.491  0.00  0.00    +0.000 HD
BRANCH  26  30
ATOM     30  O   UNL     1       1.472  13.717  19.386  0.00  0.00    +0.000 OA
BRANCH  30  32
ATOM     31  C   UNL     1       1.042  15.988  18.589  0.00  0.00    +0.000 C 
ATOM     32  C   UNL     1       1.848  15.099  19.539  0.00  0.00    +0.000 C 
BRANCH  32  33
ATOM     33  C   UNL     1       3.325  15.293  19.225  0.00  0.00    +0.000 A 
ATOM     34  C   UNL     1       3.845  14.775  18.026  0.00  0.00    +0.000 A 
ATOM     35  C   UNL     1       5.220  14.773  17.784  0.00  0.00    +0.000 A 
ATOM     36  C   UNL     1       6.094  15.299  18.731  0.00  0.00    +0.000 A 
ATOM     37  C   UNL     1       5.592  15.845  19.911  0.00  0.00    +0.000 A 
ATOM     38  C   UNL     1       4.216  15.846  20.158  0.00  0.00    +0.000 A 
ENDBRANCH  32  33
ENDBRANCH  30  32
ENDBRANCH  26  30
ENDBRANCH   1  28
TORSDOF 9
ENDMDL
MODEL 9
REMARK VINA RESULT:      -8.4      2.528      4.127
REMARK  Name = 
REMARK  11 active torsions:
REMARK  status: ('A' for Active; 'I' for Inactive)
REMARK    1  A    between atoms: C_1  and  C_2
REMARK    2  A    between atoms: C_2  and  O_3
REMARK    3  A    between atoms: C_2  and  C_31
REMARK    4  A    between atoms: O_3  and  C_4
REMARK    5  A    between atoms: N_6  and  C_7
REMARK    6  A    between atoms: C_8  and  C_9
REMARK    7  A    between atoms: C_12  and  C_13
REMARK    8  A    between atoms: C_16  and  C_17
REMARK    9  A    between atoms: C_17  and  C_18
REMARK   10  A    between atoms: C_18  and  O_20
REMARK   11  A    between atoms: N_29  and  C_30
REMARK                            x       y       z     vdW  Elec       q    Type
REMARK                         _______ _______ _______ _____ _____    ______ ____
ROOT
ATOM      1  C   UNL     1      -3.497  13.934  21.359  0.00  0.00    +0.000 A 
ATOM      2  C   UNL     1      -2.457  13.288  22.006  0.00  0.00    +0.000 A 
ATOM      3  N   UNL     1      -2.312  13.803  23.264  0.00  0.00    +0.000 NA
ATOM      4  N   UNL     1      -3.213  14.764  23.423  0.00  0.00    +0.000 NA
ATOM      5  N   UNL     1      -3.912  14.868  22.277  0.00  0.00    +0.000 N 
ATOM      6  C   UNL     1      -5.091  15.691  22.242  0.00  0.00    +0.000 C 
ENDROOT
BRANCH   2   7
ATOM      7  C   UNL     1      -1.584  12.283  21.436  0.00  0.00    +0.000 A 
ATOM      8  C   UNL     1      -1.243  11.141  22.166  0.00  0.00    +0.000 A 
ATOM      9  C   UNL     1      -0.377  10.191  21.639  0.00  0.00    +0.000 A 
ATOM     10  C   UNL     1       0.126  10.305  20.335  0.00  0.00    +0.000 A 
ATOM     11  C   UNL     1      -0.254  11.437  19.591  0.00  0.00    +0.000 A 
ATOM     12  C   UNL     1      -1.097  12.418  20.134  0.00  0.00    +0.000 A 
BRANCH  10  13
ATOM     13  C   UNL     1       0.973   9.234  19.774  0.00  0.00    +0.000 A 
ATOM     14  C   UNL     1       1.369   8.150  20.575  0.00  0.00    +0.000 A 
ATOM     15  C   UNL     1       2.140   7.109  20.063  0.00  0.00    +0.000 A 
ATOM     16  C   UNL     1       2.533   7.086  18.720  0.00  0.00    +0.000 A 
ATOM     17  C   UNL     1       2.167   8.181  17.922  0.00  0.00    +0.000 A 
ATOM     18  C   UNL     1       1.405   9.237  18.439  0.00  0.00    +0.000 A 
BRANCH  16  19
ATOM     19  C   UNL     1       3.234   5.858  18.166  0.00  0.00    +0.000 C 
ATOM     20  C   UNL     1       4.212   5.980  17.005  0.00  0.00    +0.000 C 
ATOM     21  C   UNL     1       4.743   5.779  18.390  0.00  0.00    +0.000 C 
BRANCH  19  22
ATOM     22  C   UNL     1       2.438   4.588  18.279  0.00  0.00    +0.000 C 
ATOM     23  O   UNL     1       2.673   3.738  19.122  0.00  0.00    +0.000 OA
BRANCH  22  24
ATOM     24  O   UNL     1       1.431   4.503  17.378  0.00  0.00    +0.000 OA
ATOM     25  H   UNL     1       0.670   4.009  17.734  0.00  0.00    +0.000 HD
ENDBRANCH  22  24
ENDBRANCH  19  22
ENDBRANCH  16  19
ENDBRANCH  10  13
ENDBRANCH   2   7
BRANCH   1  28
ATOM     26  C   UNL     1      -5.215  12.960  19.921  0.00  0.00    +0.000 C 
ATOM     27  O   UNL     1      -5.837  12.560  20.885  0.00  0.00    +0.000 OA
ATOM     28  N   UNL     1      -3.983  13.649  20.087  0.00  0.00    +0.000 N 
ATOM     29  H   UNL     1      -3.651  14.186  19.300  0.00  0.00    +0.000 HD
BRANCH  26  30
ATOM     30  O   UNL     1      -5.583  12.912  18.621  0.00  0.00    +0.000 OA
BRANCH  30  32
ATOM     31  C   UNL     1      -6.133  10.607  19.222  0.00  0.00    +0.000 C 
ATOM     32  C   UNL     1      -5.738  11.576  18.105  0.00  0.00    +0.000 C 
BRANCH  32  33
ATOM     33  C   UNL     1      -4.436  11.081  17.492  0.00  0.00    +0.000 A 
ATOM     34  C   UNL     1      -4.205  11.280  16.119  0.00  0.00    +0.000 A 
ATOM     35  C   UNL     1      -3.112  10.688  15.484  0.00  0.00    +0.000 A 
ATOM     36  C   UNL     1      -2.230   9.896  16.212  0.00  0.00    +0.000 A 
ATOM     37  C   UNL     1      -2.427   9.713  17.580  0.00  0.00    +0.000 A 
ATOM     38  C   UNL     1      -3.522  10.303  18.219  0.00  0.00    +0.000 A 
ENDBRANCH  32  33
ENDBRANCH  30  32
ENDBRANCH  26  30
ENDBRANCH   1  28
TORSDOF 9
ENDMDL
