MODEL 1
REMARK VINA RESULT:      -6.1      0.000      0.000
REMARK  Name = 
REMARK  11 active torsions:
REMARK  status: ('A' for Active; 'I' for Inactive)
REMARK    1  A    between atoms: C_1  and  C_2
REMARK    2  A    between atoms: C_2  and  C_3
REMARK    3  A    between atoms: C_3  and  C_4
REMARK    4  A    between atoms: C_4  and  C_5
REMARK    5  A    between atoms: C_5  and  C_6
REMARK    6  A    between atoms: C_6  and  C_7
REMARK    7  A    between atoms: C_7  and  C_8
REMARK    8  A    between atoms: C_8  and  C_9
REMARK    9  A    between atoms: C_9  and  O_10
REMARK   10  A    between atoms: O_10  and  C_11
REMARK   11  A    between atoms: C_14  and  C_15
REMARK                            x       y       z     vdW  Elec       q    Type
REMARK                         _______ _______ _______ _____ _____    ______ ____
ROOT
ATOM      1  C   UNL     1       4.770   5.713  18.278  0.00  0.00    +0.000 A 
ATOM      2  C   UNL     1       4.451   6.472  17.150  0.00  0.00    +0.000 A 
ATOM      3  C   UNL     1       5.035   6.190  15.914  0.00  0.00    +0.000 A 
ATOM      4  C   UNL     1       5.967   5.157  15.811  0.00  0.00    +0.000 A 
ATOM      5  C   UNL     1       6.310   4.410  16.943  0.00  0.00    +0.000 A 
ATOM      6  C   UNL     1       5.711   4.685  18.174  0.00  0.00    +0.000 A 
ENDROOT
BRANCH   4   7
ATOM      7  C   UNL     1       6.610   4.854  14.512  0.00  0.00    +0.000 C 
ATOM      8  N   UNL     1       6.092   3.983  13.680  0.00  0.00    +0.000 NA
ATOM      9  C   UNL     1       7.031   3.977  12.523  0.00  0.00    +0.000 C 
ATOM     10  C   UNL     1       7.884   5.238  12.669  0.00  0.00    +0.000 C 
ATOM     11  N   UNL     1       7.757   5.487  14.087  0.00  0.00    +0.000 N 
ATOM     12  H   UNL     1       7.920   6.434  14.410  0.00  0.00    +0.000 HD
ENDBRANCH   4   7
BRANCH   1  13
ATOM     13  O   UNL     1       4.143   6.098  19.429  0.00  0.00    +0.000 OA
BRANCH  13  14
ATOM     14  C   UNL     1       2.798   6.555  19.279  0.00  0.00    +0.000 C 
BRANCH  14  15
ATOM     15  C   UNL     1       2.046   6.196  20.556  0.00  0.00    +0.000 C 
BRANCH  15  16
ATOM     16  C   UNL     1       1.509   4.769  20.503  0.00  0.00    +0.000 C 
BRANCH  16  17
ATOM     17  C   UNL     1       2.154   3.893  21.574  0.00  0.00    +0.000 C 
BRANCH  17  18
ATOM     18  C   UNL     1       2.591   2.549  20.990  0.00  0.00    +0.000 C 
BRANCH  18  19
ATOM     19  C   UNL     1       3.478   2.739  19.760  0.00  0.00    +0.000 C 
BRANCH  19  20
ATOM     20  C   UNL     1       3.329   1.565  18.791  0.00  0.00    +0.000 C 
BRANCH  20  22
ATOM     21  C   UNL     1       2.445   3.393  17.306  0.00  0.00    +0.000 C 
ATOM     22  C   UNL     1       2.390   1.911  17.636  0.00  0.00    +0.000 C 
ENDBRANCH  20  22
ENDBRANCH  19  20
ENDBRANCH  18  19
ENDBRANCH  17  18
ENDBRANCH  16  17
ENDBRANCH  15  16
ENDBRANCH  14  15
ENDBRANCH  13  14
ENDBRANCH   1  13
TORSDOF 10
ENDMDL
MODEL 2
REMARK VINA RESULT:      -6.1      3.767      7.341
REMARK  Name = 
REMARK  11 active torsions:
REMARK  status: ('A' for Active; 'I' for Inactive)
REMARK    1  A    between atoms: C_1  and  C_2
REMARK    2  A    between atoms: C_2  and  C_3
REMARK    3  A    between atoms: C_3  and  C_4
REMARK    4  A    between atoms: C_4  and  C_5
REMARK    5  A    between atoms: C_5  and  C_6
REMARK    6  A    between atoms: C_6  and  C_7
REMARK    7  A    between atoms: C_7  and  C_8
REMARK    8  A    between atoms: C_8  and  C_9
REMARK    9  A    between atoms: C_9  and  O_10
REMARK   10  A    between atoms: O_10  and  C_11
REMARK   11  A    between atoms: C_14  and  C_15
REMARK                            x       y       z     vdW  Elec       q    Type
REMARK                         _______ _______ _______ _____ _____    ______ ____
ROOT
ATOM      1  C   UNL     1       4.906   5.169  16.973  0.00  0.00    +0.000 A 
ATOM      2  C   UNL     1       3.755   4.757  17.649  0.00  0.00    +0.000 A 
ATOM      3  C   UNL     1       2.853   5.695  18.154  0.00  0.00    +0.000 A 
ATOM      4  C   UNL     1       3.117   7.057  18.005  0.00  0.00    +0.000 A 
ATOM      5  C   UNL     1       4.282   7.475  17.352  0.00  0.00    +0.000 A 
ATOM      6  C   UNL     1       5.173   6.533  16.834  0.00  0.00    +0.000 A 
ENDROOT
BRANCH   4   7
ATOM      7  C   UNL     1       2.180   8.066  18.549  0.00  0.00    +0.000 C 
ATOM      8  N   UNL     1       1.852   8.079  19.819  0.00  0.00    +0.000 NA
ATOM      9  C   UNL     1       0.908   9.225  19.942  0.00  0.00    +0.000 C 
ATOM     10  C   UNL     1       1.090  10.057  18.671  0.00  0.00    +0.000 C 
ATOM     11  N   UNL     1       1.631   9.062  17.773  0.00  0.00    +0.000 N 
ATOM     12  H   UNL     1       2.169   9.394  16.981  0.00  0.00    +0.000 HD
ENDBRANCH   4   7
BRANCH   1  13
ATOM     13  O   UNL     1       5.715   4.157  16.541  0.00  0.00    +0.000 OA
BRANCH  13  14
ATOM     14  C   UNL     1       6.978   4.557  16.008  0.00  0.00    +0.000 C 
BRANCH  14  15
ATOM     15  C   UNL     1       6.797   4.770  14.509  0.00  0.00    +0.000 C 
BRANCH  15  16
ATOM     16  C   UNL     1       5.897   3.698  13.901  0.00  0.00    +0.000 C 
BRANCH  16  17
ATOM     17  C   UNL     1       6.328   3.355  12.477  0.00  0.00    +0.000 C 
BRANCH  17  18
ATOM     18  C   UNL     1       5.148   2.832  11.659  0.00  0.00    +0.000 C 
BRANCH  18  19
ATOM     19  C   UNL     1       4.263   3.976  11.165  0.00  0.00    +0.000 C 
BRANCH  19  20
ATOM     20  C   UNL     1       3.177   3.460  10.220  0.00  0.00    +0.000 C 
BRANCH  20  22
ATOM     21  C   UNL     1       1.849   5.254   9.060  0.00  0.00    +0.000 C 
ATOM     22  C   UNL     1       3.058   4.338   8.975  0.00  0.00    +0.000 C 
ENDBRANCH  20  22
ENDBRANCH  19  20
ENDBRANCH  18  19
ENDBRANCH  17  18
ENDBRANCH  16  17
ENDBRANCH  15  16
ENDBRANCH  14  15
ENDBRANCH  13  14
ENDBRANCH   1  13
TORSDOF 10
ENDMDL
MODEL 3
REMARK VINA RESULT:      -6.1      4.488      7.084
REMARK  Name = 
REMARK  11 active torsions:
REMARK  status: ('A' for Active; 'I' for Inactive)
REMARK    1  A    between atoms: C_1  and  C_2
REMARK    2  A    between atoms: C_2  and  C_3
REMARK    3  A    between atoms: C_3  and  C_4
REMARK    4  A    between atoms: C_4  and  C_5
REMARK    5  A    between atoms: C_5  and  C_6
REMARK    6  A    between atoms: C_6  and  C_7
REMARK    7  A    between atoms: C_7  and  C_8
REMARK    8  A    between atoms: C_8  and  C_9
REMARK    9  A    between atoms: C_9  and  O_10
REMARK   10  A    between atoms: O_10  and  C_11
REMARK   11  A    between atoms: C_14  and  C_15
REMARK                            x       y       z     vdW  Elec       q    Type
REMARK                         _______ _______ _______ _____ _____    ______ ____
ROOT
ATOM      1  C   UNL     1       2.601   7.206  18.553  0.00  0.00    +0.000 A 
ATOM      2  C   UNL     1       2.183   7.269  19.885  0.00  0.00    +0.000 A 
ATOM      3  C   UNL     1       1.461   8.368  20.352  0.00  0.00    +0.000 A 
ATOM      4  C   UNL     1       1.177   9.425  19.487  0.00  0.00    +0.000 A 
ATOM      5  C   UNL     1       1.615   9.379  18.159  0.00  0.00    +0.000 A 
ATOM      6  C   UNL     1       2.323   8.270  17.692  0.00  0.00    +0.000 A 
ENDROOT
BRANCH   4   7
ATOM      7  C   UNL     1       0.426  10.607  19.969  0.00  0.00    +0.000 C 
ATOM      8  N   UNL     1       0.487  11.758  19.342  0.00  0.00    +0.000 NA
ATOM      9  C   UNL     1      -0.392  12.657  20.141  0.00  0.00    +0.000 C 
ATOM     10  C   UNL     1      -1.235  11.740  21.029  0.00  0.00    +0.000 C 
ATOM     11  N   UNL     1      -0.399  10.562  21.071  0.00  0.00    +0.000 N 
ATOM     12  H   UNL     1      -0.848   9.680  21.288  0.00  0.00    +0.000 HD
ENDBRANCH   4   7
BRANCH   1  13
ATOM     13  O   UNL     1       3.311   6.086  18.224  0.00  0.00    +0.000 OA
BRANCH  13  14
ATOM     14  C   UNL     1       4.211   5.607  19.225  0.00  0.00    +0.000 C 
BRANCH  14  15
ATOM     15  C   UNL     1       4.596   4.180  18.850  0.00  0.00    +0.000 C 
BRANCH  15  16
ATOM     16  C   UNL     1       3.955   3.760  17.530  0.00  0.00    +0.000 C 
BRANCH  16  17
ATOM     17  C   UNL     1       2.962   2.619  17.734  0.00  0.00    +0.000 C 
BRANCH  17  18
ATOM     18  C   UNL     1       1.554   3.158  17.986  0.00  0.00    +0.000 C 
BRANCH  18  19
ATOM     19  C   UNL     1       1.037   2.743  19.363  0.00  0.00    +0.000 C 
BRANCH  19  20
ATOM     20  C   UNL     1       0.914   3.953  20.290  0.00  0.00    +0.000 C 
BRANCH  20  22
ATOM     21  C   UNL     1       2.552   2.513  21.542  0.00  0.00    +0.000 C 
ATOM     22  C   UNL     1       1.942   3.899  21.418  0.00  0.00    +0.000 C 
ENDBRANCH  20  22
ENDBRANCH  19  20
ENDBRANCH  18  19
ENDBRANCH  17  18
ENDBRANCH  16  17
ENDBRANCH  15  16
ENDBRANCH  14  15
ENDBRANCH  13  14
ENDBRANCH   1  13
TORSDOF 10
ENDMDL
MODEL 4
REMARK VINA RESULT:      -6.0      1.335      2.887
REMARK  Name = 
REMARK  11 active torsions:
REMARK  status: ('A' for Active; 'I' for Inactive)
REMARK    1  A    between atoms: C_1  and  C_2
REMARK    2  A    between atoms: C_2  and  C_3
REMARK    3  A    between atoms: C_3  and  C_4
REMARK    4  A    between atoms: C_4  and  C_5
REMARK    5  A    between atoms: C_5  and  C_6
REMARK    6  A    between atoms: C_6  and  C_7
REMARK    7  A    between atoms: C_7  and  C_8
REMARK    8  A    between atoms: C_8  and  C_9
REMARK    9  A    between atoms: C_9  and  O_10
REMARK   10  A    between atoms: O_10  and  C_11
REMARK   11  A    between atoms: C_14  and  C_15
REMARK                            x       y       z     vdW  Elec       q    Type
REMARK                         _______ _______ _______ _____ _____    ______ ____
ROOT
ATOM      1  C   UNL     1       5.278   4.046  18.398  0.00  0.00    +0.000 A 
ATOM      2  C   UNL     1       4.474   3.704  17.307  0.00  0.00    +0.000 A 
ATOM      3  C   UNL     1       4.961   3.817  16.004  0.00  0.00    +0.000 A 
ATOM      4  C   UNL     1       6.252   4.300  15.788  0.00  0.00    +0.000 A 
ATOM      5  C   UNL     1       7.051   4.669  16.876  0.00  0.00    +0.000 A 
ATOM      6  C   UNL     1       6.566   4.539  18.179  0.00  0.00    +0.000 A 
ENDROOT
BRANCH   4   7
ATOM      7  C   UNL     1       6.778   4.442  14.411  0.00  0.00    +0.000 C 
ATOM      8  N   UNL     1       6.259   3.773  13.409  0.00  0.00    +0.000 NA
ATOM      9  C   UNL     1       7.065   4.196  12.229  0.00  0.00    +0.000 C 
ATOM     10  C   UNL     1       7.805   5.464  12.659  0.00  0.00    +0.000 C 
ATOM     11  N   UNL     1       7.807   5.301  14.096  0.00  0.00    +0.000 N 
ATOM     12  H   UNL     1       7.913   6.137  14.659  0.00  0.00    +0.000 HD
ENDBRANCH   4   7
BRANCH   1  13
ATOM     13  O   UNL     1       4.682   3.907  19.619  0.00  0.00    +0.000 OA
BRANCH  13  14
ATOM     14  C   UNL     1       4.359   2.569  20.001  0.00  0.00    +0.000 C 
BRANCH  14  15
ATOM     15  C   UNL     1       3.093   2.627  20.850  0.00  0.00    +0.000 C 
BRANCH  15  16
ATOM     16  C   UNL     1       1.845   2.739  19.979  0.00  0.00    +0.000 C 
BRANCH  16  17
ATOM     17  C   UNL     1       1.073   4.021  20.279  0.00  0.00    +0.000 C 
BRANCH  17  18
ATOM     18  C   UNL     1       1.505   5.151  19.345  0.00  0.00    +0.000 C 
BRANCH  18  19
ATOM     19  C   UNL     1       2.289   6.226  20.098  0.00  0.00    +0.000 C 
BRANCH  19  20
ATOM     20  C   UNL     1       2.154   7.585  19.409  0.00  0.00    +0.000 C 
BRANCH  20  22
ATOM     21  C   UNL     1       3.862   7.290  17.586  0.00  0.00    +0.000 C 
ATOM     22  C   UNL     1       2.388   7.473  17.903  0.00  0.00    +0.000 C 
ENDBRANCH  20  22
ENDBRANCH  19  20
ENDBRANCH  18  19
ENDBRANCH  17  18
ENDBRANCH  16  17
ENDBRANCH  15  16
ENDBRANCH  14  15
ENDBRANCH  13  14
ENDBRANCH   1  13
TORSDOF 10
ENDMDL
MODEL 5
REMARK VINA RESULT:      -6.0      0.563      1.210
REMARK  Name = 
REMARK  11 active torsions:
REMARK  status: ('A' for Active; 'I' for Inactive)
REMARK    1  A    between atoms: C_1  and  C_2
REMARK    2  A    between atoms: C_2  and  C_3
REMARK    3  A    between atoms: C_3  and  C_4
REMARK    4  A    between atoms: C_4  and  C_5
REMARK    5  A    between atoms: C_5  and  C_6
REMARK    6  A    between atoms: C_6  and  C_7
REMARK    7  A    between atoms: C_7  and  C_8
REMARK    8  A    between atoms: C_8  and  C_9
REMARK    9  A    between atoms: C_9  and  O_10
REMARK   10  A    between atoms: O_10  and  C_11
REMARK   11  A    between atoms: C_14  and  C_15
REMARK                            x       y       z     vdW  Elec       q    Type
REMARK                         _______ _______ _______ _____ _____    ______ ____
ROOT
ATOM      1  C   UNL     1       4.542   6.015  18.503  0.00  0.00    +0.000 A 
ATOM      2  C   UNL     1       5.369   4.891  18.449  0.00  0.00    +0.000 A 
ATOM      3  C   UNL     1       5.994   4.526  17.256  0.00  0.00    +0.000 A 
ATOM      4  C   UNL     1       5.770   5.276  16.101  0.00  0.00    +0.000 A 
ATOM      5  C   UNL     1       4.922   6.388  16.144  0.00  0.00    +0.000 A 
ATOM      6  C   UNL     1       4.311   6.759  17.343  0.00  0.00    +0.000 A 
ENDROOT
BRANCH   4   7
ATOM      7  C   UNL     1       6.412   4.894  14.822  0.00  0.00    +0.000 C 
ATOM      8  N   UNL     1       5.800   4.125  13.953  0.00  0.00    +0.000 NA
ATOM      9  C   UNL     1       6.774   3.987  12.835  0.00  0.00    +0.000 C 
ATOM     10  C   UNL     1       7.807   5.098  13.039  0.00  0.00    +0.000 C 
ATOM     11  N   UNL     1       7.660   5.345  14.455  0.00  0.00    +0.000 N 
ATOM     12  H   UNL     1       7.955   6.250  14.803  0.00  0.00    +0.000 HD
ENDBRANCH   4   7
BRANCH   1  13
ATOM     13  O   UNL     1       3.977   6.258  19.723  0.00  0.00    +0.000 OA
BRANCH  13  14
ATOM     14  C   UNL     1       2.585   6.579  19.709  0.00  0.00    +0.000 C 
BRANCH  14  15
ATOM     15  C   UNL     1       1.814   5.289  19.967  0.00  0.00    +0.000 C 
BRANCH  15  16
ATOM     16  C   UNL     1       2.430   4.493  21.114  0.00  0.00    +0.000 C 
BRANCH  16  17
ATOM     17  C   UNL     1       1.633   3.223  21.400  0.00  0.00    +0.000 C 
BRANCH  17  18
ATOM     18  C   UNL     1       1.898   2.160  20.334  0.00  0.00    +0.000 C 
BRANCH  18  19
ATOM     19  C   UNL     1       3.378   2.110  19.954  0.00  0.00    +0.000 C 
BRANCH  19  20
ATOM     20  C   UNL     1       3.550   1.862  18.455  0.00  0.00    +0.000 C 
BRANCH  20  22
ATOM     21  C   UNL     1       2.424   3.569  16.990  0.00  0.00    +0.000 C 
ATOM     22  C   UNL     1       2.284   2.223  17.680  0.00  0.00    +0.000 C 
ENDBRANCH  20  22
ENDBRANCH  19  20
ENDBRANCH  18  19
ENDBRANCH  17  18
ENDBRANCH  16  17
ENDBRANCH  15  16
ENDBRANCH  14  15
ENDBRANCH  13  14
ENDBRANCH   1  13
TORSDOF 10
ENDMDL
MODEL 6
REMARK VINA RESULT:      -5.9      2.718      4.784
REMARK  Name = 
REMARK  11 active torsions:
REMARK  status: ('A' for Active; 'I' for Inactive)
REMARK    1  A    between atoms: C_1  and  C_2
REMARK    2  A    between atoms: C_2  and  C_3
REMARK    3  A    between atoms: C_3  and  C_4
REMARK    4  A    between atoms: C_4  and  C_5
REMARK    5  A    between atoms: C_5  and  C_6
REMARK    6  A    between atoms: C_6  and  C_7
REMARK    7  A    between atoms: C_7  and  C_8
REMARK    8  A    between atoms: C_8  and  C_9
REMARK    9  A    between atoms: C_9  and  O_10
REMARK   10  A    between atoms: O_10  and  C_11
REMARK   11  A    between atoms: C_14  and  C_15
REMARK                            x       y       z     vdW  Elec       q    Type
REMARK                         _______ _______ _______ _____ _____    ______ ____
ROOT
ATOM      1  C   UNL     1       3.692   2.910  18.108  0.00  0.00    +0.000 A 
ATOM      2  C   UNL     1       4.449   3.157  19.256  0.00  0.00    +0.000 A 
ATOM      3  C   UNL     1       5.373   4.203  19.285  0.00  0.00    +0.000 A 
ATOM      4  C   UNL     1       5.559   4.992  18.149  0.00  0.00    +0.000 A 
ATOM      5  C   UNL     1       4.822   4.731  16.989  0.00  0.00    +0.000 A 
ATOM      6  C   UNL     1       3.887   3.694  16.969  0.00  0.00    +0.000 A 
ENDROOT
BRANCH   4   7
ATOM      7  C   UNL     1       6.547   6.095  18.156  0.00  0.00    +0.000 C 
ATOM      8  N   UNL     1       7.649   6.021  18.864  0.00  0.00    +0.000 NA
ATOM      9  C   UNL     1       8.344   7.311  18.597  0.00  0.00    +0.000 C 
ATOM     10  C   UNL     1       7.672   7.900  17.356  0.00  0.00    +0.000 C 
ATOM     11  N   UNL     1       6.389   7.237  17.402  0.00  0.00    +0.000 N 
ATOM     12  H   UNL     1       5.873   7.160  16.534  0.00  0.00    +0.000 HD
ENDBRANCH   4   7
BRANCH   1  13
ATOM     13  O   UNL     1       2.834   1.850  18.201  0.00  0.00    +0.000 OA
BRANCH  13  14
ATOM     14  C   UNL     1       1.833   1.949  19.215  0.00  0.00    +0.000 C 
BRANCH  14  15
ATOM     15  C   UNL     1       1.140   3.297  19.044  0.00  0.00    +0.000 C 
BRANCH  15  16
ATOM     16  C   UNL     1       0.898   3.972  20.390  0.00  0.00    +0.000 C 
BRANCH  16  17
ATOM     17  C   UNL     1       1.962   5.029  20.679  0.00  0.00    +0.000 C 
BRANCH  17  18
ATOM     18  C   UNL     1       2.074   6.023  19.523  0.00  0.00    +0.000 C 
BRANCH  18  19
ATOM     19  C   UNL     1       2.044   7.466  20.025  0.00  0.00    +0.000 C 
BRANCH  19  20
ATOM     20  C   UNL     1       1.031   7.631  21.159  0.00  0.00    +0.000 C 
BRANCH  20  22
ATOM     21  C   UNL     1       0.016   9.345  22.695  0.00  0.00    +0.000 C 
ATOM     22  C   UNL     1       1.259   8.932  21.926  0.00  0.00    +0.000 C 
ENDBRANCH  20  22
ENDBRANCH  19  20
ENDBRANCH  18  19
ENDBRANCH  17  18
ENDBRANCH  16  17
ENDBRANCH  15  16
ENDBRANCH  14  15
ENDBRANCH  13  14
ENDBRANCH   1  13
TORSDOF 10
ENDMDL
MODEL 7
REMARK VINA RESULT:      -5.9      1.434      3.273
REMARK  Name = 
REMARK  11 active torsions:
REMARK  status: ('A' for Active; 'I' for Inactive)
REMARK    1  A    between atoms: C_1  and  C_2
REMARK    2  A    between atoms: C_2  and  C_3
REMARK    3  A    between atoms: C_3  and  C_4
REMARK    4  A    between atoms: C_4  and  C_5
REMARK    5  A    between atoms: C_5  and  C_6
REMARK    6  A    between atoms: C_6  and  C_7
REMARK    7  A    between atoms: C_7  and  C_8
REMARK    8  A    between atoms: C_8  and  C_9
REMARK    9  A    between atoms: C_9  and  O_10
REMARK   10  A    between atoms: O_10  and  C_11
REMARK   11  A    between atoms: C_14  and  C_15
REMARK                            x       y       z     vdW  Elec       q    Type
REMARK                         _______ _______ _______ _____ _____    ______ ____
ROOT
ATOM      1  C   UNL     1       5.368   3.948  18.291  0.00  0.00    +0.000 A 
ATOM      2  C   UNL     1       6.637   4.498  18.093  0.00  0.00    +0.000 A 
ATOM      3  C   UNL     1       7.108   4.750  16.804  0.00  0.00    +0.000 A 
ATOM      4  C   UNL     1       6.316   4.424  15.703  0.00  0.00    +0.000 A 
ATOM      5  C   UNL     1       5.055   3.849  15.895  0.00  0.00    +0.000 A 
ATOM      6  C   UNL     1       4.580   3.614  17.187  0.00  0.00    +0.000 A 
ENDROOT
BRANCH   4   7
ATOM      7  C   UNL     1       6.807   4.668  14.328  0.00  0.00    +0.000 C 
ATOM      8  N   UNL     1       7.790   5.504  14.091  0.00  0.00    +0.000 NA
ATOM      9  C   UNL     1       7.965   5.457  12.612  0.00  0.00    +0.000 C 
ATOM     10  C   UNL     1       7.228   4.201  12.143  0.00  0.00    +0.000 C 
ATOM     11  N   UNL     1       6.293   4.015  13.229  0.00  0.00    +0.000 N 
ATOM     12  H   UNL     1       5.920   3.082  13.368  0.00  0.00    +0.000 HD
ENDBRANCH   4   7
BRANCH   1  13
ATOM     13  O   UNL     1       5.029   3.736  19.598  0.00  0.00    +0.000 OA
BRANCH  13  14
ATOM     14  C   UNL     1       4.413   2.480  19.882  0.00  0.00    +0.000 C 
BRANCH  14  15
ATOM     15  C   UNL     1       3.091   2.766  20.587  0.00  0.00    +0.000 C 
BRANCH  15  16
ATOM     16  C   UNL     1       2.175   3.626  19.721  0.00  0.00    +0.000 C 
BRANCH  16  17
ATOM     17  C   UNL     1       1.242   4.478  20.578  0.00  0.00    +0.000 C 
BRANCH  17  18
ATOM     18  C   UNL     1       1.666   5.946  20.556  0.00  0.00    +0.000 C 
BRANCH  18  19
ATOM     19  C   UNL     1       2.781   6.187  19.538  0.00  0.00    +0.000 C 
BRANCH  19  20
ATOM     20  C   UNL     1       2.295   7.077  18.394  0.00  0.00    +0.000 C 
BRANCH  20  22
ATOM     21  C   UNL     1       1.924   9.483  17.759  0.00  0.00    +0.000 C 
ATOM     22  C   UNL     1       1.919   8.471  18.893  0.00  0.00    +0.000 C 
ENDBRANCH  20  22
ENDBRANCH  19  20
ENDBRANCH  18  19
ENDBRANCH  17  18
ENDBRANCH  16  17
ENDBRANCH  15  16
ENDBRANCH  14  15
ENDBRANCH  13  14
ENDBRANCH   1  13
TORSDOF 10
ENDMDL
MODEL 8
REMARK VINA RESULT:      -5.9      1.031      1.665
REMARK  Name = 
REMARK  11 active torsions:
REMARK  status: ('A' for Active; 'I' for Inactive)
REMARK    1  A    between atoms: C_1  and  C_2
REMARK    2  A    between atoms: C_2  and  C_3
REMARK    3  A    between atoms: C_3  and  C_4
REMARK    4  A    between atoms: C_4  and  C_5
REMARK    5  A    between atoms: C_5  and  C_6
REMARK    6  A    between atoms: C_6  and  C_7
REMARK    7  A    between atoms: C_7  and  C_8
REMARK    8  A    between atoms: C_8  and  C_9
REMARK    9  A    between atoms: C_9  and  O_10
REMARK   10  A    between atoms: O_10  and  C_11
REMARK   11  A    between atoms: C_14  and  C_15
REMARK                            x       y       z     vdW  Elec       q    Type
REMARK                         _______ _______ _______ _____ _____    ______ ____
ROOT
ATOM      1  C   UNL     1       5.180   5.366  18.312  0.00  0.00    +0.000 A 
ATOM      2  C   UNL     1       4.382   4.793  17.319  0.00  0.00    +0.000 A 
ATOM      3  C   UNL     1       4.887   4.582  16.036  0.00  0.00    +0.000 A 
ATOM      4  C   UNL     1       6.193   4.970  15.735  0.00  0.00    +0.000 A 
ATOM      5  C   UNL     1       6.988   5.568  16.719  0.00  0.00    +0.000 A 
ATOM      6  C   UNL     1       6.484   5.763  18.007  0.00  0.00    +0.000 A 
ENDROOT
BRANCH   4   7
ATOM      7  C   UNL     1       6.740   4.768  14.375  0.00  0.00    +0.000 C 
ATOM      8  N   UNL     1       6.178   3.939  13.527  0.00  0.00    +0.000 NA
ATOM      9  C   UNL     1       7.025   4.032  12.305  0.00  0.00    +0.000 C 
ATOM     10  C   UNL     1       7.861   5.303  12.470  0.00  0.00    +0.000 C 
ATOM     11  N   UNL     1       7.838   5.456  13.907  0.00  0.00    +0.000 N 
ATOM     12  H   UNL     1       8.006   6.384  14.279  0.00  0.00    +0.000 HD
ENDBRANCH   4   7
BRANCH   1  13
ATOM     13  O   UNL     1       4.565   5.534  19.521  0.00  0.00    +0.000 OA
BRANCH  13  14
ATOM     14  C   UNL     1       3.196   5.941  19.469  0.00  0.00    +0.000 C 
BRANCH  14  15
ATOM     15  C   UNL     1       2.500   5.366  20.697  0.00  0.00    +0.000 C 
BRANCH  15  16
ATOM     16  C   UNL     1       1.416   4.366  20.305  0.00  0.00    +0.000 C 
BRANCH  16  17
ATOM     17  C   UNL     1       1.166   4.382  18.799  0.00  0.00    +0.000 C 
BRANCH  17  18
ATOM     18  C   UNL     1       1.320   2.982  18.204  0.00  0.00    +0.000 C 
BRANCH  18  19
ATOM     19  C   UNL     1       1.981   2.026  19.197  0.00  0.00    +0.000 C 
BRANCH  19  20
ATOM     20  C   UNL     1       3.265   1.434  18.615  0.00  0.00    +0.000 C 
BRANCH  20  22
ATOM     21  C   UNL     1       4.275   2.100  20.820  0.00  0.00    +0.000 C 
ATOM     22  C   UNL     1       4.503   1.983  19.322  0.00  0.00    +0.000 C 
ENDBRANCH  20  22
ENDBRANCH  19  20
ENDBRANCH  18  19
ENDBRANCH  17  18
ENDBRANCH  16  17
ENDBRANCH  15  16
ENDBRANCH  14  15
ENDBRANCH  13  14
ENDBRANCH   1  13
TORSDOF 10
ENDMDL
MODEL 9
REMARK VINA RESULT:      -5.8      6.147      8.860
REMARK  Name = 
REMARK  11 active torsions:
REMARK  status: ('A' for Active; 'I' for Inactive)
REMARK    1  A    between atoms: C_1  and  C_2
REMARK    2  A    between atoms: C_2  and  C_3
REMARK    3  A    between atoms: C_3  and  C_4
REMARK    4  A    between atoms: C_4  and  C_5
REMARK    5  A    between atoms: C_5  and  C_6
REMARK    6  A    between atoms: C_6  and  C_7
REMARK    7  A    between atoms: C_7  and  C_8
REMARK    8  A    between atoms: C_8  and  C_9
REMARK    9  A    between atoms: C_9  and  O_10
REMARK   10  A    between atoms: O_10  and  C_11
REMARK   11  A    between atoms: C_14  and  C_15
REMARK                            x       y       z     vdW  Elec       q    Type
REMARK                         _______ _______ _______ _____ _____    ______ ____
ROOT
ATOM      1  C   UNL     1       6.954   6.849  17.476  0.00  0.00    +0.000 A 
ATOM      2  C   UNL     1       5.629   6.980  17.054  0.00  0.00    +0.000 A 
ATOM      3  C   UNL     1       4.724   5.931  17.218  0.00  0.00    +0.000 A 
ATOM      4  C   UNL     1       5.154   4.731  17.785  0.00  0.00    +0.000 A 
ATOM      5  C   UNL     1       6.486   4.585  18.186  0.00  0.00    +0.000 A 
ATOM      6  C   UNL     1       7.385   5.643  18.035  0.00  0.00    +0.000 A 
ENDROOT
BRANCH   4   7
ATOM      7  C   UNL     1       4.211   3.601  17.952  0.00  0.00    +0.000 C 
ATOM      8  N   UNL     1       3.098   3.533  17.262  0.00  0.00    +0.000 NA
ATOM      9  C   UNL     1       2.456   2.270  17.725  0.00  0.00    +0.000 C 
ATOM     10  C   UNL     1       3.553   1.482  18.443  0.00  0.00    +0.000 C 
ATOM     11  N   UNL     1       4.460   2.548  18.804  0.00  0.00    +0.000 N 
ATOM     12  H   UNL     1       5.427   2.298  18.976  0.00  0.00    +0.000 HD
ENDBRANCH   4   7
BRANCH   1  13
ATOM     13  O   UNL     1       7.744   7.940  17.246  0.00  0.00    +0.000 OA
BRANCH  13  14
ATOM     14  C   UNL     1       8.432   8.458  18.385  0.00  0.00    +0.000 C 
BRANCH  14  15
ATOM     15  C   UNL     1       8.690   9.940  18.131  0.00  0.00    +0.000 C 
BRANCH  15  16
ATOM     16  C   UNL     1       9.401  10.591  19.314  0.00  0.00    +0.000 C 
BRANCH  16  17
ATOM     17  C   UNL     1      10.058  11.908  18.909  0.00  0.00    +0.000 C 
BRANCH  17  18
ATOM     18  C   UNL     1      10.833  11.754  17.601  0.00  0.00    +0.000 C 
BRANCH  18  19
ATOM     19  C   UNL     1      11.861  12.872  17.428  0.00  0.00    +0.000 C 
BRANCH  19  20
ATOM     20  C   UNL     1      11.440  14.127  18.194  0.00  0.00    +0.000 C 
BRANCH  20  22
ATOM     21  C   UNL     1      10.907  16.171  16.829  0.00  0.00    +0.000 C 
ATOM     22  C   UNL     1      11.998  15.391  17.543  0.00  0.00    +0.000 C 
ENDBRANCH  20  22
ENDBRANCH  19  20
ENDBRANCH  18  19
ENDBRANCH  17  18
ENDBRANCH  16  17
ENDBRANCH  15  16
ENDBRANCH  14  15
ENDBRANCH  13  14
ENDBRANCH   1  13
TORSDOF 10
ENDMDL
