MODEL 1
REMARK VINA RESULT:      -7.4      0.000      0.000
REMARK  Name = 
REMARK  4 active torsions:
REMARK  status: ('A' for Active; 'I' for Inactive)
REMARK    1  A    between atoms: C_2  and  C_13
REMARK    2  A    between atoms: N_3  and  C_4
REMARK    3  A    between atoms: C_7  and  N_8
REMARK    4  A    between atoms: C_20  and  O_21
REMARK                            x       y       z     vdW  Elec       q    Type
REMARK                         _______ _______ _______ _____ _____    ______ ____
ROOT
ATOM      1  O   UNL     1       4.864   5.541  16.288  0.00  0.00    +0.000 OA
ATOM      2  C   UNL     1       5.164   4.425  15.884  0.00  0.00    +0.000 C 
ATOM      3  N   UNL     1       4.861   3.224  16.501  0.00  0.00    +0.000 N 
ATOM      4  H   UNL     1       5.315   2.396  16.123  0.00  0.00    +0.000 HD
ENDROOT
BRANCH   2   5
ATOM      5  C   UNL     1       5.938   4.350  14.617  0.00  0.00    +0.000 A 
ATOM      6  C   UNL     1       5.421   3.509  13.616  0.00  0.00    +0.000 A 
ATOM      7  C   UNL     1       6.046   3.425  12.375  0.00  0.00    +0.000 A 
ATOM      8 CL   UNL     1       5.403   2.384  11.167  0.00  0.00    +0.000 Cl
ATOM      9  C   UNL     1       7.181   4.182  12.105  0.00  0.00    +0.000 A 
ATOM     10  C   UNL     1       7.698   5.015  13.096  0.00  0.00    +0.000 A 
ATOM     11 CL   UNL     1       9.095   5.966  12.745  0.00  0.00    +0.000 Cl
ATOM     12  C   UNL     1       7.092   5.097  14.357  0.00  0.00    +0.000 A 
BRANCH  12  13
ATOM     13  O   UNL     1       7.619   5.917  15.325  0.00  0.00    +0.000 OA
ATOM     14  H   UNL     1       8.200   5.365  15.888  0.00  0.00    +0.000 HD
ENDBRANCH  12  13
ENDBRANCH   2   5
BRANCH   3  15
ATOM     15  C   UNL     1       4.098   3.066  17.676  0.00  0.00    +0.000 A 
ATOM     16  C   UNL     1       2.740   2.734  17.655  0.00  0.00    +0.000 A 
ATOM     17  C   UNL     1       2.011   2.613  18.838  0.00  0.00    +0.000 A 
ATOM     18  C   UNL     1       2.649   2.815  20.061  0.00  0.00    +0.000 A 
ATOM     19  C   UNL     1       4.014   3.130  20.106  0.00  0.00    +0.000 A 
ATOM     20  C   UNL     1       4.735   3.246  18.910  0.00  0.00    +0.000 A 
BRANCH  18  21
ATOM     21  N   UNL     1       1.879   2.690  21.302  0.00  0.00    +0.000 N 
ATOM     22  O   UNL     1       0.650   2.838  21.238  0.00  0.00    +0.000 OA
ATOM     23  O   UNL     1       2.507   2.442  22.342  0.00  0.00    +0.000 OA
ENDBRANCH  18  21
ENDBRANCH   3  15
TORSDOF 4
ENDMDL
MODEL 2
REMARK VINA RESULT:      -7.4      0.094      1.058
REMARK  Name = 
REMARK  4 active torsions:
REMARK  status: ('A' for Active; 'I' for Inactive)
REMARK    1  A    between atoms: C_2  and  C_13
REMARK    2  A    between atoms: N_3  and  C_4
REMARK    3  A    between atoms: C_7  and  N_8
REMARK    4  A    between atoms: C_20  and  O_21
REMARK                            x       y       z     vdW  Elec       q    Type
REMARK                         _______ _______ _______ _____ _____    ______ ____
ROOT
ATOM      1  O   UNL     1       4.861   5.584  16.293  0.00  0.00    +0.000 OA
ATOM      2  C   UNL     1       5.184   4.463  15.919  0.00  0.00    +0.000 C 
ATOM      3  N   UNL     1       4.925   3.275  16.581  0.00  0.00    +0.000 N 
ATOM      4  H   UNL     1       5.395   2.448  16.221  0.00  0.00    +0.000 HD
ENDROOT
BRANCH   2   5
ATOM      5  C   UNL     1       5.935   4.368  14.640  0.00  0.00    +0.000 A 
ATOM      6  C   UNL     1       5.383   3.534  13.651  0.00  0.00    +0.000 A 
ATOM      7  C   UNL     1       5.986   3.433  12.401  0.00  0.00    +0.000 A 
ATOM      8 CL   UNL     1       5.301   2.401  11.208  0.00  0.00    +0.000 Cl
ATOM      9  C   UNL     1       7.132   4.165  12.109  0.00  0.00    +0.000 A 
ATOM     10  C   UNL     1       7.682   4.991  13.087  0.00  0.00    +0.000 A 
ATOM     11 CL   UNL     1       9.093   5.911  12.709  0.00  0.00    +0.000 Cl
ATOM     12  C   UNL     1       7.099   5.090  14.358  0.00  0.00    +0.000 A 
BRANCH  12  13
ATOM     13  O   UNL     1       7.659   5.902  15.314  0.00  0.00    +0.000 OA
ATOM     14  H   UNL     1       7.386   5.553  16.187  0.00  0.00    +0.000 HD
ENDBRANCH  12  13
ENDBRANCH   2   5
BRANCH   3  15
ATOM     15  C   UNL     1       4.190   3.136  17.775  0.00  0.00    +0.000 A 
ATOM     16  C   UNL     1       4.741   3.388  19.035  0.00  0.00    +0.000 A 
ATOM     17  C   UNL     1       3.990   3.214  20.197  0.00  0.00    +0.000 A 
ATOM     18  C   UNL     1       2.664   2.793  20.100  0.00  0.00    +0.000 A 
ATOM     19  C   UNL     1       2.085   2.553  18.846  0.00  0.00    +0.000 A 
ATOM     20  C   UNL     1       2.851   2.734  17.687  0.00  0.00    +0.000 A 
BRANCH  18  21
ATOM     21  N   UNL     1       1.878   2.608  21.324  0.00  0.00    +0.000 N 
ATOM     22  O   UNL     1       0.654   2.788  21.259  0.00  0.00    +0.000 OA
ATOM     23  O   UNL     1       2.490   2.280  22.352  0.00  0.00    +0.000 OA
ENDBRANCH  18  21
ENDBRANCH   3  15
TORSDOF 4
ENDMDL
MODEL 3
REMARK VINA RESULT:      -7.1      0.912      1.313
REMARK  Name = 
REMARK  4 active torsions:
REMARK  status: ('A' for Active; 'I' for Inactive)
REMARK    1  A    between atoms: C_2  and  C_13
REMARK    2  A    between atoms: N_3  and  C_4
REMARK    3  A    between atoms: C_7  and  N_8
REMARK    4  A    between atoms: C_20  and  O_21
REMARK                            x       y       z     vdW  Elec       q    Type
REMARK                         _______ _______ _______ _____ _____    ______ ____
ROOT
ATOM      1  O   UNL     1       6.642   4.138  17.035  0.00  0.00    +0.000 OA
ATOM      2  C   UNL     1       5.802   3.974  16.159  0.00  0.00    +0.000 C 
ATOM      3  N   UNL     1       4.463   3.686  16.355  0.00  0.00    +0.000 N 
ATOM      4  H   UNL     1       3.932   3.425  15.527  0.00  0.00    +0.000 HD
ENDROOT
BRANCH   2   5
ATOM      5  C   UNL     1       6.265   4.085  14.750  0.00  0.00    +0.000 A 
ATOM      6  C   UNL     1       5.638   3.239  13.818  0.00  0.00    +0.000 A 
ATOM      7  C   UNL     1       5.964   3.318  12.467  0.00  0.00    +0.000 A 
ATOM      8 CL   UNL     1       5.194   2.268  11.343  0.00  0.00    +0.000 Cl
ATOM      9  C   UNL     1       6.903   4.242  12.021  0.00  0.00    +0.000 A 
ATOM     10  C   UNL     1       7.527   5.081  12.943  0.00  0.00    +0.000 A 
ATOM     11 CL   UNL     1       8.675   6.239  12.377  0.00  0.00    +0.000 Cl
ATOM     12  C   UNL     1       7.224   5.002  14.309  0.00  0.00    +0.000 A 
BRANCH  12  13
ATOM     13  O   UNL     1       7.855   5.830  15.206  0.00  0.00    +0.000 OA
ATOM     14  H   UNL     1       7.158   6.324  15.684  0.00  0.00    +0.000 HD
ENDBRANCH  12  13
ENDBRANCH   2   5
BRANCH   3  15
ATOM     15  C   UNL     1       3.811   3.587  17.601  0.00  0.00    +0.000 A 
ATOM     16  C   UNL     1       3.695   4.669  18.479  0.00  0.00    +0.000 A 
ATOM     17  C   UNL     1       3.066   4.526  19.716  0.00  0.00    +0.000 A 
ATOM     18  C   UNL     1       2.535   3.288  20.077  0.00  0.00    +0.000 A 
ATOM     19  C   UNL     1       2.623   2.196  19.204  0.00  0.00    +0.000 A 
ATOM     20  C   UNL     1       3.255   2.353  17.963  0.00  0.00    +0.000 A 
BRANCH  18  21
ATOM     21  N   UNL     1       1.877   3.142  21.379  0.00  0.00    +0.000 N 
ATOM     22  O   UNL     1       2.480   3.552  22.381  0.00  0.00    +0.000 OA
ATOM     23  O   UNL     1       0.754   2.615  21.396  0.00  0.00    +0.000 OA
ENDBRANCH  18  21
ENDBRANCH   3  15
TORSDOF 4
ENDMDL
MODEL 4
REMARK VINA RESULT:      -7.0      6.668      8.125
REMARK  Name = 
REMARK  4 active torsions:
REMARK  status: ('A' for Active; 'I' for Inactive)
REMARK    1  A    between atoms: C_2  and  C_13
REMARK    2  A    between atoms: N_3  and  C_4
REMARK    3  A    between atoms: C_7  and  N_8
REMARK    4  A    between atoms: C_20  and  O_21
REMARK                            x       y       z     vdW  Elec       q    Type
REMARK                         _______ _______ _______ _____ _____    ______ ____
ROOT
ATOM      1  O   UNL     1       1.881   7.882  17.958  0.00  0.00    +0.000 OA
ATOM      2  C   UNL     1       1.757   8.110  19.155  0.00  0.00    +0.000 C 
ATOM      3  N   UNL     1       2.066   7.240  20.187  0.00  0.00    +0.000 N 
ATOM      4  H   UNL     1       1.760   7.518  21.117  0.00  0.00    +0.000 HD
ENDROOT
BRANCH   2   5
ATOM      5  C   UNL     1       1.213   9.439  19.538  0.00  0.00    +0.000 A 
ATOM      6  C   UNL     1       0.577   9.517  20.789  0.00  0.00    +0.000 A 
ATOM      7  C   UNL     1       0.092  10.735  21.256  0.00  0.00    +0.000 A 
ATOM      8 CL   UNL     1      -0.691  10.809  22.786  0.00  0.00    +0.000 Cl
ATOM      9  C   UNL     1       0.242  11.892  20.498  0.00  0.00    +0.000 A 
ATOM     10  C   UNL     1       0.871  11.817  19.256  0.00  0.00    +0.000 A 
ATOM     11 CL   UNL     1       1.071  13.260  18.331  0.00  0.00    +0.000 Cl
ATOM     12  C   UNL     1       1.348  10.595  18.763  0.00  0.00    +0.000 A 
BRANCH  12  13
ATOM     13  O   UNL     1       1.957  10.537  17.533  0.00  0.00    +0.000 OA
ATOM     14  H   UNL     1       2.688   9.888  17.601  0.00  0.00    +0.000 HD
ENDBRANCH  12  13
ENDBRANCH   2   5
BRANCH   3  15
ATOM     15  C   UNL     1       2.637   5.960  20.048  0.00  0.00    +0.000 A 
ATOM     16  C   UNL     1       3.862   5.744  19.409  0.00  0.00    +0.000 A 
ATOM     17  C   UNL     1       4.382   4.458  19.267  0.00  0.00    +0.000 A 
ATOM     18  C   UNL     1       3.675   3.371  19.780  0.00  0.00    +0.000 A 
ATOM     19  C   UNL     1       2.455   3.566  20.440  0.00  0.00    +0.000 A 
ATOM     20  C   UNL     1       1.944   4.864  20.579  0.00  0.00    +0.000 A 
BRANCH  18  21
ATOM     21  N   UNL     1       4.224   2.020  19.625  0.00  0.00    +0.000 N 
ATOM     22  O   UNL     1       5.081   1.647  20.438  0.00  0.00    +0.000 OA
ATOM     23  O   UNL     1       3.793   1.332  18.687  0.00  0.00    +0.000 OA
ENDBRANCH  18  21
ENDBRANCH   3  15
TORSDOF 4
ENDMDL
MODEL 5
REMARK VINA RESULT:      -7.0      6.496      8.610
REMARK  Name = 
REMARK  4 active torsions:
REMARK  status: ('A' for Active; 'I' for Inactive)
REMARK    1  A    between atoms: C_2  and  C_13
REMARK    2  A    between atoms: N_3  and  C_4
REMARK    3  A    between atoms: C_7  and  N_8
REMARK    4  A    between atoms: C_20  and  O_21
REMARK                            x       y       z     vdW  Elec       q    Type
REMARK                         _______ _______ _______ _____ _____    ______ ____
ROOT
ATOM      1  O   UNL     1       2.304   9.068  17.156  0.00  0.00    +0.000 OA
ATOM      2  C   UNL     1       2.090   8.519  18.230  0.00  0.00    +0.000 C 
ATOM      3  N   UNL     1       2.631   7.319  18.656  0.00  0.00    +0.000 N 
ATOM      4  H   UNL     1       2.233   6.921  19.504  0.00  0.00    +0.000 HD
ENDROOT
BRANCH   2   5
ATOM      5  C   UNL     1       1.151   9.200  19.161  0.00  0.00    +0.000 A 
ATOM      6  C   UNL     1       0.248  10.110  18.583  0.00  0.00    +0.000 A 
ATOM      7  C   UNL     1      -0.708  10.747  19.369  0.00  0.00    +0.000 A 
ATOM      8 CL   UNL     1      -1.798  11.863  18.646  0.00  0.00    +0.000 Cl
ATOM      9  C   UNL     1      -0.790  10.481  20.733  0.00  0.00    +0.000 A 
ATOM     10  C   UNL     1       0.105   9.581  21.308  0.00  0.00    +0.000 A 
ATOM     11 CL   UNL     1      -0.018   9.242  22.996  0.00  0.00    +0.000 Cl
ATOM     12  C   UNL     1       1.085   8.946  20.534  0.00  0.00    +0.000 A 
BRANCH  12  13
ATOM     13  O   UNL     1       1.965   8.068  21.119  0.00  0.00    +0.000 OA
ATOM     14  H   UNL     1       2.258   8.469  21.963  0.00  0.00    +0.000 HD
ENDBRANCH  12  13
ENDBRANCH   2   5
BRANCH   3  15
ATOM     15  C   UNL     1       3.574   6.541  17.956  0.00  0.00    +0.000 A 
ATOM     16  C   UNL     1       3.370   5.189  17.664  0.00  0.00    +0.000 A 
ATOM     17  C   UNL     1       4.338   4.444  16.992  0.00  0.00    +0.000 A 
ATOM     18  C   UNL     1       5.524   5.060  16.593  0.00  0.00    +0.000 A 
ATOM     19  C   UNL     1       5.742   6.419  16.858  0.00  0.00    +0.000 A 
ATOM     20  C   UNL     1       4.759   7.157  17.533  0.00  0.00    +0.000 A 
BRANCH  18  21
ATOM     21  N   UNL     1       6.541   4.273  15.890  0.00  0.00    +0.000 N 
ATOM     22  O   UNL     1       6.176   3.584  14.927  0.00  0.00    +0.000 OA
ATOM     23  O   UNL     1       7.708   4.347  16.303  0.00  0.00    +0.000 OA
ENDBRANCH  18  21
ENDBRANCH   3  15
TORSDOF 4
ENDMDL
MODEL 6
REMARK VINA RESULT:      -6.9      6.492      8.663
REMARK  Name = 
REMARK  4 active torsions:
REMARK  status: ('A' for Active; 'I' for Inactive)
REMARK    1  A    between atoms: C_2  and  C_13
REMARK    2  A    between atoms: N_3  and  C_4
REMARK    3  A    between atoms: C_7  and  N_8
REMARK    4  A    between atoms: C_20  and  O_21
REMARK                            x       y       z     vdW  Elec       q    Type
REMARK                         _______ _______ _______ _____ _____    ______ ____
ROOT
ATOM      1  O   UNL     1       2.380   9.138  17.144  0.00  0.00    +0.000 OA
ATOM      2  C   UNL     1       2.129   8.566  18.197  0.00  0.00    +0.000 C 
ATOM      3  N   UNL     1       2.669   7.364  18.621  0.00  0.00    +0.000 N 
ATOM      4  H   UNL     1       2.242   6.944  19.444  0.00  0.00    +0.000 HD
ENDROOT
BRANCH   2   5
ATOM      5  C   UNL     1       1.143   9.215  19.101  0.00  0.00    +0.000 A 
ATOM      6  C   UNL     1       0.238  10.108  18.502  0.00  0.00    +0.000 A 
ATOM      7  C   UNL     1      -0.758  10.714  19.261  0.00  0.00    +0.000 A 
ATOM      8 CL   UNL     1      -1.850  11.811  18.511  0.00  0.00    +0.000 Cl
ATOM      9  C   UNL     1      -0.880  10.434  20.618  0.00  0.00    +0.000 A 
ATOM     10  C   UNL     1       0.017   9.550  21.215  0.00  0.00    +0.000 A 
ATOM     11 CL   UNL     1      -0.155   9.192  22.895  0.00  0.00    +0.000 Cl
ATOM     12  C   UNL     1       1.038   8.945  20.469  0.00  0.00    +0.000 A 
BRANCH  12  13
ATOM     13  O   UNL     1       1.919   8.083  21.075  0.00  0.00    +0.000 OA
ATOM     14  H   UNL     1       1.679   7.177  20.793  0.00  0.00    +0.000 HD
ENDBRANCH  12  13
ENDBRANCH   2   5
BRANCH   3  15
ATOM     15  C   UNL     1       3.651   6.613  17.945  0.00  0.00    +0.000 A 
ATOM     16  C   UNL     1       4.867   7.162  17.528  0.00  0.00    +0.000 A 
ATOM     17  C   UNL     1       5.804   6.394  16.838  0.00  0.00    +0.000 A 
ATOM     18  C   UNL     1       5.528   5.053  16.568  0.00  0.00    +0.000 A 
ATOM     19  C   UNL     1       4.323   4.478  16.992  0.00  0.00    +0.000 A 
ATOM     20  C   UNL     1       3.391   5.260  17.688  0.00  0.00    +0.000 A 
BRANCH  18  21
ATOM     21  N   UNL     1       6.514   4.250  15.838  0.00  0.00    +0.000 N 
ATOM     22  O   UNL     1       7.702   4.344  16.177  0.00  0.00    +0.000 OA
ATOM     23  O   UNL     1       6.095   3.523  14.925  0.00  0.00    +0.000 OA
ENDBRANCH  18  21
ENDBRANCH   3  15
TORSDOF 4
ENDMDL
MODEL 7
REMARK VINA RESULT:      -6.8      6.687      8.866
REMARK  Name = 
REMARK  4 active torsions:
REMARK  status: ('A' for Active; 'I' for Inactive)
REMARK    1  A    between atoms: C_2  and  C_13
REMARK    2  A    between atoms: N_3  and  C_4
REMARK    3  A    between atoms: C_7  and  N_8
REMARK    4  A    between atoms: C_20  and  O_21
REMARK                            x       y       z     vdW  Elec       q    Type
REMARK                         _______ _______ _______ _____ _____    ______ ____
ROOT
ATOM      1  O   UNL     1       2.180   9.255  17.288  0.00  0.00    +0.000 OA
ATOM      2  C   UNL     1       1.919   8.665  18.329  0.00  0.00    +0.000 C 
ATOM      3  N   UNL     1       2.447   7.451  18.733  0.00  0.00    +0.000 N 
ATOM      4  H   UNL     1       2.012   7.019  19.545  0.00  0.00    +0.000 HD
ENDROOT
BRANCH   2   5
ATOM      5  C   UNL     1       0.935   9.305  19.240  0.00  0.00    +0.000 A 
ATOM      6  C   UNL     1       1.117   9.080  20.616  0.00  0.00    +0.000 A 
ATOM      7  C   UNL     1       0.281   9.690  21.546  0.00  0.00    +0.000 A 
ATOM      8 CL   UNL     1       0.515   9.394  23.224  0.00  0.00    +0.000 Cl
ATOM      9  C   UNL     1      -0.738  10.540  21.127  0.00  0.00    +0.000 A 
ATOM     10  C   UNL     1      -0.922  10.764  19.764  0.00  0.00    +0.000 A 
ATOM     11 CL   UNL     1      -2.175  11.837  19.255  0.00  0.00    +0.000 Cl
ATOM     12  C   UNL     1      -0.101  10.143  18.814  0.00  0.00    +0.000 A 
BRANCH  12  13
ATOM     13  O   UNL     1      -0.302  10.368  17.474  0.00  0.00    +0.000 OA
ATOM     14  H   UNL     1      -0.285   9.496  17.027  0.00  0.00    +0.000 HD
ENDBRANCH  12  13
ENDBRANCH   2   5
BRANCH   3  15
ATOM     15  C   UNL     1       3.425   6.704  18.047  0.00  0.00    +0.000 A 
ATOM     16  C   UNL     1       4.610   7.271  17.569  0.00  0.00    +0.000 A 
ATOM     17  C   UNL     1       5.544   6.506  16.871  0.00  0.00    +0.000 A 
ATOM     18  C   UNL     1       5.297   5.150  16.656  0.00  0.00    +0.000 A 
ATOM     19  C   UNL     1       4.124   4.556  17.143  0.00  0.00    +0.000 A 
ATOM     20  C   UNL     1       3.196   5.337  17.845  0.00  0.00    +0.000 A 
BRANCH  18  21
ATOM     21  N   UNL     1       6.279   4.350  15.919  0.00  0.00    +0.000 N 
ATOM     22  O   UNL     1       5.873   3.345  15.318  0.00  0.00    +0.000 OA
ATOM     23  O   UNL     1       7.460   4.730  15.943  0.00  0.00    +0.000 OA
ENDBRANCH  18  21
ENDBRANCH   3  15
TORSDOF 4
ENDMDL
MODEL 8
REMARK VINA RESULT:      -6.7      6.641      8.803
REMARK  Name = 
REMARK  4 active torsions:
REMARK  status: ('A' for Active; 'I' for Inactive)
REMARK    1  A    between atoms: C_2  and  C_13
REMARK    2  A    between atoms: N_3  and  C_4
REMARK    3  A    between atoms: C_7  and  N_8
REMARK    4  A    between atoms: C_20  and  O_21
REMARK                            x       y       z     vdW  Elec       q    Type
REMARK                         _______ _______ _______ _____ _____    ______ ____
ROOT
ATOM      1  O   UNL     1       2.275   9.075  17.396  0.00  0.00    +0.000 OA
ATOM      2  C   UNL     1       2.008   8.538  18.463  0.00  0.00    +0.000 C 
ATOM      3  N   UNL     1       2.531   7.345  18.931  0.00  0.00    +0.000 N 
ATOM      4  H   UNL     1       2.092   6.955  19.761  0.00  0.00    +0.000 HD
ENDROOT
BRANCH   2   5
ATOM      5  C   UNL     1       1.019   9.224  19.337  0.00  0.00    +0.000 A 
ATOM      6  C   UNL     1       1.146   9.003  20.719  0.00  0.00    +0.000 A 
ATOM      7  C   UNL     1       0.303   9.653  21.616  0.00  0.00    +0.000 A 
ATOM      8 CL   UNL     1       0.468   9.362  23.303  0.00  0.00    +0.000 Cl
ATOM      9  C   UNL     1      -0.666  10.539  21.156  0.00  0.00    +0.000 A 
ATOM     10  C   UNL     1      -0.795  10.760  19.787  0.00  0.00    +0.000 A 
ATOM     11 CL   UNL     1      -1.986  11.876  19.227  0.00  0.00    +0.000 Cl
ATOM     12  C   UNL     1       0.033  10.099  18.869  0.00  0.00    +0.000 A 
BRANCH  12  13
ATOM     13  O   UNL     1      -0.114  10.320  17.521  0.00  0.00    +0.000 OA
ATOM     14  H   UNL     1       0.780  10.288  17.122  0.00  0.00    +0.000 HD
ENDBRANCH  12  13
ENDBRANCH   2   5
BRANCH   3  15
ATOM     15  C   UNL     1       3.512   6.564  18.288  0.00  0.00    +0.000 A 
ATOM     16  C   UNL     1       3.793   5.247  18.663  0.00  0.00    +0.000 A 
ATOM     17  C   UNL     1       4.791   4.513  18.021  0.00  0.00    +0.000 A 
ATOM     18  C   UNL     1       5.512   5.099  16.981  0.00  0.00    +0.000 A 
ATOM     19  C   UNL     1       5.234   6.412  16.576  0.00  0.00    +0.000 A 
ATOM     20  C   UNL     1       4.227   7.137  17.228  0.00  0.00    +0.000 A 
BRANCH  18  21
ATOM     21  N   UNL     1       6.561   4.326  16.311  0.00  0.00    +0.000 N 
ATOM     22  O   UNL     1       7.714   4.406  16.758  0.00  0.00    +0.000 OA
ATOM     23  O   UNL     1       6.229   3.637  15.335  0.00  0.00    +0.000 OA
ENDBRANCH  18  21
ENDBRANCH   3  15
TORSDOF 4
ENDMDL
MODEL 9
REMARK VINA RESULT:      -6.6      6.888      8.199
REMARK  Name = 
REMARK  4 active torsions:
REMARK  status: ('A' for Active; 'I' for Inactive)
REMARK    1  A    between atoms: C_2  and  C_13
REMARK    2  A    between atoms: N_3  and  C_4
REMARK    3  A    between atoms: C_7  and  N_8
REMARK    4  A    between atoms: C_20  and  O_21
REMARK                            x       y       z     vdW  Elec       q    Type
REMARK                         _______ _______ _______ _____ _____    ______ ____
ROOT
ATOM      1  O   UNL     1       1.710   8.268  17.771  0.00  0.00    +0.000 OA
ATOM      2  C   UNL     1       1.646   8.510  18.970  0.00  0.00    +0.000 C 
ATOM      3  N   UNL     1       1.942   7.630  19.997  0.00  0.00    +0.000 N 
ATOM      4  H   UNL     1       1.688   7.932  20.935  0.00  0.00    +0.000 HD
ENDROOT
BRANCH   2   5
ATOM      5  C   UNL     1       1.196   9.871  19.362  0.00  0.00    +0.000 A 
ATOM      6  C   UNL     1       0.461   9.968  20.557  0.00  0.00    +0.000 A 
ATOM      7  C   UNL     1       0.053  11.210  21.033  0.00  0.00    +0.000 A 
ATOM      8 CL   UNL     1      -0.852  11.306  22.493  0.00  0.00    +0.000 Cl
ATOM      9  C   UNL     1       0.376  12.372  20.340  0.00  0.00    +0.000 A 
ATOM     10  C   UNL     1       1.102  12.280  19.154  0.00  0.00    +0.000 A 
ATOM     11 CL   UNL     1       1.517  13.728  18.312  0.00  0.00    +0.000 Cl
ATOM     12  C   UNL     1       1.505  11.035  18.651  0.00  0.00    +0.000 A 
BRANCH  12  13
ATOM     13  O   UNL     1       2.213  10.961  17.476  0.00  0.00    +0.000 OA
ATOM     14  H   UNL     1       2.647  11.829  17.343  0.00  0.00    +0.000 HD
ENDBRANCH  12  13
ENDBRANCH   2   5
BRANCH   3  15
ATOM     15  C   UNL     1       2.430   6.317  19.847  0.00  0.00    +0.000 A 
ATOM     16  C   UNL     1       1.823   5.212  20.452  0.00  0.00    +0.000 A 
ATOM     17  C   UNL     1       2.350   3.930  20.302  0.00  0.00    +0.000 A 
ATOM     18  C   UNL     1       3.495   3.745  19.528  0.00  0.00    +0.000 A 
ATOM     19  C   UNL     1       4.110   4.836  18.898  0.00  0.00    +0.000 A 
ATOM     20  C   UNL     1       3.567   6.119  19.054  0.00  0.00    +0.000 A 
BRANCH  18  21
ATOM     21  N   UNL     1       4.049   2.396  19.376  0.00  0.00    +0.000 N 
ATOM     22  O   UNL     1       4.839   1.994  20.241  0.00  0.00    +0.000 OA
ATOM     23  O   UNL     1       3.689   1.739  18.387  0.00  0.00    +0.000 OA
ENDBRANCH  18  21
ENDBRANCH   3  15
TORSDOF 4
ENDMDL
