MODEL 1
REMARK VINA RESULT:      -8.5      0.000      0.000
REMARK  Name = 
REMARK  7 active torsions:
REMARK  status: ('A' for Active; 'I' for Inactive)
REMARK    1  A    between atoms: C_1  and  C_2
REMARK    2  A    between atoms: C_5  and  N_6
REMARK    3  A    between atoms: C_8  and  C_9
REMARK    4  A    between atoms: C_10  and  C_11
REMARK    5  A    between atoms: N_12  and  C_13
REMARK    6  A    between atoms: C_16  and  O_17
REMARK    7  A    between atoms: O_17  and  C_18
REMARK                            x       y       z     vdW  Elec       q    Type
REMARK                         _______ _______ _______ _____ _____    ______ ____
ROOT
ATOM      1  N   UNL     1       1.371   8.019  20.547  0.00  0.00    +0.000 N 
ATOM      2  N   UNL     1       1.438   6.861  21.338  0.00  0.00    +0.000 N 
ATOM      3  C   UNL     1       2.004   5.876  20.532  0.00  0.00    +0.000 A 
ATOM      4  C   UNL     1       2.060   4.450  20.965  0.00  0.00    +0.000 C 
ATOM      5  C   UNL     1       2.430   6.365  19.354  0.00  0.00    +0.000 A 
ATOM      6  C   UNL     1       2.002   7.782  19.328  0.00  0.00    +0.000 A 
ATOM      7  O   UNL     1       2.207   8.520  18.378  0.00  0.00    +0.000 OA
ATOM      8  H   UNL     1       0.538   6.580  21.733  0.00  0.00    +0.000 HD
ENDROOT
BRANCH   1  13
ATOM      9  C   UNL     1      -0.997  12.854  22.489  0.00  0.00    +0.000 C 
ATOM     10  C   UNL     1      -0.335  11.601  21.998  0.00  0.00    +0.000 A 
ATOM     11  C   UNL     1      -0.366  10.437  22.766  0.00  0.00    +0.000 A 
ATOM     12  C   UNL     1       0.205   9.259  22.282  0.00  0.00    +0.000 A 
ATOM     13  C   UNL     1       0.834   9.225  21.031  0.00  0.00    +0.000 A 
ATOM     14  C   UNL     1       0.893  10.403  20.277  0.00  0.00    +0.000 A 
ATOM     15  C   UNL     1       0.298  11.575  20.749  0.00  0.00    +0.000 A 
ENDBRANCH   1  13
BRANCH   5  16
ATOM     16  C   UNL     1       3.167   5.724  18.270  0.00  0.00    +0.000 C 
ATOM     17  N   UNL     1       4.350   6.092  17.901  0.00  0.00    +0.000 NA
BRANCH  17  18
ATOM     18  C   UNL     1       4.948   5.461  16.800  0.00  0.00    +0.000 A 
ATOM     19  C   UNL     1       5.060   4.071  16.840  0.00  0.00    +0.000 A 
ATOM     20  C   UNL     1       5.617   3.369  15.769  0.00  0.00    +0.000 A 
ATOM     21  C   UNL     1       6.066   4.048  14.634  0.00  0.00    +0.000 A 
ATOM     22  C   UNL     1       6.006   5.438  14.607  0.00  0.00    +0.000 A 
ATOM     23  C   UNL     1       5.417   6.135  15.667  0.00  0.00    +0.000 A 
BRANCH  21  24
ATOM     24  O   UNL     1       6.572   3.253  13.655  0.00  0.00    +0.000 OA
BRANCH  24  25
ATOM     25  C   UNL     1       6.162   3.460  12.311  0.00  0.00    +0.000 C 
ATOM     26  F   UNL     1       6.784   4.482  11.685  0.00  0.00    +0.000 F 
ATOM     27  F   UNL     1       6.371   2.328  11.603  0.00  0.00    +0.000 F 
ATOM     28  F   UNL     1       4.836   3.723  12.303  0.00  0.00    +0.000 F 
ENDBRANCH  24  25
ENDBRANCH  21  24
ENDBRANCH  17  18
ENDBRANCH   5  16
TORSDOF 5
ENDMDL
MODEL 2
REMARK VINA RESULT:      -8.2      0.399      1.359
REMARK  Name = 
REMARK  7 active torsions:
REMARK  status: ('A' for Active; 'I' for Inactive)
REMARK    1  A    between atoms: C_1  and  C_2
REMARK    2  A    between atoms: C_5  and  N_6
REMARK    3  A    between atoms: C_8  and  C_9
REMARK    4  A    between atoms: C_10  and  C_11
REMARK    5  A    between atoms: N_12  and  C_13
REMARK    6  A    between atoms: C_16  and  O_17
REMARK    7  A    between atoms: O_17  and  C_18
REMARK                            x       y       z     vdW  Elec       q    Type
REMARK                         _______ _______ _______ _____ _____    ______ ____
ROOT
ATOM      1  N   UNL     1       1.206   8.227  20.586  0.00  0.00    +0.000 N 
ATOM      2  N   UNL     1       1.402   7.089  21.385  0.00  0.00    +0.000 N 
ATOM      3  C   UNL     1       1.971   6.129  20.552  0.00  0.00    +0.000 A 
ATOM      4  C   UNL     1       2.149   4.716  20.998  0.00  0.00    +0.000 C 
ATOM      5  C   UNL     1       2.278   6.622  19.340  0.00  0.00    +0.000 A 
ATOM      6  C   UNL     1       1.761   8.010  19.327  0.00  0.00    +0.000 A 
ATOM      7  O   UNL     1       1.848   8.742  18.355  0.00  0.00    +0.000 OA
ATOM      8  H   UNL     1       0.553   6.760  21.849  0.00  0.00    +0.000 HD
ENDROOT
BRANCH   1  13
ATOM      9  C   UNL     1      -0.963  13.084  22.700  0.00  0.00    +0.000 C 
ATOM     10  C   UNL     1      -0.436  11.804  22.125  0.00  0.00    +0.000 A 
ATOM     11  C   UNL     1       0.287  11.808  20.931  0.00  0.00    +0.000 A 
ATOM     12  C   UNL     1       0.821  10.622  20.426  0.00  0.00    +0.000 A 
ATOM     13  C   UNL     1       0.629   9.406  21.093  0.00  0.00    +0.000 A 
ATOM     14  C   UNL     1      -0.125   9.397  22.272  0.00  0.00    +0.000 A 
ATOM     15  C   UNL     1      -0.637  10.589  22.792  0.00  0.00    +0.000 A 
ENDBRANCH   1  13
BRANCH   5  16
ATOM     16  C   UNL     1       2.974   6.010  18.213  0.00  0.00    +0.000 C 
ATOM     17  N   UNL     1       4.226   5.687  18.242  0.00  0.00    +0.000 NA
BRANCH  17  18
ATOM     18  C   UNL     1       4.824   5.170  17.084  0.00  0.00    +0.000 A 
ATOM     19  C   UNL     1       5.208   6.080  16.098  0.00  0.00    +0.000 A 
ATOM     20  C   UNL     1       5.837   5.643  14.930  0.00  0.00    +0.000 A 
ATOM     21  C   UNL     1       6.100   4.286  14.732  0.00  0.00    +0.000 A 
ATOM     22  C   UNL     1       5.674   3.366  15.685  0.00  0.00    +0.000 A 
ATOM     23  C   UNL     1       5.075   3.810  16.869  0.00  0.00    +0.000 A 
BRANCH  21  24
ATOM     24  O   UNL     1       6.730   3.990  13.565  0.00  0.00    +0.000 OA
BRANCH  24  25
ATOM     25  C   UNL     1       5.958   3.587  12.441  0.00  0.00    +0.000 C 
ATOM     26  F   UNL     1       6.277   4.212  11.288  0.00  0.00    +0.000 F 
ATOM     27  F   UNL     1       6.094   2.255  12.264  0.00  0.00    +0.000 F 
ATOM     28  F   UNL     1       4.657   3.847  12.701  0.00  0.00    +0.000 F 
ENDBRANCH  24  25
ENDBRANCH  21  24
ENDBRANCH  17  18
ENDBRANCH   5  16
TORSDOF 5
ENDMDL
MODEL 3
REMARK VINA RESULT:      -8.1      1.009      1.477
REMARK  Name = 
REMARK  7 active torsions:
REMARK  status: ('A' for Active; 'I' for Inactive)
REMARK    1  A    between atoms: C_1  and  C_2
REMARK    2  A    between atoms: C_5  and  N_6
REMARK    3  A    between atoms: C_8  and  C_9
REMARK    4  A    between atoms: C_10  and  C_11
REMARK    5  A    between atoms: N_12  and  C_13
REMARK    6  A    between atoms: C_16  and  O_17
REMARK    7  A    between atoms: O_17  and  C_18
REMARK                            x       y       z     vdW  Elec       q    Type
REMARK                         _______ _______ _______ _____ _____    ______ ____
ROOT
ATOM      1  N   UNL     1       1.198   8.919  19.811  0.00  0.00    +0.000 N 
ATOM      2  N   UNL     1       1.442   7.954  20.802  0.00  0.00    +0.000 N 
ATOM      3  C   UNL     1       2.053   6.884  20.152  0.00  0.00    +0.000 A 
ATOM      4  C   UNL     1       2.291   5.584  20.845  0.00  0.00    +0.000 C 
ATOM      5  C   UNL     1       2.342   7.163  18.870  0.00  0.00    +0.000 A 
ATOM      6  C   UNL     1       1.765   8.502  18.610  0.00  0.00    +0.000 A 
ATOM      7  O   UNL     1       1.824   9.051  17.521  0.00  0.00    +0.000 OA
ATOM      8  H   UNL     1       0.606   7.677  21.321  0.00  0.00    +0.000 HD
ENDROOT
BRANCH   1  13
ATOM      9  C   UNL     1      -1.311  13.966  20.808  0.00  0.00    +0.000 C 
ATOM     10  C   UNL     1      -0.676  12.627  20.584  0.00  0.00    +0.000 A 
ATOM     11  C   UNL     1      -1.255  11.705  19.711  0.00  0.00    +0.000 A 
ATOM     12  C   UNL     1      -0.633  10.480  19.466  0.00  0.00    +0.000 A 
ATOM     13  C   UNL     1       0.569  10.144  20.100  0.00  0.00    +0.000 A 
ATOM     14  C   UNL     1       1.131  11.056  21.001  0.00  0.00    +0.000 A 
ATOM     15  C   UNL     1       0.523  12.293  21.227  0.00  0.00    +0.000 A 
ENDBRANCH   1  13
BRANCH   5  16
ATOM     16  C   UNL     1       3.067   6.388  17.868  0.00  0.00    +0.000 C 
ATOM     17  N   UNL     1       4.357   6.359  17.791  0.00  0.00    +0.000 NA
BRANCH  17  18
ATOM     18  C   UNL     1       4.962   5.641  16.748  0.00  0.00    +0.000 A 
ATOM     19  C   UNL     1       4.724   4.267  16.693  0.00  0.00    +0.000 A 
ATOM     20  C   UNL     1       5.267   3.491  15.667  0.00  0.00    +0.000 A 
ATOM     21  C   UNL     1       6.052   4.078  14.673  0.00  0.00    +0.000 A 
ATOM     22  C   UNL     1       6.336   5.438  14.749  0.00  0.00    +0.000 A 
ATOM     23  C   UNL     1       5.764   6.219  15.758  0.00  0.00    +0.000 A 
BRANCH  21  24
ATOM     24  O   UNL     1       6.508   3.220  13.722  0.00  0.00    +0.000 OA
BRANCH  24  25
ATOM     25  C   UNL     1       5.992   3.309  12.401  0.00  0.00    +0.000 C 
ATOM     26  F   UNL     1       5.932   2.134  11.741  0.00  0.00    +0.000 F 
ATOM     27  F   UNL     1       4.752   3.845  12.444  0.00  0.00    +0.000 F 
ATOM     28  F   UNL     1       6.784   4.140  11.687  0.00  0.00    +0.000 F 
ENDBRANCH  24  25
ENDBRANCH  21  24
ENDBRANCH  17  18
ENDBRANCH   5  16
TORSDOF 5
ENDMDL
MODEL 4
REMARK VINA RESULT:      -8.0      5.635     10.287
REMARK  Name = 
REMARK  7 active torsions:
REMARK  status: ('A' for Active; 'I' for Inactive)
REMARK    1  A    between atoms: C_1  and  C_2
REMARK    2  A    between atoms: C_5  and  N_6
REMARK    3  A    between atoms: C_8  and  C_9
REMARK    4  A    between atoms: C_10  and  C_11
REMARK    5  A    between atoms: N_12  and  C_13
REMARK    6  A    between atoms: C_16  and  O_17
REMARK    7  A    between atoms: O_17  and  C_18
REMARK                            x       y       z     vdW  Elec       q    Type
REMARK                         _______ _______ _______ _____ _____    ______ ____
ROOT
ATOM      1  N   UNL     1       3.707   5.410  18.231  0.00  0.00    +0.000 N 
ATOM      2  N   UNL     1       3.232   4.398  19.081  0.00  0.00    +0.000 N 
ATOM      3  C   UNL     1       2.516   5.045  20.086  0.00  0.00    +0.000 A 
ATOM      4  C   UNL     1       2.019   4.311  21.286  0.00  0.00    +0.000 C 
ATOM      5  C   UNL     1       2.383   6.362  19.850  0.00  0.00    +0.000 A 
ATOM      6  C   UNL     1       3.184   6.636  18.635  0.00  0.00    +0.000 A 
ATOM      7  O   UNL     1       3.304   7.752  18.156  0.00  0.00    +0.000 OA
ATOM      8  H   UNL     1       3.967   3.789  19.448  0.00  0.00    +0.000 HD
ENDROOT
BRANCH   1  13
ATOM      9  C   UNL     1       6.758   4.300  13.517  0.00  0.00    +0.000 C 
ATOM     10  C   UNL     1       5.999   4.592  14.777  0.00  0.00    +0.000 A 
ATOM     11  C   UNL     1       5.647   5.902  15.103  0.00  0.00    +0.000 A 
ATOM     12  C   UNL     1       4.895   6.165  16.250  0.00  0.00    +0.000 A 
ATOM     13  C   UNL     1       4.495   5.127  17.101  0.00  0.00    +0.000 A 
ATOM     14  C   UNL     1       4.877   3.817  16.789  0.00  0.00    +0.000 A 
ATOM     15  C   UNL     1       5.607   3.551  15.628  0.00  0.00    +0.000 A 
ENDBRANCH   1  13
BRANCH   5  16
ATOM     16  C   UNL     1       1.632   7.385  20.569  0.00  0.00    +0.000 C 
ATOM     17  N   UNL     1       1.337   8.537  20.063  0.00  0.00    +0.000 NA
BRANCH  17  18
ATOM     18  C   UNL     1       0.673   9.483  20.858  0.00  0.00    +0.000 A 
ATOM     19  C   UNL     1       0.025   9.017  22.002  0.00  0.00    +0.000 A 
ATOM     20  C   UNL     1      -0.632   9.901  22.860  0.00  0.00    +0.000 A 
ATOM     21  C   UNL     1      -0.646  11.271  22.590  0.00  0.00    +0.000 A 
ATOM     22  C   UNL     1      -0.047  11.739  21.424  0.00  0.00    +0.000 A 
ATOM     23  C   UNL     1       0.640  10.855  20.585  0.00  0.00    +0.000 A 
BRANCH  21  24
ATOM     24  O   UNL     1      -1.303  12.029  23.507  0.00  0.00    +0.000 OA
BRANCH  24  25
ATOM     25  C   UNL     1      -2.641  12.430  23.245  0.00  0.00    +0.000 C 
ATOM     26  F   UNL     1      -3.072  12.166  21.994  0.00  0.00    +0.000 F 
ATOM     27  F   UNL     1      -3.467  11.823  24.125  0.00  0.00    +0.000 F 
ATOM     28  F   UNL     1      -2.732  13.766  23.435  0.00  0.00    +0.000 F 
ENDBRANCH  24  25
ENDBRANCH  21  24
ENDBRANCH  17  18
ENDBRANCH   5  16
TORSDOF 5
ENDMDL
MODEL 5
REMARK VINA RESULT:      -7.9      1.187      1.700
REMARK  Name = 
REMARK  7 active torsions:
REMARK  status: ('A' for Active; 'I' for Inactive)
REMARK    1  A    between atoms: C_1  and  C_2
REMARK    2  A    between atoms: C_5  and  N_6
REMARK    3  A    between atoms: C_8  and  C_9
REMARK    4  A    between atoms: C_10  and  C_11
REMARK    5  A    between atoms: N_12  and  C_13
REMARK    6  A    between atoms: C_16  and  O_17
REMARK    7  A    between atoms: O_17  and  C_18
REMARK                            x       y       z     vdW  Elec       q    Type
REMARK                         _______ _______ _______ _____ _____    ______ ____
ROOT
ATOM      1  N   UNL     1       1.169   9.173  19.721  0.00  0.00    +0.000 N 
ATOM      2  N   UNL     1       1.289   8.230  20.755  0.00  0.00    +0.000 N 
ATOM      3  C   UNL     1       1.834   7.088  20.172  0.00  0.00    +0.000 A 
ATOM      4  C   UNL     1       1.932   5.801  20.920  0.00  0.00    +0.000 C 
ATOM      5  C   UNL     1       2.198   7.292  18.894  0.00  0.00    +0.000 A 
ATOM      6  C   UNL     1       1.747   8.663  18.561  0.00  0.00    +0.000 A 
ATOM      7  O   UNL     1       1.896   9.161  17.457  0.00  0.00    +0.000 OA
ATOM      8  H   UNL     1       0.413   8.044  21.247  0.00  0.00    +0.000 HD
ENDROOT
BRANCH   1  13
ATOM      9  C   UNL     1      -0.980  14.432  20.413  0.00  0.00    +0.000 C 
ATOM     10  C   UNL     1      -0.434  13.043  20.274  0.00  0.00    +0.000 A 
ATOM     11  C   UNL     1      -1.171  12.054  19.621  0.00  0.00    +0.000 A 
ATOM     12  C   UNL     1      -0.637  10.776  19.448  0.00  0.00    +0.000 A 
ATOM     13  C   UNL     1       0.635  10.456  19.938  0.00  0.00    +0.000 A 
ATOM     14  C   UNL     1       1.359  11.439  20.622  0.00  0.00    +0.000 A 
ATOM     15  C   UNL     1       0.836  12.725  20.772  0.00  0.00    +0.000 A 
ENDBRANCH   1  13
BRANCH   5  16
ATOM     16  C   UNL     1       2.895   6.420  17.954  0.00  0.00    +0.000 C 
ATOM     17  N   UNL     1       4.177   6.433  17.791  0.00  0.00    +0.000 NA
BRANCH  17  18
ATOM     18  C   UNL     1       4.749   5.608  16.811  0.00  0.00    +0.000 A 
ATOM     19  C   UNL     1       5.381   6.232  15.736  0.00  0.00    +0.000 A 
ATOM     20  C   UNL     1       5.999   5.479  14.736  0.00  0.00    +0.000 A 
ATOM     21  C   UNL     1       6.002   4.084  14.800  0.00  0.00    +0.000 A 
ATOM     22  C   UNL     1       5.329   3.451  15.841  0.00  0.00    +0.000 A 
ATOM     23  C   UNL     1       4.740   4.209  16.858  0.00  0.00    +0.000 A 
BRANCH  21  24
ATOM     24  O   UNL     1       6.649   3.465  13.777  0.00  0.00    +0.000 OA
BRANCH  24  25
ATOM     25  C   UNL     1       6.069   3.475  12.480  0.00  0.00    +0.000 C 
ATOM     26  F   UNL     1       6.633   4.348  11.619  0.00  0.00    +0.000 F 
ATOM     27  F   UNL     1       6.144   2.234  11.951  0.00  0.00    +0.000 F 
ATOM     28  F   UNL     1       4.763   3.804  12.598  0.00  0.00    +0.000 F 
ENDBRANCH  24  25
ENDBRANCH  21  24
ENDBRANCH  17  18
ENDBRANCH   5  16
TORSDOF 5
ENDMDL
MODEL 6
REMARK VINA RESULT:      -7.9      0.601      1.228
REMARK  Name = 
REMARK  7 active torsions:
REMARK  status: ('A' for Active; 'I' for Inactive)
REMARK    1  A    between atoms: C_1  and  C_2
REMARK    2  A    between atoms: C_5  and  N_6
REMARK    3  A    between atoms: C_8  and  C_9
REMARK    4  A    between atoms: C_10  and  C_11
REMARK    5  A    between atoms: N_12  and  C_13
REMARK    6  A    between atoms: C_16  and  O_17
REMARK    7  A    between atoms: O_17  and  C_18
REMARK                            x       y       z     vdW  Elec       q    Type
REMARK                         _______ _______ _______ _____ _____    ______ ____
ROOT
ATOM      1  N   UNL     1       1.392   8.055  20.514  0.00  0.00    +0.000 N 
ATOM      2  N   UNL     1       1.586   6.873  21.246  0.00  0.00    +0.000 N 
ATOM      3  C   UNL     1       2.197   5.976  20.373  0.00  0.00    +0.000 A 
ATOM      4  C   UNL     1       2.388   4.541  20.736  0.00  0.00    +0.000 C 
ATOM      5  C   UNL     1       2.532   6.549  19.205  0.00  0.00    +0.000 A 
ATOM      6  C   UNL     1       1.989   7.926  19.262  0.00  0.00    +0.000 A 
ATOM      7  O   UNL     1       2.093   8.720  18.341  0.00  0.00    +0.000 OA
ATOM      8  H   UNL     1       0.729   6.500  21.661  0.00  0.00    +0.000 HD
ENDROOT
BRANCH   1  13
ATOM      9  C   UNL     1      -1.284  12.587  22.764  0.00  0.00    +0.000 C 
ATOM     10  C   UNL     1      -0.543  11.415  22.192  0.00  0.00    +0.000 A 
ATOM     11  C   UNL     1      -0.484  10.207  22.888  0.00  0.00    +0.000 A 
ATOM     12  C   UNL     1       0.162   9.104  22.329  0.00  0.00    +0.000 A 
ATOM     13  C   UNL     1       0.777   9.189  21.074  0.00  0.00    +0.000 A 
ATOM     14  C   UNL     1       0.746  10.411  20.393  0.00  0.00    +0.000 A 
ATOM     15  C   UNL     1       0.077  11.509  20.940  0.00  0.00    +0.000 A 
ENDBRANCH   1  13
BRANCH   5  16
ATOM     16  C   UNL     1       3.274   6.021  18.065  0.00  0.00    +0.000 C 
ATOM     17  N   UNL     1       4.528   5.710  18.116  0.00  0.00    +0.000 NA
BRANCH  17  18
ATOM     18  C   UNL     1       5.172   5.277  16.947  0.00  0.00    +0.000 A 
ATOM     19  C   UNL     1       6.272   6.015  16.510  0.00  0.00    +0.000 A 
ATOM     20  C   UNL     1       6.983   5.629  15.372  0.00  0.00    +0.000 A 
ATOM     21  C   UNL     1       6.609   4.491  14.655  0.00  0.00    +0.000 A 
ATOM     22  C   UNL     1       5.482   3.778  15.054  0.00  0.00    +0.000 A 
ATOM     23  C   UNL     1       4.793   4.148  16.213  0.00  0.00    +0.000 A 
BRANCH  21  24
ATOM     24  O   UNL     1       7.388   4.211  13.578  0.00  0.00    +0.000 OA
BRANCH  24  25
ATOM     25  C   UNL     1       6.772   3.915  12.332  0.00  0.00    +0.000 C 
ATOM     26  F   UNL     1       6.948   2.647  11.905  0.00  0.00    +0.000 F 
ATOM     27  F   UNL     1       5.446   4.162  12.424  0.00  0.00    +0.000 F 
ATOM     28  F   UNL     1       7.289   4.738  11.393  0.00  0.00    +0.000 F 
ENDBRANCH  24  25
ENDBRANCH  21  24
ENDBRANCH  17  18
ENDBRANCH   5  16
TORSDOF 5
ENDMDL
MODEL 7
REMARK VINA RESULT:      -7.9      3.646      5.340
REMARK  Name = 
REMARK  7 active torsions:
REMARK  status: ('A' for Active; 'I' for Inactive)
REMARK    1  A    between atoms: C_1  and  C_2
REMARK    2  A    between atoms: C_5  and  N_6
REMARK    3  A    between atoms: C_8  and  C_9
REMARK    4  A    between atoms: C_10  and  C_11
REMARK    5  A    between atoms: N_12  and  C_13
REMARK    6  A    between atoms: C_16  and  O_17
REMARK    7  A    between atoms: O_17  and  C_18
REMARK                            x       y       z     vdW  Elec       q    Type
REMARK                         _______ _______ _______ _____ _____    ______ ____
ROOT
ATOM      1  N   UNL     1      -0.495  11.506  21.748  0.00  0.00    +0.000 N 
ATOM      2  N   UNL     1      -0.165  11.785  20.412  0.00  0.00    +0.000 N 
ATOM      3  C   UNL     1       0.571  10.691  19.962  0.00  0.00    +0.000 A 
ATOM      4  C   UNL     1       1.264  10.708  18.641  0.00  0.00    +0.000 C 
ATOM      5  C   UNL     1       0.601   9.692  20.860  0.00  0.00    +0.000 A 
ATOM      6  C   UNL     1      -0.082  10.214  22.066  0.00  0.00    +0.000 A 
ATOM      7  O   UNL     1      -0.208   9.566  23.092  0.00  0.00    +0.000 OA
ATOM      8  H   UNL     1       0.327  12.672  20.286  0.00  0.00    +0.000 HD
ENDROOT
BRANCH   1  13
ATOM      9  C   UNL     1      -3.387  15.113  25.122  0.00  0.00    +0.000 C 
ATOM     10  C   UNL     1      -2.648  14.190  24.201  0.00  0.00    +0.000 A 
ATOM     11  C   UNL     1      -1.331  14.465  23.830  0.00  0.00    +0.000 A 
ATOM     12  C   UNL     1      -0.629  13.576  23.015  0.00  0.00    +0.000 A 
ATOM     13  C   UNL     1      -1.232  12.406  22.539  0.00  0.00    +0.000 A 
ATOM     14  C   UNL     1      -2.564  12.148  22.884  0.00  0.00    +0.000 A 
ATOM     15  C   UNL     1      -3.259  13.024  23.722  0.00  0.00    +0.000 A 
ENDBRANCH   1  13
BRANCH   5  16
ATOM     16  C   UNL     1       1.154   8.345  20.766  0.00  0.00    +0.000 C 
ATOM     17  N   UNL     1       1.841   7.929  19.753  0.00  0.00    +0.000 NA
BRANCH  17  18
ATOM     18  C   UNL     1       2.270   6.594  19.722  0.00  0.00    +0.000 A 
ATOM     19  C   UNL     1       3.142   6.224  18.697  0.00  0.00    +0.000 A 
ATOM     20  C   UNL     1       3.636   4.920  18.617  0.00  0.00    +0.000 A 
ATOM     21  C   UNL     1       3.271   3.965  19.567  0.00  0.00    +0.000 A 
ATOM     22  C   UNL     1       2.361   4.310  20.562  0.00  0.00    +0.000 A 
ATOM     23  C   UNL     1       1.895   5.625  20.660  0.00  0.00    +0.000 A 
BRANCH  21  24
ATOM     24  O   UNL     1       3.830   2.739  19.390  0.00  0.00    +0.000 OA
BRANCH  24  25
ATOM     25  C   UNL     1       3.152   1.773  18.599  0.00  0.00    +0.000 C 
ATOM     26  F   UNL     1       2.812   2.198  17.364  0.00  0.00    +0.000 F 
ATOM     27  F   UNL     1       3.926   0.672  18.482  0.00  0.00    +0.000 F 
ATOM     28  F   UNL     1       2.013   1.421  19.237  0.00  0.00    +0.000 F 
ENDBRANCH  24  25
ENDBRANCH  21  24
ENDBRANCH  17  18
ENDBRANCH   5  16
TORSDOF 5
ENDMDL
MODEL 8
REMARK VINA RESULT:      -7.8      0.409      1.011
REMARK  Name = 
REMARK  7 active torsions:
REMARK  status: ('A' for Active; 'I' for Inactive)
REMARK    1  A    between atoms: C_1  and  C_2
REMARK    2  A    between atoms: C_5  and  N_6
REMARK    3  A    between atoms: C_8  and  C_9
REMARK    4  A    between atoms: C_10  and  C_11
REMARK    5  A    between atoms: N_12  and  C_13
REMARK    6  A    between atoms: C_16  and  O_17
REMARK    7  A    between atoms: O_17  and  C_18
REMARK                            x       y       z     vdW  Elec       q    Type
REMARK                         _______ _______ _______ _____ _____    ______ ____
ROOT
ATOM      1  N   UNL     1       1.326   7.774  20.748  0.00  0.00    +0.000 N 
ATOM      2  N   UNL     1       1.378   6.586  21.495  0.00  0.00    +0.000 N 
ATOM      3  C   UNL     1       2.088   5.674  20.717  0.00  0.00    +0.000 A 
ATOM      4  C   UNL     1       2.184   4.234  21.096  0.00  0.00    +0.000 C 
ATOM      5  C   UNL     1       2.607   6.240  19.614  0.00  0.00    +0.000 A 
ATOM      6  C   UNL     1       2.099   7.631  19.598  0.00  0.00    +0.000 A 
ATOM      7  O   UNL     1       2.359   8.423  18.707  0.00  0.00    +0.000 OA
ATOM      8  H   UNL     1       0.459   6.236  21.776  0.00  0.00    +0.000 HD
ENDROOT
BRANCH   1  13
ATOM      9  C   UNL     1      -1.186  12.544  22.670  0.00  0.00    +0.000 C 
ATOM     10  C   UNL     1      -0.570  11.279  22.154  0.00  0.00    +0.000 A 
ATOM     11  C   UNL     1      -0.061  11.217  20.856  0.00  0.00    +0.000 A 
ATOM     12  C   UNL     1       0.558  10.053  20.397  0.00  0.00    +0.000 A 
ATOM     13  C   UNL     1       0.666   8.924  21.218  0.00  0.00    +0.000 A 
ATOM     14  C   UNL     1       0.126   8.977  22.508  0.00  0.00    +0.000 A 
ATOM     15  C   UNL     1      -0.471  10.150  22.977  0.00  0.00    +0.000 A 
ENDBRANCH   1  13
BRANCH   5  16
ATOM     16  C   UNL     1       3.495   5.693  18.594  0.00  0.00    +0.000 C 
ATOM     17  N   UNL     1       3.773   6.307  17.491  0.00  0.00    +0.000 NA
BRANCH  17  18
ATOM     18  C   UNL     1       4.581   5.669  16.539  0.00  0.00    +0.000 A 
ATOM     19  C   UNL     1       4.524   4.276  16.479  0.00  0.00    +0.000 A 
ATOM     20  C   UNL     1       5.276   3.571  15.538  0.00  0.00    +0.000 A 
ATOM     21  C   UNL     1       6.094   4.250  14.632  0.00  0.00    +0.000 A 
ATOM     22  C   UNL     1       6.197   5.635  14.718  0.00  0.00    +0.000 A 
ATOM     23  C   UNL     1       5.417   6.340  15.639  0.00  0.00    +0.000 A 
BRANCH  21  24
ATOM     24  O   UNL     1       6.763   3.454  13.756  0.00  0.00    +0.000 OA
BRANCH  24  25
ATOM     25  C   UNL     1       6.482   3.561  12.368  0.00  0.00    +0.000 C 
ATOM     26  F   UNL     1       7.159   4.540  11.732  0.00  0.00    +0.000 F 
ATOM     27  F   UNL     1       6.759   2.383  11.767  0.00  0.00    +0.000 F 
ATOM     28  F   UNL     1       5.162   3.811  12.215  0.00  0.00    +0.000 F 
ENDBRANCH  24  25
ENDBRANCH  21  24
ENDBRANCH  17  18
ENDBRANCH   5  16
TORSDOF 5
ENDMDL
MODEL 9
REMARK VINA RESULT:      -7.8      3.356      4.949
REMARK  Name = 
REMARK  7 active torsions:
REMARK  status: ('A' for Active; 'I' for Inactive)
REMARK    1  A    between atoms: C_1  and  C_2
REMARK    2  A    between atoms: C_5  and  N_6
REMARK    3  A    between atoms: C_8  and  C_9
REMARK    4  A    between atoms: C_10  and  C_11
REMARK    5  A    between atoms: N_12  and  C_13
REMARK    6  A    between atoms: C_16  and  O_17
REMARK    7  A    between atoms: O_17  and  C_18
REMARK                            x       y       z     vdW  Elec       q    Type
REMARK                         _______ _______ _______ _____ _____    ______ ____
ROOT
ATOM      1  N   UNL     1      -0.799  11.641  20.853  0.00  0.00    +0.000 N 
ATOM      2  N   UNL     1      -1.595  11.306  19.745  0.00  0.00    +0.000 N 
ATOM      3  C   UNL     1      -0.807  10.486  18.940  0.00  0.00    +0.000 A 
ATOM      4  C   UNL     1      -1.245  10.082  17.573  0.00  0.00    +0.000 C 
ATOM      5  C   UNL     1       0.359  10.165  19.526  0.00  0.00    +0.000 A 
ATOM      6  C   UNL     1       0.401  10.937  20.790  0.00  0.00    +0.000 A 
ATOM      7  O   UNL     1       1.346  10.899  21.560  0.00  0.00    +0.000 OA
ATOM      8  H   UNL     1      -1.965  12.116  19.243  0.00  0.00    +0.000 HD
ENDROOT
BRANCH   1  13
ATOM      9  C   UNL     1      -2.548  14.992  25.150  0.00  0.00    +0.000 C 
ATOM     10  C   UNL     1      -2.118  14.138  23.996  0.00  0.00    +0.000 A 
ATOM     11  C   UNL     1      -0.960  14.446  23.280  0.00  0.00    +0.000 A 
ATOM     12  C   UNL     1      -0.535  13.620  22.239  0.00  0.00    +0.000 A 
ATOM     13  C   UNL     1      -1.265  12.480  21.881  0.00  0.00    +0.000 A 
ATOM     14  C   UNL     1      -2.444  12.191  22.577  0.00  0.00    +0.000 A 
ATOM     15  C   UNL     1      -2.856  13.003  23.637  0.00  0.00    +0.000 A 
ENDBRANCH   1  13
BRANCH   5  16
ATOM     16  C   UNL     1       1.420   9.259  19.099  0.00  0.00    +0.000 C 
ATOM     17  N   UNL     1       1.435   7.998  19.383  0.00  0.00    +0.000 NA
BRANCH  17  18
ATOM     18  C   UNL     1       2.535   7.222  18.988  0.00  0.00    +0.000 A 
ATOM     19  C   UNL     1       3.224   7.622  17.843  0.00  0.00    +0.000 A 
ATOM     20  C   UNL     1       4.348   6.918  17.404  0.00  0.00    +0.000 A 
ATOM     21  C   UNL     1       4.806   5.805  18.111  0.00  0.00    +0.000 A 
ATOM     22  C   UNL     1       4.095   5.368  19.225  0.00  0.00    +0.000 A 
ATOM     23  C   UNL     1       2.991   6.095  19.680  0.00  0.00    +0.000 A 
BRANCH  21  24
ATOM     24  O   UNL     1       5.917   5.216  17.593  0.00  0.00    +0.000 OA
BRANCH  24  25
ATOM     25  C   UNL     1       7.180   5.466  18.194  0.00  0.00    +0.000 C 
ATOM     26  F   UNL     1       7.144   5.609  19.536  0.00  0.00    +0.000 F 
ATOM     27  F   UNL     1       8.024   4.457  17.888  0.00  0.00    +0.000 F 
ATOM     28  F   UNL     1       7.682   6.608  17.674  0.00  0.00    +0.000 F 
ENDBRANCH  24  25
ENDBRANCH  21  24
ENDBRANCH  17  18
ENDBRANCH   5  16
TORSDOF 5
ENDMDL
