MODEL 1
REMARK VINA RESULT:      -7.2      0.000      0.000
REMARK  Name = 
REMARK  7 active torsions:
REMARK  status: ('A' for Active; 'I' for Inactive)
REMARK    1  A    between atoms: N_6  and  C_7
REMARK    2  A    between atoms: C_7  and  O_8
REMARK    3  A    between atoms: O_8  and  C_9
REMARK    4  A    between atoms: C_9  and  C_10
REMARK    5  A    between atoms: C_10  and  O_11
REMARK    6  A    between atoms: C_12  and  SE_13
REMARK    7  A    between atoms: SE_13  and  C_14
REMARK                            x       y       z     vdW  Elec       q    Type
REMARK                         _______ _______ _______ _____ _____    ______ ____
ROOT
ATOM      1  O   UNL     1       0.807   2.460  18.412  0.00  0.00    +0.000 OA
ATOM      2  C   UNL     1       1.891   2.997  18.563  0.00  0.00    +0.000 A 
ATOM      3  N   UNL     1       2.864   2.377  19.297  0.00  0.00    +0.000 N 
ATOM      4  C   UNL     1       4.084   2.970  19.485  0.00  0.00    +0.000 A 
ATOM      5  O   UNL     1       4.924   2.387  20.155  0.00  0.00    +0.000 OA
ATOM      6  N   UNL     1       4.355   4.217  18.935  0.00  0.00    +0.000 N 
ATOM      7  C   UNL     1       3.381   4.858  18.196  0.00  0.00    +0.000 A 
ATOM      8  C   UNL     1       2.137   4.247  18.002  0.00  0.00    +0.000 A 
ATOM      9  F   UNL     1       1.161   4.877  17.300  0.00  0.00    +0.000 F 
ATOM     10  H   UNL     1       2.669   1.444  19.729  0.00  0.00    +0.000 HD
ENDROOT
BRANCH   6  11
ATOM     11  C   UNL     1       5.673   4.843  19.156  0.00  0.00    +0.000 C 
BRANCH  11  12
ATOM     12  O   UNL     1       6.663   4.334  18.284  0.00  0.00    +0.000 OA
BRANCH  12  13
ATOM     13  C   UNL     1       7.198   5.360  17.478  0.00  0.00    +0.000 C 
BRANCH  13  14
ATOM     14  C   UNL     1       6.687   5.160  16.056  0.00  0.00    +0.000 C 
BRANCH  14  15
ATOM     15  O   UNL     1       7.720   5.349  15.130  0.00  0.00    +0.000 OA
ATOM     16  H   UNL     1       7.405   4.955  14.274  0.00  0.00    +0.000 HD
ENDBRANCH  14  15
ENDBRANCH  13  14
ENDBRANCH  12  13
ENDBRANCH  11  12
ENDBRANCH   6  11
BRANCH   7  17
ATOM     17 SE   UNL     1       3.597   6.682  17.530  0.00  0.00    +0.000 Se
BRANCH  17  18
ATOM     18  C   UNL     1       2.484   7.708  18.729  0.00  0.00    +0.000 A 
ATOM     19  C   UNL     1       1.849   8.879  18.289  0.00  0.00    +0.000 A 
ATOM     20  C   UNL     1       0.960   9.558  19.135  0.00  0.00    +0.000 A 
ATOM     21  C   UNL     1       0.702   9.067  20.419  0.00  0.00    +0.000 A 
ATOM     22  C   UNL     1       1.334   7.901  20.859  0.00  0.00    +0.000 A 
ATOM     23  C   UNL     1       2.219   7.221  20.015  0.00  0.00    +0.000 A 
ENDBRANCH  17  18
ENDBRANCH   7  17
TORSDOF 7
ENDMDL
MODEL 2
REMARK VINA RESULT:      -7.0      3.232      4.694
REMARK  Name = 
REMARK  7 active torsions:
REMARK  status: ('A' for Active; 'I' for Inactive)
REMARK    1  A    between atoms: N_6  and  C_7
REMARK    2  A    between atoms: C_7  and  O_8
REMARK    3  A    between atoms: O_8  and  C_9
REMARK    4  A    between atoms: C_9  and  C_10
REMARK    5  A    between atoms: C_10  and  O_11
REMARK    6  A    between atoms: C_12  and  SE_13
REMARK    7  A    between atoms: SE_13  and  C_14
REMARK                            x       y       z     vdW  Elec       q    Type
REMARK                         _______ _______ _______ _____ _____    ______ ____
ROOT
ATOM      1  O   UNL     1       7.474   5.233  20.462  0.00  0.00    +0.000 OA
ATOM      2  C   UNL     1       7.078   5.357  19.315  0.00  0.00    +0.000 A 
ATOM      3  N   UNL     1       7.663   6.275  18.487  0.00  0.00    +0.000 N 
ATOM      4  C   UNL     1       7.226   6.434  17.199  0.00  0.00    +0.000 A 
ATOM      5  O   UNL     1       7.769   7.271  16.493  0.00  0.00    +0.000 OA
ATOM      6  N   UNL     1       6.175   5.667  16.711  0.00  0.00    +0.000 N 
ATOM      7  C   UNL     1       5.571   4.741  17.536  0.00  0.00    +0.000 A 
ATOM      8  C   UNL     1       6.024   4.577  18.851  0.00  0.00    +0.000 A 
ATOM      9  F   UNL     1       5.422   3.688  19.682  0.00  0.00    +0.000 F 
ATOM     10  H   UNL     1       8.446   6.869  18.846  0.00  0.00    +0.000 HD
ENDROOT
BRANCH   6  11
ATOM     11  C   UNL     1       5.713   5.860  15.322  0.00  0.00    +0.000 C 
BRANCH  11  12
ATOM     12  O   UNL     1       6.625   5.339  14.375  0.00  0.00    +0.000 OA
BRANCH  12  13
ATOM     13  C   UNL     1       6.336   3.989  14.089  0.00  0.00    +0.000 C 
BRANCH  13  14
ATOM     14  C   UNL     1       6.568   3.762  12.600  0.00  0.00    +0.000 C 
BRANCH  14  15
ATOM     15  O   UNL     1       5.958   2.573  12.182  0.00  0.00    +0.000 OA
ATOM     16  H   UNL     1       6.247   1.870  12.822  0.00  0.00    +0.000 HD
ENDBRANCH  14  15
ENDBRANCH  13  14
ENDBRANCH  12  13
ENDBRANCH  11  12
ENDBRANCH   6  11
BRANCH   7  17
ATOM     17 SE   UNL     1       3.979   3.740  17.005  0.00  0.00    +0.000 Se
BRANCH  17  18
ATOM     18  C   UNL     1       2.741   4.117  18.439  0.00  0.00    +0.000 A 
ATOM     19  C   UNL     1       1.942   3.099  18.980  0.00  0.00    +0.000 A 
ATOM     20  C   UNL     1       1.125   3.360  20.089  0.00  0.00    +0.000 A 
ATOM     21  C   UNL     1       1.107   4.636  20.661  0.00  0.00    +0.000 A 
ATOM     22  C   UNL     1       1.902   5.652  20.124  0.00  0.00    +0.000 A 
ATOM     23  C   UNL     1       2.720   5.392  19.018  0.00  0.00    +0.000 A 
ENDBRANCH  17  18
ENDBRANCH   7  17
TORSDOF 7
ENDMDL
MODEL 3
REMARK VINA RESULT:      -6.9      0.796      1.323
REMARK  Name = 
REMARK  7 active torsions:
REMARK  status: ('A' for Active; 'I' for Inactive)
REMARK    1  A    between atoms: N_6  and  C_7
REMARK    2  A    between atoms: C_7  and  O_8
REMARK    3  A    between atoms: O_8  and  C_9
REMARK    4  A    between atoms: C_9  and  C_10
REMARK    5  A    between atoms: C_10  and  O_11
REMARK    6  A    between atoms: C_12  and  SE_13
REMARK    7  A    between atoms: SE_13  and  C_14
REMARK                            x       y       z     vdW  Elec       q    Type
REMARK                         _______ _______ _______ _____ _____    ______ ____
ROOT
ATOM      1  O   UNL     1       0.963   2.626  18.235  0.00  0.00    +0.000 OA
ATOM      2  C   UNL     1       2.014   3.213  18.433  0.00  0.00    +0.000 A 
ATOM      3  N   UNL     1       3.019   2.598  19.126  0.00  0.00    +0.000 N 
ATOM      4  C   UNL     1       4.202   3.245  19.366  0.00  0.00    +0.000 A 
ATOM      5  O   UNL     1       5.073   2.664  19.996  0.00  0.00    +0.000 OA
ATOM      6  N   UNL     1       4.400   4.544  18.912  0.00  0.00    +0.000 N 
ATOM      7  C   UNL     1       3.392   5.180  18.217  0.00  0.00    +0.000 A 
ATOM      8  C   UNL     1       2.187   4.514  17.969  0.00  0.00    +0.000 A 
ATOM      9  F   UNL     1       1.177   5.136  17.308  0.00  0.00    +0.000 F 
ATOM     10  H   UNL     1       2.878   1.625  19.486  0.00  0.00    +0.000 HD
ENDROOT
BRANCH   6  11
ATOM     11  C   UNL     1       5.679   5.227  19.188  0.00  0.00    +0.000 C 
BRANCH  11  12
ATOM     12  O   UNL     1       6.338   5.633  18.005  0.00  0.00    +0.000 OA
BRANCH  12  13
ATOM     13  C   UNL     1       7.239   4.640  17.566  0.00  0.00    +0.000 C 
BRANCH  13  14
ATOM     14  C   UNL     1       6.905   4.307  16.117  0.00  0.00    +0.000 C 
BRANCH  14  15
ATOM     15  O   UNL     1       5.895   3.340  16.054  0.00  0.00    +0.000 OA
ATOM     16  H   UNL     1       5.081   3.804  15.722  0.00  0.00    +0.000 HD
ENDBRANCH  14  15
ENDBRANCH  13  14
ENDBRANCH  12  13
ENDBRANCH  11  12
ENDBRANCH   6  11
BRANCH   7  17
ATOM     17 SE   UNL     1       3.503   7.058  17.690  0.00  0.00    +0.000 Se
BRANCH  17  18
ATOM     18  C   UNL     1       2.229   7.907  18.868  0.00  0.00    +0.000 A 
ATOM     19  C   UNL     1       2.036   7.433  20.174  0.00  0.00    +0.000 A 
ATOM     20  C   UNL     1       1.188   8.120  21.053  0.00  0.00    +0.000 A 
ATOM     21  C   UNL     1       0.535   9.283  20.632  0.00  0.00    +0.000 A 
ATOM     22  C   UNL     1       0.726   9.758  19.332  0.00  0.00    +0.000 A 
ATOM     23  C   UNL     1       1.574   9.074  18.453  0.00  0.00    +0.000 A 
ENDBRANCH  17  18
ENDBRANCH   7  17
TORSDOF 7
ENDMDL
MODEL 4
REMARK VINA RESULT:      -6.9      1.031      1.688
REMARK  Name = 
REMARK  7 active torsions:
REMARK  status: ('A' for Active; 'I' for Inactive)
REMARK    1  A    between atoms: N_6  and  C_7
REMARK    2  A    between atoms: C_7  and  O_8
REMARK    3  A    between atoms: O_8  and  C_9
REMARK    4  A    between atoms: C_9  and  C_10
REMARK    5  A    between atoms: C_10  and  O_11
REMARK    6  A    between atoms: C_12  and  SE_13
REMARK    7  A    between atoms: SE_13  and  C_14
REMARK                            x       y       z     vdW  Elec       q    Type
REMARK                         _______ _______ _______ _____ _____    ______ ____
ROOT
ATOM      1  O   UNL     1       0.521   2.751  18.205  0.00  0.00    +0.000 OA
ATOM      2  C   UNL     1       1.621   3.205  18.471  0.00  0.00    +0.000 A 
ATOM      3  N   UNL     1       2.479   2.495  19.265  0.00  0.00    +0.000 N 
ATOM      4  C   UNL     1       3.714   2.993  19.581  0.00  0.00    +0.000 A 
ATOM      5  O   UNL     1       4.448   2.331  20.300  0.00  0.00    +0.000 OA
ATOM      6  N   UNL     1       4.118   4.233  19.104  0.00  0.00    +0.000 N 
ATOM      7  C   UNL     1       3.262   4.965  18.307  0.00  0.00    +0.000 A 
ATOM      8  C   UNL     1       2.001   4.451  17.981  0.00  0.00    +0.000 A 
ATOM      9  F   UNL     1       1.138   5.170  17.219  0.00  0.00    +0.000 F 
ATOM     10  H   UNL     1       2.182   1.565  19.643  0.00  0.00    +0.000 HD
ENDROOT
BRANCH   6  11
ATOM     11  C   UNL     1       5.451   4.756  19.463  0.00  0.00    +0.000 C 
BRANCH  11  12
ATOM     12  O   UNL     1       6.484   4.162  18.703  0.00  0.00    +0.000 OA
BRANCH  12  13
ATOM     13  C   UNL     1       7.166   5.129  17.937  0.00  0.00    +0.000 C 
BRANCH  13  14
ATOM     14  C   UNL     1       7.905   6.056  18.894  0.00  0.00    +0.000 C 
BRANCH  14  15
ATOM     15  O   UNL     1       8.536   5.319  19.904  0.00  0.00    +0.000 OA
ATOM     16  H   UNL     1       9.166   4.700  19.447  0.00  0.00    +0.000 HD
ENDBRANCH  14  15
ENDBRANCH  13  14
ENDBRANCH  12  13
ENDBRANCH  11  12
ENDBRANCH   6  11
BRANCH   7  17
ATOM     17 SE   UNL     1       3.662   6.788  17.730  0.00  0.00    +0.000 Se
BRANCH  17  18
ATOM     18  C   UNL     1       2.355   7.836  18.693  0.00  0.00    +0.000 A 
ATOM     19  C   UNL     1       2.076   7.568  20.041  0.00  0.00    +0.000 A 
ATOM     20  C   UNL     1       1.206   8.401  20.758  0.00  0.00    +0.000 A 
ATOM     21  C   UNL     1       0.615   9.503  20.131  0.00  0.00    +0.000 A 
ATOM     22  C   UNL     1       0.891   9.772  18.788  0.00  0.00    +0.000 A 
ATOM     23  C   UNL     1       1.762   8.942  18.072  0.00  0.00    +0.000 A 
ENDBRANCH  17  18
ENDBRANCH   7  17
TORSDOF 7
ENDMDL
MODEL 5
REMARK VINA RESULT:      -6.8      3.400      4.787
REMARK  Name = 
REMARK  7 active torsions:
REMARK  status: ('A' for Active; 'I' for Inactive)
REMARK    1  A    between atoms: N_6  and  C_7
REMARK    2  A    between atoms: C_7  and  O_8
REMARK    3  A    between atoms: O_8  and  C_9
REMARK    4  A    between atoms: C_9  and  C_10
REMARK    5  A    between atoms: C_10  and  O_11
REMARK    6  A    between atoms: C_12  and  SE_13
REMARK    7  A    between atoms: SE_13  and  C_14
REMARK                            x       y       z     vdW  Elec       q    Type
REMARK                         _______ _______ _______ _____ _____    ______ ____
ROOT
ATOM      1  O   UNL     1       7.508   5.262  20.515  0.00  0.00    +0.000 OA
ATOM      2  C   UNL     1       7.079   5.409  19.384  0.00  0.00    +0.000 A 
ATOM      3  N   UNL     1       7.602   6.380  18.576  0.00  0.00    +0.000 N 
ATOM      4  C   UNL     1       7.126   6.565  17.305  0.00  0.00    +0.000 A 
ATOM      5  O   UNL     1       7.615   7.450  16.618  0.00  0.00    +0.000 OA
ATOM      6  N   UNL     1       6.097   5.771  16.815  0.00  0.00    +0.000 N 
ATOM      7  C   UNL     1       5.554   4.790  17.619  0.00  0.00    +0.000 A 
ATOM      8  C   UNL     1       6.047   4.600  18.916  0.00  0.00    +0.000 A 
ATOM      9  F   UNL     1       5.505   3.657  19.728  0.00  0.00    +0.000 F 
ATOM     10  H   UNL     1       8.367   6.995  18.938  0.00  0.00    +0.000 HD
ENDROOT
BRANCH   6  11
ATOM     11  C   UNL     1       5.593   5.992  15.445  0.00  0.00    +0.000 C 
BRANCH  11  12
ATOM     12  O   UNL     1       6.431   5.415  14.463  0.00  0.00    +0.000 OA
BRANCH  12  13
ATOM     13  C   UNL     1       5.982   4.125  14.113  0.00  0.00    +0.000 C 
BRANCH  13  14
ATOM     14  C   UNL     1       6.530   3.794  12.730  0.00  0.00    +0.000 C 
BRANCH  14  15
ATOM     15  O   UNL     1       5.607   3.030  12.006  0.00  0.00    +0.000 OA
ATOM     16  H   UNL     1       5.787   2.080  12.236  0.00  0.00    +0.000 HD
ENDBRANCH  14  15
ENDBRANCH  13  14
ENDBRANCH  12  13
ENDBRANCH  11  12
ENDBRANCH   6  11
BRANCH   7  17
ATOM     17 SE   UNL     1       3.995   3.740  17.090  0.00  0.00    +0.000 Se
BRANCH  17  18
ATOM     18  C   UNL     1       2.906   3.761  18.685  0.00  0.00    +0.000 A 
ATOM     19  C   UNL     1       2.463   4.974  19.234  0.00  0.00    +0.000 A 
ATOM     20  C   UNL     1       1.587   4.972  20.328  0.00  0.00    +0.000 A 
ATOM     21  C   UNL     1       1.150   3.762  20.875  0.00  0.00    +0.000 A 
ATOM     22  C   UNL     1       1.590   2.552  20.331  0.00  0.00    +0.000 A 
ATOM     23  C   UNL     1       2.463   2.552  19.237  0.00  0.00    +0.000 A 
ENDBRANCH  17  18
ENDBRANCH   7  17
TORSDOF 7
ENDMDL
MODEL 6
REMARK VINA RESULT:      -6.6      2.984      5.714
REMARK  Name = 
REMARK  7 active torsions:
REMARK  status: ('A' for Active; 'I' for Inactive)
REMARK    1  A    between atoms: N_6  and  C_7
REMARK    2  A    between atoms: C_7  and  O_8
REMARK    3  A    between atoms: O_8  and  C_9
REMARK    4  A    between atoms: C_9  and  C_10
REMARK    5  A    between atoms: C_10  and  O_11
REMARK    6  A    between atoms: C_12  and  SE_13
REMARK    7  A    between atoms: SE_13  and  C_14
REMARK                            x       y       z     vdW  Elec       q    Type
REMARK                         _______ _______ _______ _____ _____    ______ ____
ROOT
ATOM      1  O   UNL     1       2.034   9.935  17.673  0.00  0.00    +0.000 OA
ATOM      2  C   UNL     1       2.064   8.903  18.321  0.00  0.00    +0.000 A 
ATOM      3  N   UNL     1       1.492   8.860  19.563  0.00  0.00    +0.000 N 
ATOM      4  C   UNL     1       1.523   7.712  20.308  0.00  0.00    +0.000 A 
ATOM      5  O   UNL     1       1.008   7.716  21.416  0.00  0.00    +0.000 OA
ATOM      6  N   UNL     1       2.142   6.569  19.818  0.00  0.00    +0.000 N 
ATOM      7  C   UNL     1       2.730   6.598  18.569  0.00  0.00    +0.000 A 
ATOM      8  C   UNL     1       2.691   7.772  17.808  0.00  0.00    +0.000 A 
ATOM      9  F   UNL     1       3.287   7.823  16.589  0.00  0.00    +0.000 F 
ATOM     10  H   UNL     1       1.034   9.717  19.951  0.00  0.00    +0.000 HD
ENDROOT
BRANCH   6  11
ATOM     11  C   UNL     1       2.173   5.343  20.640  0.00  0.00    +0.000 C 
BRANCH  11  12
ATOM     12  O   UNL     1       0.979   4.594  20.533  0.00  0.00    +0.000 OA
BRANCH  12  13
ATOM     13  C   UNL     1       1.257   3.213  20.462  0.00  0.00    +0.000 C 
BRANCH  13  14
ATOM     14  C   UNL     1       0.887   2.727  19.066  0.00  0.00    +0.000 C 
BRANCH  14  15
ATOM     15  O   UNL     1       1.812   1.778  18.614  0.00  0.00    +0.000 OA
ATOM     16  H   UNL     1       2.682   2.012  19.034  0.00  0.00    +0.000 HD
ENDBRANCH  14  15
ENDBRANCH  13  14
ENDBRANCH  12  13
ENDBRANCH  11  12
ENDBRANCH   6  11
BRANCH   7  17
ATOM     17 SE   UNL     1       3.774   5.105  17.863  0.00  0.00    +0.000 Se
BRANCH  17  18
ATOM     18  C   UNL     1       5.593   5.703  18.111  0.00  0.00    +0.000 A 
ATOM     19  C   UNL     1       6.160   6.650  17.245  0.00  0.00    +0.000 A 
ATOM     20  C   UNL     1       7.444   7.154  17.498  0.00  0.00    +0.000 A 
ATOM     21  C   UNL     1       8.162   6.716  18.615  0.00  0.00    +0.000 A 
ATOM     22  C   UNL     1       7.600   5.772  19.479  0.00  0.00    +0.000 A 
ATOM     23  C   UNL     1       6.317   5.270  19.230  0.00  0.00    +0.000 A 
ENDBRANCH  17  18
ENDBRANCH   7  17
TORSDOF 7
ENDMDL
MODEL 7
REMARK VINA RESULT:      -6.6      2.912      4.742
REMARK  Name = 
REMARK  7 active torsions:
REMARK  status: ('A' for Active; 'I' for Inactive)
REMARK    1  A    between atoms: N_6  and  C_7
REMARK    2  A    between atoms: C_7  and  O_8
REMARK    3  A    between atoms: O_8  and  C_9
REMARK    4  A    between atoms: C_9  and  C_10
REMARK    5  A    between atoms: C_10  and  O_11
REMARK    6  A    between atoms: C_12  and  SE_13
REMARK    7  A    between atoms: SE_13  and  C_14
REMARK                            x       y       z     vdW  Elec       q    Type
REMARK                         _______ _______ _______ _____ _____    ______ ____
ROOT
ATOM      1  O   UNL     1       7.840   5.041  19.145  0.00  0.00    +0.000 OA
ATOM      2  C   UNL     1       7.228   4.888  18.101  0.00  0.00    +0.000 A 
ATOM      3  N   UNL     1       7.797   5.259  16.915  0.00  0.00    +0.000 N 
ATOM      4  C   UNL     1       7.121   5.103  15.734  0.00  0.00    +0.000 A 
ATOM      5  O   UNL     1       7.662   5.455  14.696  0.00  0.00    +0.000 OA
ATOM      6  N   UNL     1       5.839   4.568  15.722  0.00  0.00    +0.000 N 
ATOM      7  C   UNL     1       5.248   4.195  16.911  0.00  0.00    +0.000 A 
ATOM      8  C   UNL     1       5.945   4.351  18.116  0.00  0.00    +0.000 A 
ATOM      9  F   UNL     1       5.366   4.011  19.296  0.00  0.00    +0.000 F 
ATOM     10  H   UNL     1       8.757   5.677  16.911  0.00  0.00    +0.000 HD
ENDROOT
BRANCH   6  11
ATOM     11  C   UNL     1       5.123   4.416  14.440  0.00  0.00    +0.000 C 
BRANCH  11  12
ATOM     12  O   UNL     1       5.811   3.575  13.536  0.00  0.00    +0.000 OA
BRANCH  12  13
ATOM     13  C   UNL     1       5.121   3.482  12.310  0.00  0.00    +0.000 C 
BRANCH  13  14
ATOM     14  C   UNL     1       5.591   2.220  11.597  0.00  0.00    +0.000 C 
BRANCH  14  15
ATOM     15  O   UNL     1       6.986   2.115  11.650  0.00  0.00    +0.000 OA
ATOM     16  H   UNL     1       7.309   2.187  10.713  0.00  0.00    +0.000 HD
ENDBRANCH  14  15
ENDBRANCH  13  14
ENDBRANCH  12  13
ENDBRANCH  11  12
ENDBRANCH   6  11
BRANCH   7  17
ATOM     17 SE   UNL     1       3.391   3.598  17.021  0.00  0.00    +0.000 Se
BRANCH  17  18
ATOM     18  C   UNL     1       2.650   4.758  18.375  0.00  0.00    +0.000 A 
ATOM     19  C   UNL     1       2.014   4.223  19.506  0.00  0.00    +0.000 A 
ATOM     20  C   UNL     1       1.574   5.071  20.532  0.00  0.00    +0.000 A 
ATOM     21  C   UNL     1       1.770   6.453  20.433  0.00  0.00    +0.000 A 
ATOM     22  C   UNL     1       2.402   6.988  19.307  0.00  0.00    +0.000 A 
ATOM     23  C   UNL     1       2.845   6.142  18.283  0.00  0.00    +0.000 A 
ENDBRANCH  17  18
ENDBRANCH   7  17
TORSDOF 7
ENDMDL
MODEL 8
REMARK VINA RESULT:      -6.5      3.160      4.660
REMARK  Name = 
REMARK  7 active torsions:
REMARK  status: ('A' for Active; 'I' for Inactive)
REMARK    1  A    between atoms: N_6  and  C_7
REMARK    2  A    between atoms: C_7  and  O_8
REMARK    3  A    between atoms: O_8  and  C_9
REMARK    4  A    between atoms: C_9  and  C_10
REMARK    5  A    between atoms: C_10  and  O_11
REMARK    6  A    between atoms: C_12  and  SE_13
REMARK    7  A    between atoms: SE_13  and  C_14
REMARK                            x       y       z     vdW  Elec       q    Type
REMARK                         _______ _______ _______ _____ _____    ______ ____
ROOT
ATOM      1  O   UNL     1       7.622   5.245  20.088  0.00  0.00    +0.000 OA
ATOM      2  C   UNL     1       7.077   5.220  18.998  0.00  0.00    +0.000 A 
ATOM      3  N   UNL     1       7.801   4.912  17.879  0.00  0.00    +0.000 N 
ATOM      4  C   UNL     1       7.207   4.889  16.646  0.00  0.00    +0.000 A 
ATOM      5  O   UNL     1       7.890   4.616  15.669  0.00  0.00    +0.000 OA
ATOM      6  N   UNL     1       5.856   5.184  16.507  0.00  0.00    +0.000 N 
ATOM      7  C   UNL     1       5.114   5.504  17.626  0.00  0.00    +0.000 A 
ATOM      8  C   UNL     1       5.723   5.521  18.886  0.00  0.00    +0.000 A 
ATOM      9  F   UNL     1       5.012   5.859  19.992  0.00  0.00    +0.000 F 
ATOM     10  H   UNL     1       8.822   4.701  17.967  0.00  0.00    +0.000 HD
ENDROOT
BRANCH   6  11
ATOM     11  C   UNL     1       5.236   5.161  15.168  0.00  0.00    +0.000 C 
BRANCH  11  12
ATOM     12  O   UNL     1       5.349   3.898  14.544  0.00  0.00    +0.000 OA
BRANCH  12  13
ATOM     13  C   UNL     1       5.199   4.012  13.146  0.00  0.00    +0.000 C 
BRANCH  13  14
ATOM     14  C   UNL     1       6.522   3.627  12.496  0.00  0.00    +0.000 C 
BRANCH  14  15
ATOM     15  O   UNL     1       7.448   4.672  12.609  0.00  0.00    +0.000 OA
ATOM     16  H   UNL     1       7.965   4.499  13.439  0.00  0.00    +0.000 HD
ENDBRANCH  14  15
ENDBRANCH  13  14
ENDBRANCH  12  13
ENDBRANCH  11  12
ENDBRANCH   6  11
BRANCH   7  17
ATOM     17 SE   UNL     1       3.257   6.102  17.520  0.00  0.00    +0.000 Se
BRANCH  17  18
ATOM     18  C   UNL     1       2.315   4.752  18.529  0.00  0.00    +0.000 A 
ATOM     19  C   UNL     1       1.923   4.993  19.854  0.00  0.00    +0.000 A 
ATOM     20  C   UNL     1       1.149   4.047  20.541  0.00  0.00    +0.000 A 
ATOM     21  C   UNL     1       0.762   2.863  19.906  0.00  0.00    +0.000 A 
ATOM     22  C   UNL     1       1.152   2.621  18.586  0.00  0.00    +0.000 A 
ATOM     23  C   UNL     1       1.923   3.564  17.898  0.00  0.00    +0.000 A 
ENDBRANCH  17  18
ENDBRANCH   7  17
TORSDOF 7
ENDMDL
MODEL 9
REMARK VINA RESULT:      -6.5      1.636      1.943
REMARK  Name = 
REMARK  7 active torsions:
REMARK  status: ('A' for Active; 'I' for Inactive)
REMARK    1  A    between atoms: N_6  and  C_7
REMARK    2  A    between atoms: C_7  and  O_8
REMARK    3  A    between atoms: O_8  and  C_9
REMARK    4  A    between atoms: C_9  and  C_10
REMARK    5  A    between atoms: C_10  and  O_11
REMARK    6  A    between atoms: C_12  and  SE_13
REMARK    7  A    between atoms: SE_13  and  C_14
REMARK                            x       y       z     vdW  Elec       q    Type
REMARK                         _______ _______ _______ _____ _____    ______ ____
ROOT
ATOM      1  O   UNL     1       0.602   2.074  18.261  0.00  0.00    +0.000 OA
ATOM      2  C   UNL     1       1.543   2.843  18.365  0.00  0.00    +0.000 A 
ATOM      3  N   UNL     1       2.661   2.663  17.598  0.00  0.00    +0.000 N 
ATOM      4  C   UNL     1       3.730   3.511  17.708  0.00  0.00    +0.000 A 
ATOM      5  O   UNL     1       4.713   3.311  17.010  0.00  0.00    +0.000 OA
ATOM      6  N   UNL     1       3.699   4.571  18.606  0.00  0.00    +0.000 N 
ATOM      7  C   UNL     1       2.581   4.763  19.392  0.00  0.00    +0.000 A 
ATOM      8  C   UNL     1       1.488   3.896  19.273  0.00  0.00    +0.000 A 
ATOM      9  F   UNL     1       0.392   4.057  20.057  0.00  0.00    +0.000 F 
ATOM     10  H   UNL     1       2.703   1.860  16.927  0.00  0.00    +0.000 HD
ENDROOT
BRANCH   6  11
ATOM     11  C   UNL     1       4.865   5.470  18.716  0.00  0.00    +0.000 C 
BRANCH  11  12
ATOM     12  O   UNL     1       5.858   4.960  19.582  0.00  0.00    +0.000 OA
BRANCH  12  13
ATOM     13  C   UNL     1       7.117   5.527  19.294  0.00  0.00    +0.000 C 
BRANCH  13  14
ATOM     14  C   UNL     1       7.298   5.530  17.781  0.00  0.00    +0.000 C 
BRANCH  14  15
ATOM     15  O   UNL     1       7.786   4.293  17.341  0.00  0.00    +0.000 OA
ATOM     16  H   UNL     1       7.017   3.663  17.366  0.00  0.00    +0.000 HD
ENDBRANCH  14  15
ENDBRANCH  13  14
ENDBRANCH  12  13
ENDBRANCH  11  12
ENDBRANCH   6  11
BRANCH   7  17
ATOM     17 SE   UNL     1       2.507   6.111  20.804  0.00  0.00    +0.000 Se
BRANCH  17  18
ATOM     18  C   UNL     1       1.956   7.697  19.850  0.00  0.00    +0.000 A 
ATOM     19  C   UNL     1       2.249   7.851  18.487  0.00  0.00    +0.000 A 
ATOM     20  C   UNL     1       1.753   8.956  17.781  0.00  0.00    +0.000 A 
ATOM     21  C   UNL     1       0.962   9.907  18.434  0.00  0.00    +0.000 A 
ATOM     22  C   UNL     1       0.669   9.757  19.792  0.00  0.00    +0.000 A 
ATOM     23  C   UNL     1       1.161   8.653  20.497  0.00  0.00    +0.000 A 
ENDBRANCH  17  18
ENDBRANCH   7  17
TORSDOF 7
ENDMDL
