MODEL 1
REMARK VINA RESULT:      -8.3      0.000      0.000
REMARK  Name = 
REMARK  5 active torsions:
REMARK  status: ('A' for Active; 'I' for Inactive)
REMARK    1  A    between atoms: C_2  and  C_3
REMARK    2  A    between atoms: C_3  and  S_4
REMARK    3  A    between atoms: S_4  and  C_5
REMARK    4  A    between atoms: C_8  and  C_9
REMARK    5  A    between atoms: C_13  and  N_14
REMARK                            x       y       z     vdW  Elec       q    Type
REMARK                         _______ _______ _______ _____ _____    ______ ____
ROOT
ATOM      1  C   UNL     1       3.544   7.011  17.780  0.00  0.00    +0.000 A 
ATOM      2  C   UNL     1       2.967   6.638  18.983  0.00  0.00    +0.000 A 
ATOM      3  C   UNL     1       2.054   7.502  19.583  0.00  0.00    +0.000 A 
ATOM      4  C   UNL     1       1.731   8.703  18.963  0.00  0.00    +0.000 A 
ATOM      5  N   UNL     1       2.245   8.992  17.745  0.00  0.00    +0.000 NA
ATOM      6  N   UNL     1       3.159   8.144  17.153  0.00  0.00    +0.000 NA
ENDROOT
BRANCH   4   7
ATOM      7  C   UNL     1       0.880   9.731  19.592  0.00  0.00    +0.000 A 
ATOM      8  C   UNL     1       0.414  10.843  18.866  0.00  0.00    +0.000 A 
ATOM      9  C   UNL     1      -0.400  11.814  19.464  0.00  0.00    +0.000 A 
ATOM     10  C   UNL     1      -0.753  11.702  20.808  0.00  0.00    +0.000 A 
ATOM     11  C   UNL     1      -0.278  10.618  21.550  0.00  0.00    +0.000 A 
ATOM     12  C   UNL     1       0.535   9.642  20.951  0.00  0.00    +0.000 A 
BRANCH  11  13
ATOM     13  N   UNL     1      -0.631  10.491  22.969  0.00  0.00    +0.000 N 
ATOM     14  O   UNL     1      -1.703  10.986  23.344  0.00  0.00    +0.000 OA
ATOM     15  O   UNL     1       0.162   9.891  23.710  0.00  0.00    +0.000 OA
ENDBRANCH  11  13
ENDBRANCH   4   7
BRANCH   1  16
ATOM     16  S   UNL     1       4.867   6.071  17.044  0.00  0.00    +0.000 S 
BRANCH  16  17
ATOM     17  C   UNL     1       4.154   4.378  17.165  0.00  0.00    +0.000 C 
BRANCH  17  19
ATOM     18  O   UNL     1       5.520   3.782  19.079  0.00  0.00    +0.000 OA
ATOM     19  C   UNL     1       4.412   3.731  18.524  0.00  0.00    +0.000 C 
ATOM     20  N   UNL     1       3.349   3.085  19.142  0.00  0.00    +0.000 N 
ATOM     21  C   UNL     1       2.003   2.927  18.597  0.00  0.00    +0.000 C 
ATOM     22  C   UNL     1       0.961   3.497  19.558  0.00  0.00    +0.000 C 
ATOM     23  C   UNL     1       1.129   2.937  20.974  0.00  0.00    +0.000 C 
ATOM     24  C   UNL     1       2.573   3.050  21.462  0.00  0.00    +0.000 C 
ATOM     25  C   UNL     1       3.552   2.466  20.448  0.00  0.00    +0.000 C 
ENDBRANCH  17  19
ENDBRANCH  16  17
ENDBRANCH   1  16
TORSDOF 5
ENDMDL
MODEL 2
REMARK VINA RESULT:      -8.1      5.835      7.287
REMARK  Name = 
REMARK  5 active torsions:
REMARK  status: ('A' for Active; 'I' for Inactive)
REMARK    1  A    between atoms: C_2  and  C_3
REMARK    2  A    between atoms: C_3  and  S_4
REMARK    3  A    between atoms: S_4  and  C_5
REMARK    4  A    between atoms: C_8  and  C_9
REMARK    5  A    between atoms: C_13  and  N_14
REMARK                            x       y       z     vdW  Elec       q    Type
REMARK                         _______ _______ _______ _____ _____    ______ ____
ROOT
ATOM      1  C   UNL     1       7.373   6.585  17.449  0.00  0.00    +0.000 A 
ATOM      2  C   UNL     1       8.044   6.508  18.658  0.00  0.00    +0.000 A 
ATOM      3  C   UNL     1       8.590   7.672  19.194  0.00  0.00    +0.000 A 
ATOM      4  C   UNL     1       8.441   8.877  18.520  0.00  0.00    +0.000 A 
ATOM      5  N   UNL     1       7.702   8.929  17.388  0.00  0.00    +0.000 NA
ATOM      6  N   UNL     1       7.168   7.777  16.848  0.00  0.00    +0.000 NA
ENDROOT
BRANCH   4   7
ATOM      7  C   UNL     1       9.101  10.126  18.947  0.00  0.00    +0.000 A 
ATOM      8  C   UNL     1       9.346  10.400  20.305  0.00  0.00    +0.000 A 
ATOM      9  C   UNL     1       9.978  11.583  20.708  0.00  0.00    +0.000 A 
ATOM     10  C   UNL     1      10.367  12.528  19.759  0.00  0.00    +0.000 A 
ATOM     11  C   UNL     1      10.109  12.284  18.407  0.00  0.00    +0.000 A 
ATOM     12  C   UNL     1       9.478  11.096  18.003  0.00  0.00    +0.000 A 
BRANCH  11  13
ATOM     13  N   UNL     1      10.502  13.272  17.397  0.00  0.00    +0.000 N 
ATOM     14  O   UNL     1      11.356  12.939  16.563  0.00  0.00    +0.000 OA
ATOM     15  O   UNL     1       9.953  14.384  17.432  0.00  0.00    +0.000 OA
ENDBRANCH  11  13
ENDBRANCH   4   7
BRANCH   1  16
ATOM     16  S   UNL     1       6.819   5.124  16.590  0.00  0.00    +0.000 S 
BRANCH  16  17
ATOM     17  C   UNL     1       5.079   5.050  17.187  0.00  0.00    +0.000 C 
BRANCH  17  19
ATOM     18  O   UNL     1       5.759   3.921  19.224  0.00  0.00    +0.000 OA
ATOM     19  C   UNL     1       4.899   4.067  18.343  0.00  0.00    +0.000 C 
ATOM     20  N   UNL     1       3.719   3.337  18.388  0.00  0.00    +0.000 N 
ATOM     21  C   UNL     1       2.635   3.388  17.410  0.00  0.00    +0.000 C 
ATOM     22  C   UNL     1       1.312   3.744  18.087  0.00  0.00    +0.000 C 
ATOM     23  C   UNL     1       1.026   2.836  19.286  0.00  0.00    +0.000 C 
ATOM     24  C   UNL     1       2.222   2.751  20.233  0.00  0.00    +0.000 C 
ATOM     25  C   UNL     1       3.503   2.397  19.484  0.00  0.00    +0.000 C 
ENDBRANCH  17  19
ENDBRANCH  16  17
ENDBRANCH   1  16
TORSDOF 5
ENDMDL
MODEL 3
REMARK VINA RESULT:      -7.9      1.482      1.917
REMARK  Name = 
REMARK  5 active torsions:
REMARK  status: ('A' for Active; 'I' for Inactive)
REMARK    1  A    between atoms: C_2  and  C_3
REMARK    2  A    between atoms: C_3  and  S_4
REMARK    3  A    between atoms: S_4  and  C_5
REMARK    4  A    between atoms: C_8  and  C_9
REMARK    5  A    between atoms: C_13  and  N_14
REMARK                            x       y       z     vdW  Elec       q    Type
REMARK                         _______ _______ _______ _____ _____    ______ ____
ROOT
ATOM      1  C   UNL     1       3.135   7.073  18.333  0.00  0.00    +0.000 A 
ATOM      2  C   UNL     1       2.780   6.504  19.544  0.00  0.00    +0.000 A 
ATOM      3  C   UNL     1       1.911   7.200  20.381  0.00  0.00    +0.000 A 
ATOM      4  C   UNL     1       1.411   8.433  19.983  0.00  0.00    +0.000 A 
ATOM      5  N   UNL     1       1.709   8.916  18.755  0.00  0.00    +0.000 NA
ATOM      6  N   UNL     1       2.579   8.235  17.927  0.00  0.00    +0.000 NA
ENDROOT
BRANCH   4   7
ATOM      7  C   UNL     1       0.597   9.295  20.862  0.00  0.00    +0.000 A 
ATOM      8  C   UNL     1       0.488   9.042  22.242  0.00  0.00    +0.000 A 
ATOM      9  C   UNL     1      -0.280   9.865  23.075  0.00  0.00    +0.000 A 
ATOM     10  C   UNL     1      -0.970  10.953  22.542  0.00  0.00    +0.000 A 
ATOM     11  C   UNL     1      -0.894  11.204  21.169  0.00  0.00    +0.000 A 
ATOM     12  C   UNL     1      -0.121  10.381  20.334  0.00  0.00    +0.000 A 
BRANCH  11  13
ATOM     13  N   UNL     1      -1.623  12.338  20.590  0.00  0.00    +0.000 N 
ATOM     14  O   UNL     1      -2.569  12.808  21.239  0.00  0.00    +0.000 OA
ATOM     15  O   UNL     1      -1.248  12.764  19.488  0.00  0.00    +0.000 OA
ENDBRANCH  11  13
ENDBRANCH   4   7
BRANCH   1  16
ATOM     16  S   UNL     1       4.393   6.355  17.293  0.00  0.00    +0.000 S 
BRANCH  16  17
ATOM     17  C   UNL     1       3.815   4.607  17.264  0.00  0.00    +0.000 C 
BRANCH  17  19
ATOM     18  O   UNL     1       5.382   3.859  18.957  0.00  0.00    +0.000 OA
ATOM     19  C   UNL     1       4.224   3.836  18.518  0.00  0.00    +0.000 C 
ATOM     20  N   UNL     1       3.240   3.107  19.173  0.00  0.00    +0.000 N 
ATOM     21  C   UNL     1       1.847   2.971  18.757  0.00  0.00    +0.000 C 
ATOM     22  C   UNL     1       0.903   3.419  19.873  0.00  0.00    +0.000 C 
ATOM     23  C   UNL     1       1.226   2.726  21.200  0.00  0.00    +0.000 C 
ATOM     24  C   UNL     1       2.712   2.826  21.546  0.00  0.00    +0.000 C 
ATOM     25  C   UNL     1       3.587   2.368  20.383  0.00  0.00    +0.000 C 
ENDBRANCH  17  19
ENDBRANCH  16  17
ENDBRANCH   1  16
TORSDOF 5
ENDMDL
MODEL 4
REMARK VINA RESULT:      -7.9      3.311      8.563
REMARK  Name = 
REMARK  5 active torsions:
REMARK  status: ('A' for Active; 'I' for Inactive)
REMARK    1  A    between atoms: C_2  and  C_3
REMARK    2  A    between atoms: C_3  and  S_4
REMARK    3  A    between atoms: S_4  and  C_5
REMARK    4  A    between atoms: C_8  and  C_9
REMARK    5  A    between atoms: C_13  and  N_14
REMARK                            x       y       z     vdW  Elec       q    Type
REMARK                         _______ _______ _______ _____ _____    ______ ____
ROOT
ATOM      1  C   UNL     1       1.198   8.998  19.975  0.00  0.00    +0.000 A 
ATOM      2  C   UNL     1       1.478   7.817  20.640  0.00  0.00    +0.000 A 
ATOM      3  C   UNL     1       2.241   6.849  19.992  0.00  0.00    +0.000 A 
ATOM      4  C   UNL     1       2.714   7.091  18.708  0.00  0.00    +0.000 A 
ATOM      5  N   UNL     1       2.497   8.292  18.125  0.00  0.00    +0.000 NA
ATOM      6  N   UNL     1       1.732   9.249  18.760  0.00  0.00    +0.000 NA
ENDROOT
BRANCH   4   7
ATOM      7  C   UNL     1       3.412   6.071  17.901  0.00  0.00    +0.000 A 
ATOM      8  C   UNL     1       2.897   4.770  17.757  0.00  0.00    +0.000 A 
ATOM      9  C   UNL     1       3.558   3.806  16.985  0.00  0.00    +0.000 A 
ATOM     10  C   UNL     1       4.760   4.119  16.351  0.00  0.00    +0.000 A 
ATOM     11  C   UNL     1       5.299   5.399  16.504  0.00  0.00    +0.000 A 
ATOM     12  C   UNL     1       4.635   6.367  17.275  0.00  0.00    +0.000 A 
BRANCH  11  13
ATOM     13  N   UNL     1       6.568   5.742  15.853  0.00  0.00    +0.000 N 
ATOM     14  O   UNL     1       6.659   5.557  14.631  0.00  0.00    +0.000 OA
ATOM     15  O   UNL     1       7.476   6.202  16.562  0.00  0.00    +0.000 OA
ENDBRANCH  11  13
ENDBRANCH   4   7
BRANCH   1  16
ATOM     16  S   UNL     1       0.066  10.204  20.641  0.00  0.00    +0.000 S 
BRANCH  16  17
ATOM     17  C   UNL     1      -0.428  11.062  19.088  0.00  0.00    +0.000 C 
BRANCH  17  19
ATOM     18  O   UNL     1      -2.407  12.235  19.855  0.00  0.00    +0.000 OA
ATOM     19  C   UNL     1      -1.913  11.418  19.065  0.00  0.00    +0.000 C 
ATOM     20  N   UNL     1      -2.707  10.801  18.107  0.00  0.00    +0.000 N 
ATOM     21  C   UNL     1      -2.266   9.806  17.134  0.00  0.00    +0.000 C 
ATOM     22  C   UNL     1      -2.584  10.264  15.711  0.00  0.00    +0.000 C 
ATOM     23  C   UNL     1      -4.052  10.673  15.561  0.00  0.00    +0.000 C 
ATOM     24  C   UNL     1      -4.484  11.649  16.655  0.00  0.00    +0.000 C 
ATOM     25  C   UNL     1      -4.129  11.126  18.043  0.00  0.00    +0.000 C 
ENDBRANCH  17  19
ENDBRANCH  16  17
ENDBRANCH   1  16
TORSDOF 5
ENDMDL
MODEL 5
REMARK VINA RESULT:      -7.9      3.166      8.418
REMARK  Name = 
REMARK  5 active torsions:
REMARK  status: ('A' for Active; 'I' for Inactive)
REMARK    1  A    between atoms: C_2  and  C_3
REMARK    2  A    between atoms: C_3  and  S_4
REMARK    3  A    between atoms: S_4  and  C_5
REMARK    4  A    between atoms: C_8  and  C_9
REMARK    5  A    between atoms: C_13  and  N_14
REMARK                            x       y       z     vdW  Elec       q    Type
REMARK                         _______ _______ _______ _____ _____    ______ ____
ROOT
ATOM      1  C   UNL     1       1.091   9.809  19.594  0.00  0.00    +0.000 A 
ATOM      2  C   UNL     1       1.371   9.799  18.239  0.00  0.00    +0.000 A 
ATOM      3  C   UNL     1       1.990   8.678  17.692  0.00  0.00    +0.000 A 
ATOM      4  C   UNL     1       2.299   7.595  18.506  0.00  0.00    +0.000 A 
ATOM      5  N   UNL     1       1.929   7.604  19.807  0.00  0.00    +0.000 NA
ATOM      6  N   UNL     1       1.326   8.718  20.356  0.00  0.00    +0.000 NA
ENDROOT
BRANCH   4   7
ATOM      7  C   UNL     1       3.072   6.429  18.038  0.00  0.00    +0.000 A 
ATOM      8  C   UNL     1       4.306   6.583  17.379  0.00  0.00    +0.000 A 
ATOM      9  C   UNL     1       5.042   5.474  16.942  0.00  0.00    +0.000 A 
ATOM     10  C   UNL     1       4.551   4.184  17.141  0.00  0.00    +0.000 A 
ATOM     11  C   UNL     1       3.315   4.014  17.772  0.00  0.00    +0.000 A 
ATOM     12  C   UNL     1       2.579   5.125  18.214  0.00  0.00    +0.000 A 
BRANCH  11  13
ATOM     13  N   UNL     1       2.779   2.664  17.980  0.00  0.00    +0.000 N 
ATOM     14  O   UNL     1       3.561   1.709  17.875  0.00  0.00    +0.000 OA
ATOM     15  O   UNL     1       1.574   2.557  18.252  0.00  0.00    +0.000 OA
ENDBRANCH  11  13
ENDBRANCH   4   7
BRANCH   1  16
ATOM     16  S   UNL     1       0.490  11.273  20.417  0.00  0.00    +0.000 S 
BRANCH  16  17
ATOM     17  C   UNL     1      -0.292  12.135  18.989  0.00  0.00    +0.000 C 
BRANCH  17  19
ATOM     18  O   UNL     1      -2.385  12.961  19.896  0.00  0.00    +0.000 OA
ATOM     19  C   UNL     1      -1.814  12.195  19.106  0.00  0.00    +0.000 C 
ATOM     20  N   UNL     1      -2.556  11.363  18.278  0.00  0.00    +0.000 N 
ATOM     21  C   UNL     1      -2.019  10.398  17.321  0.00  0.00    +0.000 C 
ATOM     22  C   UNL     1      -2.556  10.673  15.917  0.00  0.00    +0.000 C 
ATOM     23  C   UNL     1      -4.083  10.778  15.904  0.00  0.00    +0.000 C 
ATOM     24  C   UNL     1      -4.596  11.735  16.980  0.00  0.00    +0.000 C 
ATOM     25  C   UNL     1      -4.013  11.401  18.349  0.00  0.00    +0.000 C 
ENDBRANCH  17  19
ENDBRANCH  16  17
ENDBRANCH   1  16
TORSDOF 5
ENDMDL
MODEL 6
REMARK VINA RESULT:      -7.8      3.394      8.638
REMARK  Name = 
REMARK  5 active torsions:
REMARK  status: ('A' for Active; 'I' for Inactive)
REMARK    1  A    between atoms: C_2  and  C_3
REMARK    2  A    between atoms: C_3  and  S_4
REMARK    3  A    between atoms: S_4  and  C_5
REMARK    4  A    between atoms: C_8  and  C_9
REMARK    5  A    between atoms: C_13  and  N_14
REMARK                            x       y       z     vdW  Elec       q    Type
REMARK                         _______ _______ _______ _____ _____    ______ ____
ROOT
ATOM      1  C   UNL     1       1.009   9.375  19.805  0.00  0.00    +0.000 A 
ATOM      2  C   UNL     1       1.393   9.376  18.475  0.00  0.00    +0.000 A 
ATOM      3  C   UNL     1       2.183   8.330  18.005  0.00  0.00    +0.000 A 
ATOM      4  C   UNL     1       2.555   7.306  18.868  0.00  0.00    +0.000 A 
ATOM      5  N   UNL     1       2.086   7.292  20.137  0.00  0.00    +0.000 NA
ATOM      6  N   UNL     1       1.313   8.333  20.609  0.00  0.00    +0.000 NA
ENDROOT
BRANCH   4   7
ATOM      7  C   UNL     1       3.497   6.235  18.489  0.00  0.00    +0.000 A 
ATOM      8  C   UNL     1       3.586   5.041  19.228  0.00  0.00    +0.000 A 
ATOM      9  C   UNL     1       4.476   4.023  18.862  0.00  0.00    +0.000 A 
ATOM     10  C   UNL     1       5.308   4.184  17.756  0.00  0.00    +0.000 A 
ATOM     11  C   UNL     1       5.251   5.374  17.025  0.00  0.00    +0.000 A 
ATOM     12  C   UNL     1       4.357   6.394  17.390  0.00  0.00    +0.000 A 
BRANCH  11  13
ATOM     13  N   UNL     1       6.128   5.564  15.865  0.00  0.00    +0.000 N 
ATOM     14  O   UNL     1       7.213   4.965  15.857  0.00  0.00    +0.000 OA
ATOM     15  O   UNL     1       5.732   6.309  14.956  0.00  0.00    +0.000 OA
ENDBRANCH  11  13
ENDBRANCH   4   7
BRANCH   1  16
ATOM     16  S   UNL     1       0.174  10.767  20.542  0.00  0.00    +0.000 S 
BRANCH  16  17
ATOM     17  C   UNL     1      -0.424  11.614  19.020  0.00  0.00    +0.000 C 
BRANCH  17  19
ATOM     18  O   UNL     1      -2.501  12.621  19.765  0.00  0.00    +0.000 OA
ATOM     19  C   UNL     1      -1.940  11.808  19.017  0.00  0.00    +0.000 C 
ATOM     20  N   UNL     1      -2.684  11.044  18.128  0.00  0.00    +0.000 N 
ATOM     21  C   UNL     1      -2.160  10.035  17.210  0.00  0.00    +0.000 C 
ATOM     22  C   UNL     1      -2.558  10.356  15.770  0.00  0.00    +0.000 C 
ATOM     23  C   UNL     1      -4.065  10.595  15.638  0.00  0.00    +0.000 C 
ATOM     24  C   UNL     1      -4.575  11.594  16.676  0.00  0.00    +0.000 C 
ATOM     25  C   UNL     1      -4.133  11.210  18.085  0.00  0.00    +0.000 C 
ENDBRANCH  17  19
ENDBRANCH  16  17
ENDBRANCH   1  16
TORSDOF 5
ENDMDL
MODEL 7
REMARK VINA RESULT:      -7.8      5.596      6.729
REMARK  Name = 
REMARK  5 active torsions:
REMARK  status: ('A' for Active; 'I' for Inactive)
REMARK    1  A    between atoms: C_2  and  C_3
REMARK    2  A    between atoms: C_3  and  S_4
REMARK    3  A    between atoms: S_4  and  C_5
REMARK    4  A    between atoms: C_8  and  C_9
REMARK    5  A    between atoms: C_13  and  N_14
REMARK                            x       y       z     vdW  Elec       q    Type
REMARK                         _______ _______ _______ _____ _____    ______ ____
ROOT
ATOM      1  C   UNL     1       7.325   6.445  17.450  0.00  0.00    +0.000 A 
ATOM      2  C   UNL     1       8.057   6.473  18.625  0.00  0.00    +0.000 A 
ATOM      3  C   UNL     1       8.545   7.695  19.080  0.00  0.00    +0.000 A 
ATOM      4  C   UNL     1       8.278   8.854  18.361  0.00  0.00    +0.000 A 
ATOM      5  N   UNL     1       7.483   8.801  17.268  0.00  0.00    +0.000 NA
ATOM      6  N   UNL     1       7.007   7.589  16.807  0.00  0.00    +0.000 NA
ENDROOT
BRANCH   4   7
ATOM      7  C   UNL     1       8.867  10.164  18.698  0.00  0.00    +0.000 A 
ATOM      8  C   UNL     1       9.916  10.281  19.628  0.00  0.00    +0.000 A 
ATOM      9  C   UNL     1      10.478  11.525  19.941  0.00  0.00    +0.000 A 
ATOM     10  C   UNL     1       9.992  12.685  19.339  0.00  0.00    +0.000 A 
ATOM     11  C   UNL     1       8.934  12.591  18.430  0.00  0.00    +0.000 A 
ATOM     12  C   UNL     1       8.372  11.343  18.114  0.00  0.00    +0.000 A 
BRANCH  11  13
ATOM     13  N   UNL     1       8.403  13.803  17.796  0.00  0.00    +0.000 N 
ATOM     14  O   UNL     1       7.258  13.753  17.324  0.00  0.00    +0.000 OA
ATOM     15  O   UNL     1       9.128  14.808  17.774  0.00  0.00    +0.000 OA
ENDBRANCH  11  13
ENDBRANCH   4   7
BRANCH   1  16
ATOM     16  S   UNL     1       6.835   4.909  16.687  0.00  0.00    +0.000 S 
BRANCH  16  17
ATOM     17  C   UNL     1       5.071   4.846  17.213  0.00  0.00    +0.000 C 
BRANCH  17  19
ATOM     18  O   UNL     1       5.709   3.898  19.352  0.00  0.00    +0.000 OA
ATOM     19  C   UNL     1       4.862   3.977  18.451  0.00  0.00    +0.000 C 
ATOM     20  N   UNL     1       3.668   3.274  18.548  0.00  0.00    +0.000 N 
ATOM     21  C   UNL     1       2.597   3.253  17.556  0.00  0.00    +0.000 C 
ATOM     22  C   UNL     1       1.273   3.693  18.181  0.00  0.00    +0.000 C 
ATOM     23  C   UNL     1       0.957   2.902  19.454  0.00  0.00    +0.000 C 
ATOM     24  C   UNL     1       2.141   2.884  20.420  0.00  0.00    +0.000 C 
ATOM     25  C   UNL     1       3.424   2.442  19.723  0.00  0.00    +0.000 C 
ENDBRANCH  17  19
ENDBRANCH  16  17
ENDBRANCH   1  16
TORSDOF 5
ENDMDL
MODEL 8
REMARK VINA RESULT:      -7.7      3.498      8.796
REMARK  Name = 
REMARK  5 active torsions:
REMARK  status: ('A' for Active; 'I' for Inactive)
REMARK    1  A    between atoms: C_2  and  C_3
REMARK    2  A    between atoms: C_3  and  S_4
REMARK    3  A    between atoms: S_4  and  C_5
REMARK    4  A    between atoms: C_8  and  C_9
REMARK    5  A    between atoms: C_13  and  N_14
REMARK                            x       y       z     vdW  Elec       q    Type
REMARK                         _______ _______ _______ _____ _____    ______ ____
ROOT
ATOM      1  C   UNL     1       1.390   9.666  18.786  0.00  0.00    +0.000 A 
ATOM      2  C   UNL     1       1.493   8.673  19.745  0.00  0.00    +0.000 A 
ATOM      3  C   UNL     1       2.236   7.532  19.449  0.00  0.00    +0.000 A 
ATOM      4  C   UNL     1       2.865   7.420  18.215  0.00  0.00    +0.000 A 
ATOM      5  N   UNL     1       2.817   8.450  17.339  0.00  0.00    +0.000 NA
ATOM      6  N   UNL     1       2.073   9.577  17.623  0.00  0.00    +0.000 NA
ENDROOT
BRANCH   4   7
ATOM      7  C   UNL     1       3.556   6.194  17.771  0.00  0.00    +0.000 A 
ATOM      8  C   UNL     1       2.891   4.955  17.716  0.00  0.00    +0.000 A 
ATOM      9  C   UNL     1       3.547   3.794  17.288  0.00  0.00    +0.000 A 
ATOM     10  C   UNL     1       4.891   3.844  16.918  0.00  0.00    +0.000 A 
ATOM     11  C   UNL     1       5.574   5.062  16.991  0.00  0.00    +0.000 A 
ATOM     12  C   UNL     1       4.915   6.227  17.417  0.00  0.00    +0.000 A 
BRANCH  11  13
ATOM     13  N   UNL     1       6.991   5.130  16.616  0.00  0.00    +0.000 N 
ATOM     14  O   UNL     1       7.793   4.445  17.267  0.00  0.00    +0.000 OA
ATOM     15  O   UNL     1       7.304   5.865  15.668  0.00  0.00    +0.000 OA
ENDBRANCH  11  13
ENDBRANCH   4   7
BRANCH   1  16
ATOM     16  S   UNL     1       0.301  11.062  18.995  0.00  0.00    +0.000 S 
BRANCH  16  17
ATOM     17  C   UNL     1      -1.299  10.178  19.227  0.00  0.00    +0.000 C 
BRANCH  17  19
ATOM     18  O   UNL     1      -2.179   9.635  17.034  0.00  0.00    +0.000 OA
ATOM     19  C   UNL     1      -2.242  10.356  18.039  0.00  0.00    +0.000 C 
ATOM     20  N   UNL     1      -3.199  11.359  18.123  0.00  0.00    +0.000 N 
ATOM     21  C   UNL     1      -3.372  12.295  19.231  0.00  0.00    +0.000 C 
ATOM     22  C   UNL     1      -4.794  12.219  19.786  0.00  0.00    +0.000 C 
ATOM     23  C   UNL     1      -5.843  12.364  18.679  0.00  0.00    +0.000 C 
ATOM     24  C   UNL     1      -5.567  11.422  17.508  0.00  0.00    +0.000 C 
ATOM     25  C   UNL     1      -4.129  11.552  17.015  0.00  0.00    +0.000 C 
ENDBRANCH  17  19
ENDBRANCH  16  17
ENDBRANCH   1  16
TORSDOF 5
ENDMDL
MODEL 9
REMARK VINA RESULT:      -7.7      3.047      8.409
REMARK  Name = 
REMARK  5 active torsions:
REMARK  status: ('A' for Active; 'I' for Inactive)
REMARK    1  A    between atoms: C_2  and  C_3
REMARK    2  A    between atoms: C_3  and  S_4
REMARK    3  A    between atoms: S_4  and  C_5
REMARK    4  A    between atoms: C_8  and  C_9
REMARK    5  A    between atoms: C_13  and  N_14
REMARK                            x       y       z     vdW  Elec       q    Type
REMARK                         _______ _______ _______ _____ _____    ______ ____
ROOT
ATOM      1  C   UNL     1       1.316  10.098  18.752  0.00  0.00    +0.000 A 
ATOM      2  C   UNL     1       1.252   9.192  19.797  0.00  0.00    +0.000 A 
ATOM      3  C   UNL     1       1.808   7.928  19.620  0.00  0.00    +0.000 A 
ATOM      4  C   UNL     1       2.424   7.607  18.417  0.00  0.00    +0.000 A 
ATOM      5  N   UNL     1       2.547   8.548  17.452  0.00  0.00    +0.000 NA
ATOM      6  N   UNL     1       1.987   9.798  17.618  0.00  0.00    +0.000 NA
ENDROOT
BRANCH   4   7
ATOM      7  C   UNL     1       2.917   6.253  18.099  0.00  0.00    +0.000 A 
ATOM      8  C   UNL     1       2.035   5.169  17.937  0.00  0.00    +0.000 A 
ATOM      9  C   UNL     1       2.505   3.887  17.629  0.00  0.00    +0.000 A 
ATOM     10  C   UNL     1       3.873   3.656  17.490  0.00  0.00    +0.000 A 
ATOM     11  C   UNL     1       4.766   4.716  17.672  0.00  0.00    +0.000 A 
ATOM     12  C   UNL     1       4.294   6.003  17.978  0.00  0.00    +0.000 A 
BRANCH  11  13
ATOM     13  N   UNL     1       6.210   4.489  17.540  0.00  0.00    +0.000 N 
ATOM     14  O   UNL     1       6.662   4.286  16.404  0.00  0.00    +0.000 OA
ATOM     15  O   UNL     1       6.895   4.517  18.573  0.00  0.00    +0.000 OA
ENDBRANCH  11  13
ENDBRANCH   4   7
BRANCH   1  16
ATOM     16  S   UNL     1       0.457  11.660  18.811  0.00  0.00    +0.000 S 
BRANCH  16  17
ATOM     17  C   UNL     1      -0.937  11.209  19.926  0.00  0.00    +0.000 C 
BRANCH  17  19
ATOM     18  O   UNL     1      -2.778  12.785  19.844  0.00  0.00    +0.000 OA
ATOM     19  C   UNL     1      -2.281  11.732  19.422  0.00  0.00    +0.000 C 
ATOM     20  N   UNL     1      -2.936  10.989  18.449  0.00  0.00    +0.000 N 
ATOM     21  C   UNL     1      -2.481   9.723  17.880  0.00  0.00    +0.000 C 
ATOM     22  C   UNL     1      -2.368   9.823  16.359  0.00  0.00    +0.000 C 
ATOM     23  C   UNL     1      -3.657  10.360  15.729  0.00  0.00    +0.000 C 
ATOM     24  C   UNL     1      -4.134  11.639  16.417  0.00  0.00    +0.000 C 
ATOM     25  C   UNL     1      -4.215  11.462  17.930  0.00  0.00    +0.000 C 
ENDBRANCH  17  19
ENDBRANCH  16  17
ENDBRANCH   1  16
TORSDOF 5
ENDMDL
