MODEL 1
REMARK VINA RESULT:      -9.1      0.000      0.000
REMARK  Name = 
REMARK  7 active torsions:
REMARK  status: ('A' for Active; 'I' for Inactive)
REMARK    1  A    between atoms: C_1  and  C_2
REMARK    2  A    between atoms: C_2  and  C_3
REMARK    3  A    between atoms: C_10  and  C_11
REMARK    4  A    between atoms: C_11  and  C_13
REMARK    5  A    between atoms: C_14  and  C_15
REMARK    6  A    between atoms: C_19  and  O_20
REMARK    7  A    between atoms: C_22  and  O_23
REMARK                            x       y       z     vdW  Elec       q    Type
REMARK                         _______ _______ _______ _____ _____    ______ ____
ROOT
ATOM      1  C   UNL     1       2.192   4.239  21.369  0.00  0.00    +0.000 C 
ATOM      2  C   UNL     1       2.184   3.552  19.995  0.00  0.00    +0.000 C 
ATOM      3  C   UNL     1       0.893   2.738  19.843  0.00  0.00    +0.000 C 
ATOM      4  C   UNL     1       3.393   2.655  19.860  0.00  0.00    +0.000 C 
ATOM      5  C   UNL     1       4.509   3.060  19.242  0.00  0.00    +0.000 C 
ATOM      6  C   UNL     1       4.529   4.408  18.668  0.00  0.00    +0.000 A 
ATOM      7  C   UNL     1       3.313   5.086  18.548  0.00  0.00    +0.000 A 
ATOM      8  C   UNL     1       3.256   6.334  17.943  0.00  0.00    +0.000 A 
ATOM      9  C   UNL     1       4.422   6.948  17.486  0.00  0.00    +0.000 A 
ATOM     10  C   UNL     1       5.671   6.317  17.620  0.00  0.00    +0.000 A 
ATOM     11  C   UNL     1       5.708   5.032  18.210  0.00  0.00    +0.000 A 
ATOM     12  O   UNL     1       2.116   4.577  18.980  0.00  0.00    +0.000 OA
ENDROOT
BRANCH  10  13
ATOM     13  C   UNL     1       6.943   6.971  17.158  0.00  0.00    +0.000 C 
ATOM     14  O   UNL     1       7.702   6.345  16.420  0.00  0.00    +0.000 OA
BRANCH  13  15
ATOM     15  C   UNL     1       7.274   8.359  17.605  0.00  0.00    +0.000 C 
ATOM     16  C   UNL     1       8.489   8.670  18.078  0.00  0.00    +0.000 C 
BRANCH  16  17
ATOM     17  C   UNL     1       8.794  10.030  18.542  0.00  0.00    +0.000 A 
ATOM     18  C   UNL     1       8.605  11.130  17.698  0.00  0.00    +0.000 A 
ATOM     19  C   UNL     1       8.905  12.423  18.141  0.00  0.00    +0.000 A 
ATOM     20  C   UNL     1       9.386  12.629  19.434  0.00  0.00    +0.000 A 
ATOM     21  C   UNL     1       9.554  11.534  20.275  0.00  0.00    +0.000 A 
ATOM     22  C   UNL     1       9.264  10.243  19.845  0.00  0.00    +0.000 A 
BRANCH  21  23
ATOM     23  O   UNL     1      10.015  11.693  21.552  0.00  0.00    +0.000 OA
ATOM     24  H   UNL     1       9.765  12.575  21.869  0.00  0.00    +0.000 HD
ENDBRANCH  21  23
ENDBRANCH  16  17
ENDBRANCH  13  15
ENDBRANCH  10  13
BRANCH  11  25
ATOM     25  O   UNL     1       6.890   4.343  18.373  0.00  0.00    +0.000 OA
ATOM     26  H   UNL     1       7.411   4.420  17.543  0.00  0.00    +0.000 HD
ENDBRANCH  11  25
TORSDOF 5
ENDMDL
MODEL 2
REMARK VINA RESULT:      -9.1      0.963      1.360
REMARK  Name = 
REMARK  7 active torsions:
REMARK  status: ('A' for Active; 'I' for Inactive)
REMARK    1  A    between atoms: C_1  and  C_2
REMARK    2  A    between atoms: C_2  and  C_3
REMARK    3  A    between atoms: C_10  and  C_11
REMARK    4  A    between atoms: C_11  and  C_13
REMARK    5  A    between atoms: C_14  and  C_15
REMARK    6  A    between atoms: C_19  and  O_20
REMARK    7  A    between atoms: C_22  and  O_23
REMARK                            x       y       z     vdW  Elec       q    Type
REMARK                         _______ _______ _______ _____ _____    ______ ____
ROOT
ATOM      1  C   UNL     1       2.113   4.257  21.227  0.00  0.00    +0.000 C 
ATOM      2  C   UNL     1       2.111   3.618  19.829  0.00  0.00    +0.000 C 
ATOM      3  C   UNL     1       0.782   2.885  19.610  0.00  0.00    +0.000 C 
ATOM      4  C   UNL     1       3.271   2.658  19.700  0.00  0.00    +0.000 C 
ATOM      5  C   UNL     1       4.428   3.018  19.130  0.00  0.00    +0.000 C 
ATOM      6  C   UNL     1       4.543   4.382  18.606  0.00  0.00    +0.000 A 
ATOM      7  C   UNL     1       3.371   5.132  18.473  0.00  0.00    +0.000 A 
ATOM      8  C   UNL     1       3.404   6.401  17.912  0.00  0.00    +0.000 A 
ATOM      9  C   UNL     1       4.617   6.962  17.512  0.00  0.00    +0.000 A 
ATOM     10  C   UNL     1       5.824   6.257  17.662  0.00  0.00    +0.000 A 
ATOM     11  C   UNL     1       5.768   4.952  18.206  0.00  0.00    +0.000 A 
ATOM     12  O   UNL     1       2.134   4.679  18.850  0.00  0.00    +0.000 OA
ENDROOT
BRANCH  10  13
ATOM     13  C   UNL     1       7.145   6.852  17.262  0.00  0.00    +0.000 C 
ATOM     14  O   UNL     1       7.751   6.371  16.305  0.00  0.00    +0.000 OA
BRANCH  13  15
ATOM     15  C   UNL     1       7.707   8.004  18.030  0.00  0.00    +0.000 C 
ATOM     16  C   UNL     1       8.093   9.132  17.416  0.00  0.00    +0.000 C 
BRANCH  16  17
ATOM     17  C   UNL     1       8.671  10.247  18.177  0.00  0.00    +0.000 A 
ATOM     18  C   UNL     1       9.278  10.024  19.419  0.00  0.00    +0.000 A 
ATOM     19  C   UNL     1       9.819  11.091  20.144  0.00  0.00    +0.000 A 
ATOM     20  C   UNL     1       9.769  12.387  19.631  0.00  0.00    +0.000 A 
ATOM     21  C   UNL     1       9.183  12.601  18.389  0.00  0.00    +0.000 A 
ATOM     22  C   UNL     1       8.636  11.549  17.660  0.00  0.00    +0.000 A 
BRANCH  21  23
ATOM     23  O   UNL     1       9.121  13.854  17.847  0.00  0.00    +0.000 OA
ATOM     24  H   UNL     1       8.274  13.954  17.384  0.00  0.00    +0.000 HD
ENDBRANCH  21  23
ENDBRANCH  16  17
ENDBRANCH  13  15
ENDBRANCH  10  13
BRANCH  11  25
ATOM     25  O   UNL     1       6.904   4.191  18.380  0.00  0.00    +0.000 OA
ATOM     26  H   UNL     1       7.547   4.710  18.913  0.00  0.00    +0.000 HD
ENDBRANCH  11  25
TORSDOF 5
ENDMDL
MODEL 3
REMARK VINA RESULT:      -8.7      1.098      1.864
REMARK  Name = 
REMARK  7 active torsions:
REMARK  status: ('A' for Active; 'I' for Inactive)
REMARK    1  A    between atoms: C_1  and  C_2
REMARK    2  A    between atoms: C_2  and  C_3
REMARK    3  A    between atoms: C_10  and  C_11
REMARK    4  A    between atoms: C_11  and  C_13
REMARK    5  A    between atoms: C_14  and  C_15
REMARK    6  A    between atoms: C_19  and  O_20
REMARK    7  A    between atoms: C_22  and  O_23
REMARK                            x       y       z     vdW  Elec       q    Type
REMARK                         _______ _______ _______ _____ _____    ______ ____
ROOT
ATOM      1  C   UNL     1       2.301   2.341  18.465  0.00  0.00    +0.000 C 
ATOM      2  C   UNL     1       2.101   3.630  19.276  0.00  0.00    +0.000 C 
ATOM      3  C   UNL     1       1.103   3.364  20.410  0.00  0.00    +0.000 C 
ATOM      4  C   UNL     1       1.594   4.733  18.375  0.00  0.00    +0.000 C 
ATOM      5  C   UNL     1       2.418   5.639  17.834  0.00  0.00    +0.000 C 
ATOM      6  C   UNL     1       3.845   5.552  18.154  0.00  0.00    +0.000 A 
ATOM      7  C   UNL     1       4.228   4.720  19.210  0.00  0.00    +0.000 A 
ATOM      8  C   UNL     1       5.555   4.654  19.612  0.00  0.00    +0.000 A 
ATOM      9  C   UNL     1       6.532   5.385  18.936  0.00  0.00    +0.000 A 
ATOM     10  C   UNL     1       6.196   6.205  17.845  0.00  0.00    +0.000 A 
ATOM     11  C   UNL     1       4.834   6.286  17.468  0.00  0.00    +0.000 A 
ATOM     12  O   UNL     1       3.350   3.951  19.926  0.00  0.00    +0.000 OA
ENDROOT
BRANCH  10  13
ATOM     13  C   UNL     1       7.235   6.981  17.085  0.00  0.00    +0.000 C 
ATOM     14  O   UNL     1       7.811   6.442  16.142  0.00  0.00    +0.000 OA
BRANCH  13  15
ATOM     15  C   UNL     1       7.561   8.382  17.488  0.00  0.00    +0.000 C 
ATOM     16  C   UNL     1       8.586   8.653  18.310  0.00  0.00    +0.000 C 
BRANCH  16  17
ATOM     17  C   UNL     1       8.879  10.032  18.723  0.00  0.00    +0.000 A 
ATOM     18  C   UNL     1       8.702  11.096  17.833  0.00  0.00    +0.000 A 
ATOM     19  C   UNL     1       8.991  12.407  18.228  0.00  0.00    +0.000 A 
ATOM     20  C   UNL     1       9.450  12.667  19.519  0.00  0.00    +0.000 A 
ATOM     21  C   UNL     1       9.607  11.608  20.407  0.00  0.00    +0.000 A 
ATOM     22  C   UNL     1       9.326  10.300  20.024  0.00  0.00    +0.000 A 
BRANCH  21  23
ATOM     23  O   UNL     1      10.046  11.820  21.684  0.00  0.00    +0.000 OA
ATOM     24  H   UNL     1      10.669  11.116  21.922  0.00  0.00    +0.000 HD
ENDBRANCH  21  23
ENDBRANCH  16  17
ENDBRANCH  13  15
ENDBRANCH  10  13
BRANCH  11  25
ATOM     25  O   UNL     1       4.419   7.071  16.415  0.00  0.00    +0.000 OA
ATOM     26  H   UNL     1       3.517   6.784  16.149  0.00  0.00    +0.000 HD
ENDBRANCH  11  25
TORSDOF 5
ENDMDL
MODEL 4
REMARK VINA RESULT:      -8.5      1.522      2.317
REMARK  Name = 
REMARK  7 active torsions:
REMARK  status: ('A' for Active; 'I' for Inactive)
REMARK    1  A    between atoms: C_1  and  C_2
REMARK    2  A    between atoms: C_2  and  C_3
REMARK    3  A    between atoms: C_10  and  C_11
REMARK    4  A    between atoms: C_11  and  C_13
REMARK    5  A    between atoms: C_14  and  C_15
REMARK    6  A    between atoms: C_19  and  O_20
REMARK    7  A    between atoms: C_22  and  O_23
REMARK                            x       y       z     vdW  Elec       q    Type
REMARK                         _______ _______ _______ _____ _____    ______ ____
ROOT
ATOM      1  C   UNL     1       3.117   1.742  18.242  0.00  0.00    +0.000 C 
ATOM      2  C   UNL     1       2.625   2.990  18.991  0.00  0.00    +0.000 C 
ATOM      3  C   UNL     1       1.538   2.583  19.993  0.00  0.00    +0.000 C 
ATOM      4  C   UNL     1       2.084   4.002  18.006  0.00  0.00    +0.000 C 
ATOM      5  C   UNL     1       2.829   5.018  17.555  0.00  0.00    +0.000 C 
ATOM      6  C   UNL     1       4.199   5.145  18.057  0.00  0.00    +0.000 A 
ATOM      7  C   UNL     1       4.559   4.384  19.173  0.00  0.00    +0.000 A 
ATOM      8  C   UNL     1       5.818   4.517  19.744  0.00  0.00    +0.000 A 
ATOM      9  C   UNL     1       6.756   5.383  19.181  0.00  0.00    +0.000 A 
ATOM     10  C   UNL     1       6.448   6.140  18.037  0.00  0.00    +0.000 A 
ATOM     11  C   UNL     1       5.151   6.016  17.488  0.00  0.00    +0.000 A 
ATOM     12  O   UNL     1       3.717   3.496  19.788  0.00  0.00    +0.000 OA
ENDROOT
BRANCH  10  13
ATOM     13  C   UNL     1       7.453   7.059  17.400  0.00  0.00    +0.000 C 
ATOM     14  O   UNL     1       7.802   6.849  16.240  0.00  0.00    +0.000 OA
BRANCH  13  15
ATOM     15  C   UNL     1       8.018   8.201  18.180  0.00  0.00    +0.000 C 
ATOM     16  C   UNL     1       8.263   9.387  17.605  0.00  0.00    +0.000 C 
BRANCH  16  17
ATOM     17  C   UNL     1       8.846  10.494  18.374  0.00  0.00    +0.000 A 
ATOM     18  C   UNL     1       9.442  10.262  19.619  0.00  0.00    +0.000 A 
ATOM     19  C   UNL     1       9.989  11.321  20.352  0.00  0.00    +0.000 A 
ATOM     20  C   UNL     1       9.954  12.619  19.843  0.00  0.00    +0.000 A 
ATOM     21  C   UNL     1       9.378  12.843  18.598  0.00  0.00    +0.000 A 
ATOM     22  C   UNL     1       8.827  11.798  17.861  0.00  0.00    +0.000 A 
BRANCH  21  23
ATOM     23  O   UNL     1       9.331  14.098  18.060  0.00  0.00    +0.000 OA
ATOM     24  H   UNL     1       9.175  14.025  17.105  0.00  0.00    +0.000 HD
ENDBRANCH  21  23
ENDBRANCH  16  17
ENDBRANCH  13  15
ENDBRANCH  10  13
BRANCH  11  25
ATOM     25  O   UNL     1       4.766   6.727  16.372  0.00  0.00    +0.000 OA
ATOM     26  H   UNL     1       3.784   6.784  16.363  0.00  0.00    +0.000 HD
ENDBRANCH  11  25
TORSDOF 5
ENDMDL
MODEL 5
REMARK VINA RESULT:      -7.9      5.087      8.369
REMARK  Name = 
REMARK  7 active torsions:
REMARK  status: ('A' for Active; 'I' for Inactive)
REMARK    1  A    between atoms: C_1  and  C_2
REMARK    2  A    between atoms: C_2  and  C_3
REMARK    3  A    between atoms: C_10  and  C_11
REMARK    4  A    between atoms: C_11  and  C_13
REMARK    5  A    between atoms: C_14  and  C_15
REMARK    6  A    between atoms: C_19  and  O_20
REMARK    7  A    between atoms: C_22  and  O_23
REMARK                            x       y       z     vdW  Elec       q    Type
REMARK                         _______ _______ _______ _____ _____    ______ ____
ROOT
ATOM      1  C   UNL     1      -0.453  13.138  22.205  0.00  0.00    +0.000 C 
ATOM      2  C   UNL     1      -1.355  11.896  22.145  0.00  0.00    +0.000 C 
ATOM      3  C   UNL     1      -2.743  12.252  22.692  0.00  0.00    +0.000 C 
ATOM      4  C   UNL     1      -0.742  10.774  22.951  0.00  0.00    +0.000 C 
ATOM      5  C   UNL     1      -0.005   9.813  22.379  0.00  0.00    +0.000 C 
ATOM      6  C   UNL     1       0.182   9.860  20.927  0.00  0.00    +0.000 A 
ATOM      7  C   UNL     1      -0.634  10.722  20.190  0.00  0.00    +0.000 A 
ATOM      8  C   UNL     1      -0.559  10.756  18.804  0.00  0.00    +0.000 A 
ATOM      9  C   UNL     1       0.366   9.957  18.131  0.00  0.00    +0.000 A 
ATOM     10  C   UNL     1       1.231   9.102  18.835  0.00  0.00    +0.000 A 
ATOM     11  C   UNL     1       1.119   9.057  20.245  0.00  0.00    +0.000 A 
ATOM     12  O   UNL     1      -1.561  11.557  20.756  0.00  0.00    +0.000 OA
ENDROOT
BRANCH  10  13
ATOM     13  C   UNL     1       2.253   8.253  18.132  0.00  0.00    +0.000 C 
ATOM     14  O   UNL     1       3.130   8.802  17.468  0.00  0.00    +0.000 OA
BRANCH  13  15
ATOM     15  C   UNL     1       2.185   6.764  18.239  0.00  0.00    +0.000 C 
ATOM     16  C   UNL     1       3.289   6.025  18.422  0.00  0.00    +0.000 C 
BRANCH  16  17
ATOM     17  C   UNL     1       3.215   4.560  18.496  0.00  0.00    +0.000 A 
ATOM     18  C   UNL     1       2.191   3.864  17.843  0.00  0.00    +0.000 A 
ATOM     19  C   UNL     1       2.119   2.469  17.924  0.00  0.00    +0.000 A 
ATOM     20  C   UNL     1       3.075   1.757  18.648  0.00  0.00    +0.000 A 
ATOM     21  C   UNL     1       4.101   2.451  19.279  0.00  0.00    +0.000 A 
ATOM     22  C   UNL     1       4.181   3.839  19.210  0.00  0.00    +0.000 A 
BRANCH  21  23
ATOM     23  O   UNL     1       5.063   1.791  19.992  0.00  0.00    +0.000 OA
ATOM     24  H   UNL     1       5.287   2.315  20.777  0.00  0.00    +0.000 HD
ENDBRANCH  21  23
ENDBRANCH  16  17
ENDBRANCH  13  15
ENDBRANCH  10  13
BRANCH  11  25
ATOM     25  O   UNL     1       1.924   8.241  21.010  0.00  0.00    +0.000 OA
ATOM     26  H   UNL     1       2.455   7.674  20.407  0.00  0.00    +0.000 HD
ENDBRANCH  11  25
TORSDOF 5
ENDMDL
MODEL 6
REMARK VINA RESULT:      -7.9      5.587      8.507
REMARK  Name = 
REMARK  7 active torsions:
REMARK  status: ('A' for Active; 'I' for Inactive)
REMARK    1  A    between atoms: C_1  and  C_2
REMARK    2  A    between atoms: C_2  and  C_3
REMARK    3  A    between atoms: C_10  and  C_11
REMARK    4  A    between atoms: C_11  and  C_13
REMARK    5  A    between atoms: C_14  and  C_15
REMARK    6  A    between atoms: C_19  and  O_20
REMARK    7  A    between atoms: C_22  and  O_23
REMARK                            x       y       z     vdW  Elec       q    Type
REMARK                         _______ _______ _______ _____ _____    ______ ____
ROOT
ATOM      1  C   UNL     1       1.993   3.793  17.688  0.00  0.00    +0.000 C 
ATOM      2  C   UNL     1       3.181   4.355  18.483  0.00  0.00    +0.000 C 
ATOM      3  C   UNL     1       4.403   3.452  18.274  0.00  0.00    +0.000 C 
ATOM      4  C   UNL     1       2.828   4.434  19.950  0.00  0.00    +0.000 C 
ATOM      5  C   UNL     1       2.390   5.567  20.513  0.00  0.00    +0.000 C 
ATOM      6  C   UNL     1       2.276   6.758  19.667  0.00  0.00    +0.000 A 
ATOM      7  C   UNL     1       2.886   6.728  18.410  0.00  0.00    +0.000 A 
ATOM      8  C   UNL     1       2.880   7.850  17.593  0.00  0.00    +0.000 A 
ATOM      9  C   UNL     1       2.224   9.012  18.000  0.00  0.00    +0.000 A 
ATOM     10  C   UNL     1       1.566   9.074  19.241  0.00  0.00    +0.000 A 
ATOM     11  C   UNL     1       1.609   7.931  20.074  0.00  0.00    +0.000 A 
ATOM     12  O   UNL     1       3.541   5.632  17.912  0.00  0.00    +0.000 OA
ENDROOT
BRANCH  10  13
ATOM     13  C   UNL     1       0.831  10.307  19.688  0.00  0.00    +0.000 C 
ATOM     14  O   UNL     1       1.195  10.878  20.714  0.00  0.00    +0.000 OA
BRANCH  13  15
ATOM     15  C   UNL     1      -0.328  10.813  18.893  0.00  0.00    +0.000 C 
ATOM     16  C   UNL     1      -1.312   9.995  18.492  0.00  0.00    +0.000 C 
BRANCH  16  17
ATOM     17  C   UNL     1      -2.432  10.497  17.687  0.00  0.00    +0.000 A 
ATOM     18  C   UNL     1      -2.572  10.121  16.346  0.00  0.00    +0.000 A 
ATOM     19  C   UNL     1      -3.636  10.609  15.580  0.00  0.00    +0.000 A 
ATOM     20  C   UNL     1      -4.576  11.468  16.149  0.00  0.00    +0.000 A 
ATOM     21  C   UNL     1      -4.444  11.824  17.487  0.00  0.00    +0.000 A 
ATOM     22  C   UNL     1      -3.387  11.349  18.258  0.00  0.00    +0.000 A 
BRANCH  21  23
ATOM     23  O   UNL     1      -5.347  12.657  18.085  0.00  0.00    +0.000 OA
ATOM     24  H   UNL     1      -5.165  12.686  19.037  0.00  0.00    +0.000 HD
ENDBRANCH  21  23
ENDBRANCH  16  17
ENDBRANCH  13  15
ENDBRANCH  10  13
BRANCH  11  25
ATOM     25  O   UNL     1       0.996   7.911  21.308  0.00  0.00    +0.000 OA
ATOM     26  H   UNL     1       0.273   7.245  21.285  0.00  0.00    +0.000 HD
ENDBRANCH  11  25
TORSDOF 5
ENDMDL
MODEL 7
REMARK VINA RESULT:      -7.9      5.434      8.472
REMARK  Name = 
REMARK  7 active torsions:
REMARK  status: ('A' for Active; 'I' for Inactive)
REMARK    1  A    between atoms: C_1  and  C_2
REMARK    2  A    between atoms: C_2  and  C_3
REMARK    3  A    between atoms: C_10  and  C_11
REMARK    4  A    between atoms: C_11  and  C_13
REMARK    5  A    between atoms: C_14  and  C_15
REMARK    6  A    between atoms: C_19  and  O_20
REMARK    7  A    between atoms: C_22  and  O_23
REMARK                            x       y       z     vdW  Elec       q    Type
REMARK                         _______ _______ _______ _____ _____    ______ ____
ROOT
ATOM      1  C   UNL     1       1.483   3.618  18.301  0.00  0.00    +0.000 C 
ATOM      2  C   UNL     1       2.734   4.160  19.010  0.00  0.00    +0.000 C 
ATOM      3  C   UNL     1       3.877   3.148  18.865  0.00  0.00    +0.000 C 
ATOM      4  C   UNL     1       2.432   4.409  20.470  0.00  0.00    +0.000 C 
ATOM      5  C   UNL     1       2.097   5.622  20.926  0.00  0.00    +0.000 C 
ATOM      6  C   UNL     1       2.049   6.730  19.969  0.00  0.00    +0.000 A 
ATOM      7  C   UNL     1       2.618   6.530  18.708  0.00  0.00    +0.000 A 
ATOM      8  C   UNL     1       2.673   7.564  17.784  0.00  0.00    +0.000 A 
ATOM      9  C   UNL     1       2.119   8.808  18.088  0.00  0.00    +0.000 A 
ATOM     10  C   UNL     1       1.505   9.042  19.331  0.00  0.00    +0.000 A 
ATOM     11  C   UNL     1       1.486   7.986  20.272  0.00  0.00    +0.000 A 
ATOM     12  O   UNL     1       3.173   5.343  18.307  0.00  0.00    +0.000 OA
ENDROOT
BRANCH  10  13
ATOM     13  C   UNL     1       0.879  10.366  19.669  0.00  0.00    +0.000 C 
ATOM     14  O   UNL     1       1.365  11.041  20.576  0.00  0.00    +0.000 OA
BRANCH  13  15
ATOM     15  C   UNL     1      -0.321  10.839  18.915  0.00  0.00    +0.000 C 
ATOM     16  C   UNL     1      -1.148   9.977  18.305  0.00  0.00    +0.000 C 
BRANCH  16  17
ATOM     17  C   UNL     1      -2.308  10.454  17.541  0.00  0.00    +0.000 A 
ATOM     18  C   UNL     1      -3.303  11.218  18.160  0.00  0.00    +0.000 A 
ATOM     19  C   UNL     1      -4.411  11.664  17.431  0.00  0.00    +0.000 A 
ATOM     20  C   UNL     1      -4.529  11.358  16.075  0.00  0.00    +0.000 A 
ATOM     21  C   UNL     1      -3.528  10.614  15.460  0.00  0.00    +0.000 A 
ATOM     22  C   UNL     1      -2.424  10.162  16.176  0.00  0.00    +0.000 A 
BRANCH  21  23
ATOM     23  O   UNL     1      -3.601  10.300  14.132  0.00  0.00    +0.000 OA
ATOM     24  H   UNL     1      -2.712  10.352  13.748  0.00  0.00    +0.000 HD
ENDBRANCH  21  23
ENDBRANCH  16  17
ENDBRANCH  13  15
ENDBRANCH  10  13
BRANCH  11  25
ATOM     25  O   UNL     1       0.910   8.134  21.515  0.00  0.00    +0.000 OA
ATOM     26  H   UNL     1       1.339   7.502  22.134  0.00  0.00    +0.000 HD
ENDBRANCH  11  25
TORSDOF 5
ENDMDL
MODEL 8
REMARK VINA RESULT:      -7.7      5.206      8.151
REMARK  Name = 
REMARK  7 active torsions:
REMARK  status: ('A' for Active; 'I' for Inactive)
REMARK    1  A    between atoms: C_1  and  C_2
REMARK    2  A    between atoms: C_2  and  C_3
REMARK    3  A    between atoms: C_10  and  C_11
REMARK    4  A    between atoms: C_11  and  C_13
REMARK    5  A    between atoms: C_14  and  C_15
REMARK    6  A    between atoms: C_19  and  O_20
REMARK    7  A    between atoms: C_22  and  O_23
REMARK                            x       y       z     vdW  Elec       q    Type
REMARK                         _______ _______ _______ _____ _____    ______ ____
ROOT
ATOM      1  C   UNL     1       2.111   2.556  18.598  0.00  0.00    +0.000 C 
ATOM      2  C   UNL     1       3.185   3.186  19.497  0.00  0.00    +0.000 C 
ATOM      3  C   UNL     1       4.317   2.176  19.718  0.00  0.00    +0.000 C 
ATOM      4  C   UNL     1       2.576   3.594  20.819  0.00  0.00    +0.000 C 
ATOM      5  C   UNL     1       2.169   4.848  21.054  0.00  0.00    +0.000 C 
ATOM      6  C   UNL     1       2.347   5.841  19.991  0.00  0.00    +0.000 A 
ATOM      7  C   UNL     1       3.173   5.506  18.915  0.00  0.00    +0.000 A 
ATOM      8  C   UNL     1       3.443   6.431  17.916  0.00  0.00    +0.000 A 
ATOM      9  C   UNL     1       2.855   7.696  17.952  0.00  0.00    +0.000 A 
ATOM     10  C   UNL     1       1.988   8.061  18.996  0.00  0.00    +0.000 A 
ATOM     11  C   UNL     1       1.749   7.117  20.023  0.00  0.00    +0.000 A 
ATOM     12  O   UNL     1       3.784   4.287  18.779  0.00  0.00    +0.000 OA
ENDROOT
BRANCH  10  13
ATOM     13  C   UNL     1       1.324   9.409  19.040  0.00  0.00    +0.000 C 
ATOM     14  O   UNL     1       1.751  10.259  19.820  0.00  0.00    +0.000 OA
BRANCH  13  15
ATOM     15  C   UNL     1       0.156   9.694  18.153  0.00  0.00    +0.000 C 
ATOM     16  C   UNL     1      -0.922  10.350  18.605  0.00  0.00    +0.000 C 
BRANCH  16  17
ATOM     17  C   UNL     1      -2.076  10.599  17.732  0.00  0.00    +0.000 A 
ATOM     18  C   UNL     1      -2.165   9.990  16.475  0.00  0.00    +0.000 A 
ATOM     19  C   UNL     1      -3.262  10.237  15.643  0.00  0.00    +0.000 A 
ATOM     20  C   UNL     1      -4.286  11.087  16.063  0.00  0.00    +0.000 A 
ATOM     21  C   UNL     1      -4.203  11.675  17.320  0.00  0.00    +0.000 A 
ATOM     22  C   UNL     1      -3.115  11.440  18.155  0.00  0.00    +0.000 A 
BRANCH  21  23
ATOM     23  O   UNL     1      -5.188  12.506  17.774  0.00  0.00    +0.000 OA
ATOM     24  H   UNL     1      -5.319  13.220  17.130  0.00  0.00    +0.000 HD
ENDBRANCH  21  23
ENDBRANCH  16  17
ENDBRANCH  13  15
ENDBRANCH  10  13
BRANCH  11  25
ATOM     25  O   UNL     1       0.919   7.398  21.086  0.00  0.00    +0.000 OA
ATOM     26  H   UNL     1       1.357   7.094  21.912  0.00  0.00    +0.000 HD
ENDBRANCH  11  25
TORSDOF 5
ENDMDL
MODEL 9
REMARK VINA RESULT:      -7.7      4.743      6.749
REMARK  Name = 
REMARK  7 active torsions:
REMARK  status: ('A' for Active; 'I' for Inactive)
REMARK    1  A    between atoms: C_1  and  C_2
REMARK    2  A    between atoms: C_2  and  C_3
REMARK    3  A    between atoms: C_10  and  C_11
REMARK    4  A    between atoms: C_11  and  C_13
REMARK    5  A    between atoms: C_14  and  C_15
REMARK    6  A    between atoms: C_19  and  O_20
REMARK    7  A    between atoms: C_22  and  O_23
REMARK                            x       y       z     vdW  Elec       q    Type
REMARK                         _______ _______ _______ _____ _____    ______ ____
ROOT
ATOM      1  C   UNL     1       1.370  11.124  21.221  0.00  0.00    +0.000 C 
ATOM      2  C   UNL     1       0.301  10.184  20.644  0.00  0.00    +0.000 C 
ATOM      3  C   UNL     1      -1.050  10.910  20.617  0.00  0.00    +0.000 C 
ATOM      4  C   UNL     1       0.210   8.930  21.482  0.00  0.00    +0.000 C 
ATOM      5  C   UNL     1       0.853   7.805  21.146  0.00  0.00    +0.000 C 
ATOM      6  C   UNL     1       1.646   7.807  19.914  0.00  0.00    +0.000 A 
ATOM      7  C   UNL     1       1.468   8.868  19.023  0.00  0.00    +0.000 A 
ATOM      8  C   UNL     1       2.132   8.889  17.804  0.00  0.00    +0.000 A 
ATOM      9  C   UNL     1       3.023   7.867  17.473  0.00  0.00    +0.000 A 
ATOM     10  C   UNL     1       3.261   6.800  18.356  0.00  0.00    +0.000 A 
ATOM     11  C   UNL     1       2.551   6.779  19.580  0.00  0.00    +0.000 A 
ATOM     12  O   UNL     1       0.629   9.925  19.261  0.00  0.00    +0.000 OA
ENDROOT
BRANCH  10  13
ATOM     13  C   UNL     1       4.236   5.704  18.030  0.00  0.00    +0.000 C 
ATOM     14  O   UNL     1       4.527   4.885  18.902  0.00  0.00    +0.000 OA
BRANCH  13  15
ATOM     15  C   UNL     1       4.844   5.627  16.667  0.00  0.00    +0.000 C 
ATOM     16  C   UNL     1       5.347   4.479  16.190  0.00  0.00    +0.000 C 
BRANCH  16  17
ATOM     17  C   UNL     1       5.968   4.421  14.860  0.00  0.00    +0.000 A 
ATOM     18  C   UNL     1       5.446   3.588  13.865  0.00  0.00    +0.000 A 
ATOM     19  C   UNL     1       6.046   3.529  12.602  0.00  0.00    +0.000 A 
ATOM     20  C   UNL     1       7.167   4.311  12.320  0.00  0.00    +0.000 A 
ATOM     21  C   UNL     1       7.671   5.152  13.306  0.00  0.00    +0.000 A 
ATOM     22  C   UNL     1       7.085   5.215  14.567  0.00  0.00    +0.000 A 
BRANCH  21  23
ATOM     23  O   UNL     1       8.762   5.940  13.068  0.00  0.00    +0.000 OA
ATOM     24  H   UNL     1       8.762   6.203  12.135  0.00  0.00    +0.000 HD
ENDBRANCH  21  23
ENDBRANCH  16  17
ENDBRANCH  13  15
ENDBRANCH  10  13
BRANCH  11  25
ATOM     25  O   UNL     1       2.721   5.765  20.498  0.00  0.00    +0.000 OA
ATOM     26  H   UNL     1       1.907   5.703  21.046  0.00  0.00    +0.000 HD
ENDBRANCH  11  25
TORSDOF 5
ENDMDL
