MODEL 1
REMARK VINA RESULT:      -8.9      0.000      0.000
REMARK  Name = 
REMARK  9 active torsions:
REMARK  status: ('A' for Active; 'I' for Inactive)
REMARK    1  A    between atoms: C_1  and  C_2
REMARK    2  A    between atoms: N_4  and  C_5
REMARK    3  A    between atoms: C_5  and  C_6
REMARK    4  A    between atoms: C_5  and  C_16
REMARK    5  A    between atoms: C_6  and  C_7
REMARK    6  A    between atoms: C_16  and  O_18
REMARK    7  A    between atoms: O_18  and  C_19
REMARK    8  A    between atoms: C_19  and  C_20
REMARK    9  A    between atoms: N_22  and  C_23
REMARK                            x       y       z     vdW  Elec       q    Type
REMARK                         _______ _______ _______ _____ _____    ______ ____
ROOT
ATOM      1  C   UNL     1       5.544   6.161  16.556  0.00  0.00    +0.000 C 
ENDROOT
BRANCH   1   5
ATOM      2  C   UNL     1       6.226   3.819  13.627  0.00  0.00    +0.000 C 
ATOM      3  C   UNL     1       6.520   4.894  14.639  0.00  0.00    +0.000 C 
ATOM      4  O   UNL     1       7.610   5.451  14.718  0.00  0.00    +0.000 OA
ATOM      5  N   UNL     1       5.471   5.168  15.474  0.00  0.00    +0.000 N 
ATOM      6  H   UNL     1       4.619   4.619  15.415  0.00  0.00    +0.000 HD
ENDBRANCH   1   5
BRANCH   1   7
ATOM      7  C   UNL     1       6.276   5.509  17.736  0.00  0.00    +0.000 C 
ATOM      8  O   UNL     1       6.475   4.302  17.853  0.00  0.00    +0.000 OA
BRANCH   7   9
ATOM      9  O   UNL     1       6.736   6.441  18.613  0.00  0.00    +0.000 OA
BRANCH   9  10
ATOM     10  C   UNL     1       8.081   6.864  18.384  0.00  0.00    +0.000 C 
BRANCH  10  11
ATOM     11  C   UNL     1       8.191   8.376  18.216  0.00  0.00    +0.000 C 
ATOM     12  O   UNL     1       7.557   8.936  17.318  0.00  0.00    +0.000 OA
ATOM     13  N   UNL     1       9.069   8.987  19.099  0.00  0.00    +0.000 N 
ATOM     14  H   UNL     1       9.684   8.366  19.626  0.00  0.00    +0.000 HD
BRANCH  13  15
ATOM     15  C   UNL     1       9.371  10.370  19.135  0.00  0.00    +0.000 A 
ATOM     16  C   UNL     1       9.743  11.095  17.983  0.00  0.00    +0.000 A 
ATOM     17  C   UNL     1      10.126  12.437  18.058  0.00  0.00    +0.000 A 
ATOM     18  C   UNL     1      10.130  13.032  19.296  0.00  0.00    +0.000 A 
ATOM     19  C   UNL     1       9.730  12.351  20.421  0.00  0.00    +0.000 A 
ATOM     20  C   UNL     1       9.324  11.028  20.373  0.00  0.00    +0.000 A 
ATOM     21  O   UNL     1       9.816  13.122  21.541  0.00  0.00    +0.000 OA
ATOM     22  C   UNL     1      10.400  14.326  20.998  0.00  0.00    +0.000 C 
ATOM     23  O   UNL     1      10.519  14.306  19.562  0.00  0.00    +0.000 OA
ENDBRANCH  13  15
ENDBRANCH  10  11
ENDBRANCH   9  10
ENDBRANCH   7   9
ENDBRANCH   1   7
BRANCH   1  24
ATOM     24  C   UNL     1       4.165   6.721  16.958  0.00  0.00    +0.000 C 
BRANCH  24  25
ATOM     25  C   UNL     1       3.540   6.013  18.127  0.00  0.00    +0.000 A 
ATOM     26  C   UNL     1       3.402   6.525  19.403  0.00  0.00    +0.000 A 
ATOM     27  N   UNL     1       2.678   5.637  20.149  0.00  0.00    +0.000 N 
ATOM     28  C   UNL     1       2.427   4.500  19.419  0.00  0.00    +0.000 A 
ATOM     29  C   UNL     1       1.757   3.327  19.787  0.00  0.00    +0.000 A 
ATOM     30  C   UNL     1       1.695   2.293  18.849  0.00  0.00    +0.000 A 
ATOM     31  C   UNL     1       2.271   2.436  17.589  0.00  0.00    +0.000 A 
ATOM     32  C   UNL     1       2.913   3.627  17.229  0.00  0.00    +0.000 A 
ATOM     33  C   UNL     1       2.991   4.688  18.157  0.00  0.00    +0.000 A 
ATOM     34  H   UNL     1       2.389   5.778  21.107  0.00  0.00    +0.000 HD
ENDBRANCH  24  25
ENDBRANCH   1  24
TORSDOF 8
ENDMDL
MODEL 2
REMARK VINA RESULT:      -8.8      1.504      2.500
REMARK  Name = 
REMARK  9 active torsions:
REMARK  status: ('A' for Active; 'I' for Inactive)
REMARK    1  A    between atoms: C_1  and  C_2
REMARK    2  A    between atoms: N_4  and  C_5
REMARK    3  A    between atoms: C_5  and  C_6
REMARK    4  A    between atoms: C_5  and  C_16
REMARK    5  A    between atoms: C_6  and  C_7
REMARK    6  A    between atoms: C_16  and  O_18
REMARK    7  A    between atoms: O_18  and  C_19
REMARK    8  A    between atoms: C_19  and  C_20
REMARK    9  A    between atoms: N_22  and  C_23
REMARK                            x       y       z     vdW  Elec       q    Type
REMARK                         _______ _______ _______ _____ _____    ______ ____
ROOT
ATOM      1  C   UNL     1       5.081   5.161  17.669  0.00  0.00    +0.000 C 
ENDROOT
BRANCH   1   5
ATOM      2  C   UNL     1       6.178   4.071  14.185  0.00  0.00    +0.000 C 
ATOM      3  C   UNL     1       5.667   5.008  15.247  0.00  0.00    +0.000 C 
ATOM      4  O   UNL     1       5.418   6.189  15.027  0.00  0.00    +0.000 OA
ATOM      5  N   UNL     1       5.535   4.426  16.479  0.00  0.00    +0.000 N 
ATOM      6  H   UNL     1       5.832   3.466  16.621  0.00  0.00    +0.000 HD
ENDBRANCH   1   5
BRANCH   1   7
ATOM      7  C   UNL     1       6.308   5.418  18.553  0.00  0.00    +0.000 C 
ATOM      8  O   UNL     1       6.446   4.988  19.697  0.00  0.00    +0.000 OA
BRANCH   7   9
ATOM      9  O   UNL     1       7.258   6.131  17.892  0.00  0.00    +0.000 OA
BRANCH   9  10
ATOM     10  C   UNL     1       8.134   6.882  18.734  0.00  0.00    +0.000 C 
BRANCH  10  11
ATOM     11  C   UNL     1       8.289   8.325  18.266  0.00  0.00    +0.000 C 
ATOM     12  O   UNL     1       7.832   8.662  17.170  0.00  0.00    +0.000 OA
ATOM     13  N   UNL     1       8.999   9.136  19.137  0.00  0.00    +0.000 N 
ATOM     14  H   UNL     1       9.503   8.661  19.888  0.00  0.00    +0.000 HD
BRANCH  13  15
ATOM     15  C   UNL     1       9.305  10.503  18.926  0.00  0.00    +0.000 A 
ATOM     16  C   UNL     1       8.640  11.289  17.962  0.00  0.00    +0.000 A 
ATOM     17  C   UNL     1       9.021  12.609  17.707  0.00  0.00    +0.000 A 
ATOM     18  C   UNL     1      10.070  13.121  18.430  0.00  0.00    +0.000 A 
ATOM     19  C   UNL     1      10.701  12.383  19.402  0.00  0.00    +0.000 A 
ATOM     20  C   UNL     1      10.330  11.080  19.691  0.00  0.00    +0.000 A 
ATOM     21  O   UNL     1      11.715  13.075  19.992  0.00  0.00    +0.000 OA
ATOM     22  C   UNL     1      11.702  14.292  19.213  0.00  0.00    +0.000 C 
ATOM     23  O   UNL     1      10.605  14.362  18.281  0.00  0.00    +0.000 OA
ENDBRANCH  13  15
ENDBRANCH  10  11
ENDBRANCH   9  10
ENDBRANCH   7   9
ENDBRANCH   1   7
BRANCH   1  24
ATOM     24  C   UNL     1       3.950   4.441  18.430  0.00  0.00    +0.000 C 
BRANCH  24  25
ATOM     25  C   UNL     1       3.101   5.359  19.264  0.00  0.00    +0.000 A 
ATOM     26  C   UNL     1       2.603   5.079  20.523  0.00  0.00    +0.000 A 
ATOM     27  N   UNL     1       1.987   6.202  21.002  0.00  0.00    +0.000 N 
ATOM     28  C   UNL     1       1.975   7.184  20.041  0.00  0.00    +0.000 A 
ATOM     29  C   UNL     1       1.427   8.471  20.079  0.00  0.00    +0.000 A 
ATOM     30  C   UNL     1       1.515   9.249  18.921  0.00  0.00    +0.000 A 
ATOM     31  C   UNL     1       2.139   8.759  17.777  0.00  0.00    +0.000 A 
ATOM     32  C   UNL     1       2.707   7.479  17.767  0.00  0.00    +0.000 A 
ATOM     33  C   UNL     1       2.632   6.671  18.921  0.00  0.00    +0.000 A 
ATOM     34  H   UNL     1       1.573   6.294  21.920  0.00  0.00    +0.000 HD
ENDBRANCH  24  25
ENDBRANCH   1  24
TORSDOF 8
ENDMDL
MODEL 3
REMARK VINA RESULT:      -8.7      1.558      2.334
REMARK  Name = 
REMARK  9 active torsions:
REMARK  status: ('A' for Active; 'I' for Inactive)
REMARK    1  A    between atoms: C_1  and  C_2
REMARK    2  A    between atoms: N_4  and  C_5
REMARK    3  A    between atoms: C_5  and  C_6
REMARK    4  A    between atoms: C_5  and  C_16
REMARK    5  A    between atoms: C_6  and  C_7
REMARK    6  A    between atoms: C_16  and  O_18
REMARK    7  A    between atoms: O_18  and  C_19
REMARK    8  A    between atoms: C_19  and  C_20
REMARK    9  A    between atoms: N_22  and  C_23
REMARK                            x       y       z     vdW  Elec       q    Type
REMARK                         _______ _______ _______ _____ _____    ______ ____
ROOT
ATOM      1  C   UNL     1       5.578   5.530  16.530  0.00  0.00    +0.000 C 
ENDROOT
BRANCH   1   5
ATOM      2  C   UNL     1       7.480   4.666  13.342  0.00  0.00    +0.000 C 
ATOM      3  C   UNL     1       6.316   4.696  14.296  0.00  0.00    +0.000 C 
ATOM      4  O   UNL     1       5.227   4.197  14.029  0.00  0.00    +0.000 OA
ATOM      5  N   UNL     1       6.578   5.352  15.467  0.00  0.00    +0.000 N 
ATOM      6  H   UNL     1       7.472   5.816  15.600  0.00  0.00    +0.000 HD
ENDBRANCH   1   5
BRANCH   1   7
ATOM      7  C   UNL     1       5.741   6.947  17.092  0.00  0.00    +0.000 C 
ATOM      8  O   UNL     1       4.893   7.535  17.761  0.00  0.00    +0.000 OA
BRANCH   7   9
ATOM      9  O   UNL     1       6.970   7.456  16.810  0.00  0.00    +0.000 OA
BRANCH   9  10
ATOM     10  C   UNL     1       7.826   7.611  17.943  0.00  0.00    +0.000 C 
BRANCH  10  11
ATOM     11  C   UNL     1       8.203   9.068  18.188  0.00  0.00    +0.000 C 
ATOM     12  O   UNL     1       7.718   9.950  17.475  0.00  0.00    +0.000 OA
ATOM     13  N   UNL     1       9.131   9.256  19.201  0.00  0.00    +0.000 N 
ATOM     14  H   UNL     1       9.605   8.418  19.541  0.00  0.00    +0.000 HD
BRANCH  13  15
ATOM     15  C   UNL     1       9.666  10.504  19.607  0.00  0.00    +0.000 A 
ATOM     16  C   UNL     1       9.295  11.131  20.815  0.00  0.00    +0.000 A 
ATOM     17  C   UNL     1       9.764  12.403  21.151  0.00  0.00    +0.000 A 
ATOM     18  C   UNL     1      10.605  13.029  20.262  0.00  0.00    +0.000 A 
ATOM     19  C   UNL     1      11.009  12.413  19.102  0.00  0.00    +0.000 A 
ATOM     20  C   UNL     1      10.577  11.145  18.754  0.00  0.00    +0.000 A 
ATOM     21  O   UNL     1      11.833  13.208  18.364  0.00  0.00    +0.000 OA
ATOM     22  C   UNL     1      11.821  14.419  19.152  0.00  0.00    +0.000 C 
ATOM     23  O   UNL     1      11.115  14.280  20.401  0.00  0.00    +0.000 OA
ENDBRANCH  13  15
ENDBRANCH  10  11
ENDBRANCH   9  10
ENDBRANCH   7   9
ENDBRANCH   1   7
BRANCH   1  24
ATOM     24  C   UNL     1       5.663   4.450  17.628  0.00  0.00    +0.000 C 
BRANCH  24  25
ATOM     25  C   UNL     1       4.353   3.770  17.913  0.00  0.00    +0.000 A 
ATOM     26  C   UNL     1       3.879   2.634  17.285  0.00  0.00    +0.000 A 
ATOM     27  N   UNL     1       2.719   2.253  17.901  0.00  0.00    +0.000 N 
ATOM     28  C   UNL     1       2.363   3.177  18.853  0.00  0.00    +0.000 A 
ATOM     29  C   UNL     1       1.245   3.214  19.695  0.00  0.00    +0.000 A 
ATOM     30  C   UNL     1       1.106   4.317  20.542  0.00  0.00    +0.000 A 
ATOM     31  C   UNL     1       2.056   5.334  20.553  0.00  0.00    +0.000 A 
ATOM     32  C   UNL     1       3.183   5.267  19.723  0.00  0.00    +0.000 A 
ATOM     33  C   UNL     1       3.349   4.165  18.857  0.00  0.00    +0.000 A 
ATOM     34  H   UNL     1       2.181   1.428  17.674  0.00  0.00    +0.000 HD
ENDBRANCH  24  25
ENDBRANCH   1  24
TORSDOF 8
ENDMDL
MODEL 4
REMARK VINA RESULT:      -8.6      1.858      3.074
REMARK  Name = 
REMARK  9 active torsions:
REMARK  status: ('A' for Active; 'I' for Inactive)
REMARK    1  A    between atoms: C_1  and  C_2
REMARK    2  A    between atoms: N_4  and  C_5
REMARK    3  A    between atoms: C_5  and  C_6
REMARK    4  A    between atoms: C_5  and  C_16
REMARK    5  A    between atoms: C_6  and  C_7
REMARK    6  A    between atoms: C_16  and  O_18
REMARK    7  A    between atoms: O_18  and  C_19
REMARK    8  A    between atoms: C_19  and  C_20
REMARK    9  A    between atoms: N_22  and  C_23
REMARK                            x       y       z     vdW  Elec       q    Type
REMARK                         _______ _______ _______ _____ _____    ______ ____
ROOT
ATOM      1  C   UNL     1       4.685   6.271  17.591  0.00  0.00    +0.000 C 
ENDROOT
BRANCH   1   5
ATOM      2  C   UNL     1       1.994   8.970  17.510  0.00  0.00    +0.000 C 
ATOM      3  C   UNL     1       2.835   7.870  18.099  0.00  0.00    +0.000 C 
ATOM      4  O   UNL     1       2.730   7.507  19.266  0.00  0.00    +0.000 OA
ATOM      5  N   UNL     1       3.740   7.337  17.222  0.00  0.00    +0.000 N 
ATOM      6  H   UNL     1       3.839   7.732  16.292  0.00  0.00    +0.000 HD
ENDBRANCH   1   5
BRANCH   1   7
ATOM      7  C   UNL     1       6.043   6.616  16.966  0.00  0.00    +0.000 C 
ATOM      8  O   UNL     1       6.669   5.878  16.208  0.00  0.00    +0.000 OA
BRANCH   7   9
ATOM      9  O   UNL     1       6.443   7.870  17.305  0.00  0.00    +0.000 OA
BRANCH   9  10
ATOM     10  C   UNL     1       7.834   7.991  17.609  0.00  0.00    +0.000 C 
BRANCH  10  11
ATOM     11  C   UNL     1       8.215   9.409  18.022  0.00  0.00    +0.000 C 
ATOM     12  O   UNL     1       7.738  10.369  17.411  0.00  0.00    +0.000 OA
ATOM     13  N   UNL     1       9.135   9.475  19.056  0.00  0.00    +0.000 N 
ATOM     14  H   UNL     1       9.604   8.602  19.301  0.00  0.00    +0.000 HD
BRANCH  13  15
ATOM     15  C   UNL     1       9.672  10.666  19.606  0.00  0.00    +0.000 A 
ATOM     16  C   UNL     1       9.315  11.136  20.887  0.00  0.00    +0.000 A 
ATOM     17  C   UNL     1       9.785  12.360  21.372  0.00  0.00    +0.000 A 
ATOM     18  C   UNL     1      10.611  13.095  20.556  0.00  0.00    +0.000 A 
ATOM     19  C   UNL     1      11.001  12.630  19.323  0.00  0.00    +0.000 A 
ATOM     20  C   UNL     1      10.568  11.412  18.827  0.00  0.00    +0.000 A 
ATOM     21  O   UNL     1      11.813  13.514  18.678  0.00  0.00    +0.000 OA
ATOM     22  C   UNL     1      11.807  14.618  19.611  0.00  0.00    +0.000 C 
ATOM     23  O   UNL     1      11.119  14.322  20.842  0.00  0.00    +0.000 OA
ENDBRANCH  13  15
ENDBRANCH  10  11
ENDBRANCH   9  10
ENDBRANCH   7   9
ENDBRANCH   1   7
BRANCH   1  24
ATOM     24  C   UNL     1       4.196   4.865  17.194  0.00  0.00    +0.000 C 
BRANCH  24  25
ATOM     25  C   UNL     1       4.106   3.906  18.348  0.00  0.00    +0.000 A 
ATOM     26  C   UNL     1       5.082   3.004  18.728  0.00  0.00    +0.000 A 
ATOM     27  N   UNL     1       4.683   2.401  19.889  0.00  0.00    +0.000 N 
ATOM     28  C   UNL     1       3.415   2.810  20.224  0.00  0.00    +0.000 A 
ATOM     29  C   UNL     1       2.604   2.431  21.300  0.00  0.00    +0.000 A 
ATOM     30  C   UNL     1       1.317   2.973  21.367  0.00  0.00    +0.000 A 
ATOM     31  C   UNL     1       0.869   3.868  20.400  0.00  0.00    +0.000 A 
ATOM     32  C   UNL     1       1.704   4.257  19.345  0.00  0.00    +0.000 A 
ATOM     33  C   UNL     1       3.007   3.726  19.252  0.00  0.00    +0.000 A 
ATOM     34  H   UNL     1       5.226   1.730  20.414  0.00  0.00    +0.000 HD
ENDBRANCH  24  25
ENDBRANCH   1  24
TORSDOF 8
ENDMDL
MODEL 5
REMARK VINA RESULT:      -8.6      4.402      7.303
REMARK  Name = 
REMARK  9 active torsions:
REMARK  status: ('A' for Active; 'I' for Inactive)
REMARK    1  A    between atoms: C_1  and  C_2
REMARK    2  A    between atoms: N_4  and  C_5
REMARK    3  A    between atoms: C_5  and  C_6
REMARK    4  A    between atoms: C_5  and  C_16
REMARK    5  A    between atoms: C_6  and  C_7
REMARK    6  A    between atoms: C_16  and  O_18
REMARK    7  A    between atoms: O_18  and  C_19
REMARK    8  A    between atoms: C_19  and  C_20
REMARK    9  A    between atoms: N_22  and  C_23
REMARK                            x       y       z     vdW  Elec       q    Type
REMARK                         _______ _______ _______ _____ _____    ______ ____
ROOT
ATOM      1  C   UNL     1       3.061   4.109  18.645  0.00  0.00    +0.000 C 
ENDROOT
BRANCH   1   5
ATOM      2  C   UNL     1       1.650   2.405  21.749  0.00  0.00    +0.000 C 
ATOM      3  C   UNL     1       2.169   3.539  20.906  0.00  0.00    +0.000 C 
ATOM      4  O   UNL     1       2.217   4.697  21.308  0.00  0.00    +0.000 OA
ATOM      5  N   UNL     1       2.552   3.162  19.648  0.00  0.00    +0.000 N 
ATOM      6  H   UNL     1       2.414   2.203  19.342  0.00  0.00    +0.000 HD
ENDBRANCH   1   5
BRANCH   1   7
ATOM      7  C   UNL     1       1.856   4.665  17.876  0.00  0.00    +0.000 C 
ATOM      8  O   UNL     1       0.880   3.999  17.533  0.00  0.00    +0.000 OA
BRANCH   7   9
ATOM      9  O   UNL     1       1.970   6.004  17.672  0.00  0.00    +0.000 OA
BRANCH   9  10
ATOM     10  C   UNL     1       2.746   6.693  18.653  0.00  0.00    +0.000 C 
BRANCH  10  11
ATOM     11  C   UNL     1       2.027   7.921  19.201  0.00  0.00    +0.000 C 
ATOM     12  O   UNL     1       1.756   7.982  20.403  0.00  0.00    +0.000 OA
ATOM     13  N   UNL     1       1.694   8.865  18.242  0.00  0.00    +0.000 N 
ATOM     14  H   UNL     1       1.781   8.569  17.268  0.00  0.00    +0.000 HD
BRANCH  13  15
ATOM     15  C   UNL     1       1.001  10.077  18.483  0.00  0.00    +0.000 A 
ATOM     16  C   UNL     1      -0.407  10.150  18.528  0.00  0.00    +0.000 A 
ATOM     17  C   UNL     1      -1.070  11.371  18.675  0.00  0.00    +0.000 A 
ATOM     18  C   UNL     1      -0.303  12.506  18.776  0.00  0.00    +0.000 A 
ATOM     19  C   UNL     1       1.070  12.446  18.778  0.00  0.00    +0.000 A 
ATOM     20  C   UNL     1       1.753  11.248  18.655  0.00  0.00    +0.000 A 
ATOM     21  O   UNL     1       1.634  13.682  18.881  0.00  0.00    +0.000 OA
ATOM     22  C   UNL     1       0.458  14.521  18.852  0.00  0.00    +0.000 C 
ATOM     23  O   UNL     1      -0.775  13.775  18.875  0.00  0.00    +0.000 OA
ENDBRANCH  13  15
ENDBRANCH  10  11
ENDBRANCH   9  10
ENDBRANCH   7   9
ENDBRANCH   1   7
BRANCH   1  24
ATOM     24  C   UNL     1       4.119   3.490  17.710  0.00  0.00    +0.000 C 
BRANCH  24  25
ATOM     25  C   UNL     1       5.062   4.497  17.112  0.00  0.00    +0.000 A 
ATOM     26  C   UNL     1       5.104   4.875  15.783  0.00  0.00    +0.000 A 
ATOM     27  N   UNL     1       6.005   5.896  15.654  0.00  0.00    +0.000 N 
ATOM     28  C   UNL     1       6.637   6.126  16.853  0.00  0.00    +0.000 A 
ATOM     29  C   UNL     1       7.645   7.041  17.176  0.00  0.00    +0.000 A 
ATOM     30  C   UNL     1       8.147   7.021  18.480  0.00  0.00    +0.000 A 
ATOM     31  C   UNL     1       7.649   6.127  19.424  0.00  0.00    +0.000 A 
ATOM     32  C   UNL     1       6.621   5.236  19.090  0.00  0.00    +0.000 A 
ATOM     33  C   UNL     1       6.095   5.234  17.781  0.00  0.00    +0.000 A 
ATOM     34  H   UNL     1       6.204   6.395  14.798  0.00  0.00    +0.000 HD
ENDBRANCH  24  25
ENDBRANCH   1  24
TORSDOF 8
ENDMDL
MODEL 6
REMARK VINA RESULT:      -8.5      1.127      1.692
REMARK  Name = 
REMARK  9 active torsions:
REMARK  status: ('A' for Active; 'I' for Inactive)
REMARK    1  A    between atoms: C_1  and  C_2
REMARK    2  A    between atoms: N_4  and  C_5
REMARK    3  A    between atoms: C_5  and  C_6
REMARK    4  A    between atoms: C_5  and  C_16
REMARK    5  A    between atoms: C_6  and  C_7
REMARK    6  A    between atoms: C_16  and  O_18
REMARK    7  A    between atoms: O_18  and  C_19
REMARK    8  A    between atoms: C_19  and  C_20
REMARK    9  A    between atoms: N_22  and  C_23
REMARK                            x       y       z     vdW  Elec       q    Type
REMARK                         _______ _______ _______ _____ _____    ______ ____
ROOT
ATOM      1  C   UNL     1       5.336   5.457  16.322  0.00  0.00    +0.000 C 
ENDROOT
BRANCH   1   5
ATOM      2  C   UNL     1       6.435   3.506  13.237  0.00  0.00    +0.000 C 
ATOM      3  C   UNL     1       6.405   4.650  14.214  0.00  0.00    +0.000 C 
ATOM      4  O   UNL     1       7.135   5.631  14.112  0.00  0.00    +0.000 OA
ATOM      5  N   UNL     1       5.511   4.480  15.236  0.00  0.00    +0.000 N 
ATOM      6  H   UNL     1       4.991   3.612  15.316  0.00  0.00    +0.000 HD
ENDBRANCH   1   5
BRANCH   1   7
ATOM      7  C   UNL     1       6.465   5.236  17.335  0.00  0.00    +0.000 C 
ATOM      8  O   UNL     1       7.203   4.252  17.354  0.00  0.00    +0.000 OA
BRANCH   7   9
ATOM      9  O   UNL     1       6.593   6.295  18.178  0.00  0.00    +0.000 OA
BRANCH   9  10
ATOM     10  C   UNL     1       7.936   6.734  18.385  0.00  0.00    +0.000 C 
BRANCH  10  11
ATOM     11  C   UNL     1       8.087   8.241  18.200  0.00  0.00    +0.000 C 
ATOM     12  O   UNL     1       7.489   8.804  17.279  0.00  0.00    +0.000 OA
ATOM     13  N   UNL     1       8.955   8.843  19.097  0.00  0.00    +0.000 N 
ATOM     14  H   UNL     1       9.543   8.215  19.649  0.00  0.00    +0.000 HD
BRANCH  13  15
ATOM     15  C   UNL     1       9.290  10.219  19.123  0.00  0.00    +0.000 A 
ATOM     16  C   UNL     1       9.596  10.947  17.955  0.00  0.00    +0.000 A 
ATOM     17  C   UNL     1      10.013  12.280  18.013  0.00  0.00    +0.000 A 
ATOM     18  C   UNL     1      10.115  12.863  19.252  0.00  0.00    +0.000 A 
ATOM     19  C   UNL     1       9.779  12.180  20.397  0.00  0.00    +0.000 A 
ATOM     20  C   UNL     1       9.343  10.866  20.367  0.00  0.00    +0.000 A 
ATOM     21  O   UNL     1       9.959  12.938  21.514  0.00  0.00    +0.000 OA
ATOM     22  C   UNL     1      10.531  14.135  20.941  0.00  0.00    +0.000 C 
ATOM     23  O   UNL     1      10.549  14.126  19.500  0.00  0.00    +0.000 OA
ENDBRANCH  13  15
ENDBRANCH  10  11
ENDBRANCH   9  10
ENDBRANCH   7   9
ENDBRANCH   1   7
BRANCH   1  24
ATOM     24  C   UNL     1       3.940   5.393  16.974  0.00  0.00    +0.000 C 
BRANCH  24  25
ATOM     25  C   UNL     1       3.741   4.197  17.863  0.00  0.00    +0.000 A 
ATOM     26  C   UNL     1       4.100   2.897  17.562  0.00  0.00    +0.000 A 
ATOM     27  N   UNL     1       3.873   2.121  18.664  0.00  0.00    +0.000 N 
ATOM     28  C   UNL     1       3.271   2.864  19.652  0.00  0.00    +0.000 A 
ATOM     29  C   UNL     1       2.830   2.478  20.923  0.00  0.00    +0.000 A 
ATOM     30  C   UNL     1       2.195   3.443  21.710  0.00  0.00    +0.000 A 
ATOM     31  C   UNL     1       2.020   4.743  21.245  0.00  0.00    +0.000 A 
ATOM     32  C   UNL     1       2.492   5.117  19.980  0.00  0.00    +0.000 A 
ATOM     33  C   UNL     1       3.137   4.164  19.164  0.00  0.00    +0.000 A 
ATOM     34  H   UNL     1       4.088   1.136  18.739  0.00  0.00    +0.000 HD
ENDBRANCH  24  25
ENDBRANCH   1  24
TORSDOF 8
ENDMDL
MODEL 7
REMARK VINA RESULT:      -8.4      1.694      2.402
REMARK  Name = 
REMARK  9 active torsions:
REMARK  status: ('A' for Active; 'I' for Inactive)
REMARK    1  A    between atoms: C_1  and  C_2
REMARK    2  A    between atoms: N_4  and  C_5
REMARK    3  A    between atoms: C_5  and  C_6
REMARK    4  A    between atoms: C_5  and  C_16
REMARK    5  A    between atoms: C_6  and  C_7
REMARK    6  A    between atoms: C_16  and  O_18
REMARK    7  A    between atoms: O_18  and  C_19
REMARK    8  A    between atoms: C_19  and  C_20
REMARK    9  A    between atoms: N_22  and  C_23
REMARK                            x       y       z     vdW  Elec       q    Type
REMARK                         _______ _______ _______ _____ _____    ______ ____
ROOT
ATOM      1  C   UNL     1       6.211   5.447  17.979  0.00  0.00    +0.000 C 
ENDROOT
BRANCH   1   5
ATOM      2  C   UNL     1       6.553   4.387  14.333  0.00  0.00    +0.000 C 
ATOM      3  C   UNL     1       6.132   5.252  15.491  0.00  0.00    +0.000 C 
ATOM      4  O   UNL     1       5.541   6.317  15.343  0.00  0.00    +0.000 OA
ATOM      5  N   UNL     1       6.493   4.754  16.713  0.00  0.00    +0.000 N 
ATOM      6  H   UNL     1       7.051   3.908  16.770  0.00  0.00    +0.000 HD
ENDBRANCH   1   5
BRANCH   1   7
ATOM      7  C   UNL     1       7.537   6.008  18.507  0.00  0.00    +0.000 C 
ATOM      8  O   UNL     1       8.331   5.382  19.206  0.00  0.00    +0.000 OA
BRANCH   7   9
ATOM      9  O   UNL     1       7.758   7.271  18.055  0.00  0.00    +0.000 OA
BRANCH   9  10
ATOM     10  C   UNL     1       8.650   8.045  18.860  0.00  0.00    +0.000 C 
BRANCH  10  11
ATOM     11  C   UNL     1       8.631   9.524  18.484  0.00  0.00    +0.000 C 
ATOM     12  O   UNL     1       7.831   9.926  17.636  0.00  0.00    +0.000 OA
ATOM     13  N   UNL     1       9.591  10.289  19.128  0.00  0.00    +0.000 N 
ATOM     14  H   UNL     1      10.321   9.775  19.624  0.00  0.00    +0.000 HD
BRANCH  13  15
ATOM     15  C   UNL     1       9.802  11.677  18.937  0.00  0.00    +0.000 A 
ATOM     16  C   UNL     1       9.153  12.657  19.717  0.00  0.00    +0.000 A 
ATOM     17  C   UNL     1       9.304  14.020  19.451  0.00  0.00    +0.000 A 
ATOM     18  C   UNL     1      10.112  14.379  18.399  0.00  0.00    +0.000 A 
ATOM     19  C   UNL     1      10.785  13.438  17.657  0.00  0.00    +0.000 A 
ATOM     20  C   UNL     1      10.670  12.082  17.913  0.00  0.00    +0.000 A 
ATOM     21  O   UNL     1      11.523  14.005  16.662  0.00  0.00    +0.000 OA
ATOM     22  C   UNL     1      11.159  15.395  16.813  0.00  0.00    +0.000 C 
ATOM     23  O   UNL     1      10.335  15.648  17.968  0.00  0.00    +0.000 OA
ENDBRANCH  13  15
ENDBRANCH  10  11
ENDBRANCH   9  10
ENDBRANCH   7   9
ENDBRANCH   1   7
BRANCH   1  24
ATOM     24  C   UNL     1       5.498   4.553  19.013  0.00  0.00    +0.000 C 
BRANCH  24  25
ATOM     25  C   UNL     1       4.001   4.548  18.881  0.00  0.00    +0.000 A 
ATOM     26  C   UNL     1       3.273   5.210  17.911  0.00  0.00    +0.000 A 
ATOM     27  N   UNL     1       1.957   4.864  18.048  0.00  0.00    +0.000 N 
ATOM     28  C   UNL     1       1.789   4.069  19.157  0.00  0.00    +0.000 A 
ATOM     29  C   UNL     1       0.622   3.516  19.696  0.00  0.00    +0.000 A 
ATOM     30  C   UNL     1       0.738   2.782  20.880  0.00  0.00    +0.000 A 
ATOM     31  C   UNL     1       1.976   2.601  21.489  0.00  0.00    +0.000 A 
ATOM     32  C   UNL     1       3.137   3.140  20.921  0.00  0.00    +0.000 A 
ATOM     33  C   UNL     1       3.050   3.886  19.726  0.00  0.00    +0.000 A 
ATOM     34  H   UNL     1       1.207   5.167  17.442  0.00  0.00    +0.000 HD
ENDBRANCH  24  25
ENDBRANCH   1  24
TORSDOF 8
ENDMDL
MODEL 8
REMARK VINA RESULT:      -8.4      1.849      2.955
REMARK  Name = 
REMARK  9 active torsions:
REMARK  status: ('A' for Active; 'I' for Inactive)
REMARK    1  A    between atoms: C_1  and  C_2
REMARK    2  A    between atoms: N_4  and  C_5
REMARK    3  A    between atoms: C_5  and  C_6
REMARK    4  A    between atoms: C_5  and  C_16
REMARK    5  A    between atoms: C_6  and  C_7
REMARK    6  A    between atoms: C_16  and  O_18
REMARK    7  A    between atoms: O_18  and  C_19
REMARK    8  A    between atoms: C_19  and  C_20
REMARK    9  A    between atoms: N_22  and  C_23
REMARK                            x       y       z     vdW  Elec       q    Type
REMARK                         _______ _______ _______ _____ _____    ______ ____
ROOT
ATOM      1  C   UNL     1       4.498   6.441  17.844  0.00  0.00    +0.000 C 
ENDROOT
BRANCH   1   5
ATOM      2  C   UNL     1       1.757   9.085  17.685  0.00  0.00    +0.000 C 
ATOM      3  C   UNL     1       2.568   7.964  18.278  0.00  0.00    +0.000 C 
ATOM      4  O   UNL     1       2.365   7.522  19.404  0.00  0.00    +0.000 OA
ATOM      5  N   UNL     1       3.564   7.509  17.458  0.00  0.00    +0.000 N 
ATOM      6  H   UNL     1       3.738   7.968  16.569  0.00  0.00    +0.000 HD
ENDBRANCH   1   5
BRANCH   1   7
ATOM      7  C   UNL     1       5.885   6.820  17.312  0.00  0.00    +0.000 C 
ATOM      8  O   UNL     1       6.165   6.951  16.122  0.00  0.00    +0.000 OA
BRANCH   7   9
ATOM      9  O   UNL     1       6.760   7.055  18.326  0.00  0.00    +0.000 OA
BRANCH   9  10
ATOM     10  C   UNL     1       8.053   7.497  17.908  0.00  0.00    +0.000 C 
BRANCH  10  11
ATOM     11  C   UNL     1       8.244   8.997  18.109  0.00  0.00    +0.000 C 
ATOM     12  O   UNL     1       7.602   9.790  17.416  0.00  0.00    +0.000 OA
ATOM     13  N   UNL     1       9.196   9.331  19.059  0.00  0.00    +0.000 N 
ATOM     14  H   UNL     1       9.799   8.571  19.381  0.00  0.00    +0.000 HD
BRANCH  13  15
ATOM     15  C   UNL     1       9.581  10.647  19.414  0.00  0.00    +0.000 A 
ATOM     16  C   UNL     1      10.539  11.380  18.683  0.00  0.00    +0.000 A 
ATOM     17  C   UNL     1      10.971  12.640  19.104  0.00  0.00    +0.000 A 
ATOM     18  C   UNL     1      10.429  13.147  20.260  0.00  0.00    +0.000 A 
ATOM     19  C   UNL     1       9.463  12.464  20.960  0.00  0.00    +0.000 A 
ATOM     20  C   UNL     1       9.001  11.224  20.554  0.00  0.00    +0.000 A 
ATOM     21  O   UNL     1       9.068  13.140  22.075  0.00  0.00    +0.000 OA
ATOM     22  C   UNL     1       9.962  14.274  22.037  0.00  0.00    +0.000 C 
ATOM     23  O   UNL     1      10.765  14.328  20.841  0.00  0.00    +0.000 OA
ENDBRANCH  13  15
ENDBRANCH  10  11
ENDBRANCH   9  10
ENDBRANCH   7   9
ENDBRANCH   1   7
BRANCH   1  24
ATOM     24  C   UNL     1       4.049   5.044  17.369  0.00  0.00    +0.000 C 
BRANCH  24  25
ATOM     25  C   UNL     1       4.028   4.011  18.460  0.00  0.00    +0.000 A 
ATOM     26  C   UNL     1       5.044   3.120  18.751  0.00  0.00    +0.000 A 
ATOM     27  N   UNL     1       4.703   2.431  19.882  0.00  0.00    +0.000 N 
ATOM     28  C   UNL     1       3.434   2.774  20.282  0.00  0.00    +0.000 A 
ATOM     29  C   UNL     1       2.672   2.299  21.356  0.00  0.00    +0.000 A 
ATOM     30  C   UNL     1       1.372   2.792  21.497  0.00  0.00    +0.000 A 
ATOM     31  C   UNL     1       0.863   3.732  20.605  0.00  0.00    +0.000 A 
ATOM     32  C   UNL     1       1.650   4.216  19.553  0.00  0.00    +0.000 A 
ATOM     33  C   UNL     1       2.966   3.736  19.385  0.00  0.00    +0.000 A 
ATOM     34  H   UNL     1       5.284   1.746  20.345  0.00  0.00    +0.000 HD
ENDBRANCH  24  25
ENDBRANCH   1  24
TORSDOF 8
ENDMDL
MODEL 9
REMARK VINA RESULT:      -8.4      1.396      2.062
REMARK  Name = 
REMARK  9 active torsions:
REMARK  status: ('A' for Active; 'I' for Inactive)
REMARK    1  A    between atoms: C_1  and  C_2
REMARK    2  A    between atoms: N_4  and  C_5
REMARK    3  A    between atoms: C_5  and  C_6
REMARK    4  A    between atoms: C_5  and  C_16
REMARK    5  A    between atoms: C_6  and  C_7
REMARK    6  A    between atoms: C_16  and  O_18
REMARK    7  A    between atoms: O_18  and  C_19
REMARK    8  A    between atoms: C_19  and  C_20
REMARK    9  A    between atoms: N_22  and  C_23
REMARK                            x       y       z     vdW  Elec       q    Type
REMARK                         _______ _______ _______ _____ _____    ______ ____
ROOT
ATOM      1  C   UNL     1       5.569   5.863  16.268  0.00  0.00    +0.000 C 
ENDROOT
BRANCH   1   5
ATOM      2  C   UNL     1       6.013   3.472  13.333  0.00  0.00    +0.000 C 
ATOM      3  C   UNL     1       6.304   4.664  14.206  0.00  0.00    +0.000 C 
ATOM      4  O   UNL     1       7.236   5.432  13.991  0.00  0.00    +0.000 OA
ATOM      5  N   UNL     1       5.452   4.791  15.269  0.00  0.00    +0.000 N 
ATOM      6  H   UNL     1       4.749   4.079  15.443  0.00  0.00    +0.000 HD
ENDBRANCH   1   5
BRANCH   1   7
ATOM      7  C   UNL     1       6.873   5.639  17.043  0.00  0.00    +0.000 C 
ATOM      8  O   UNL     1       7.124   4.637  17.710  0.00  0.00    +0.000 OA
BRANCH   7   9
ATOM      9  O   UNL     1       7.749   6.661  16.851  0.00  0.00    +0.000 OA
BRANCH   9  10
ATOM     10  C   UNL     1       7.272   7.941  17.269  0.00  0.00    +0.000 C 
BRANCH  10  11
ATOM     11  C   UNL     1       8.273   8.669  18.159  0.00  0.00    +0.000 C 
ATOM     12  O   UNL     1       8.843   8.053  19.064  0.00  0.00    +0.000 OA
ATOM     13  N   UNL     1       8.412  10.019  17.879  0.00  0.00    +0.000 N 
ATOM     14  H   UNL     1       7.712  10.427  17.258  0.00  0.00    +0.000 HD
BRANCH  13  15
ATOM     15  C   UNL     1       9.254  10.923  18.573  0.00  0.00    +0.000 A 
ATOM     16  C   UNL     1       9.464  10.846  19.966  0.00  0.00    +0.000 A 
ATOM     17  C   UNL     1      10.223  11.803  20.644  0.00  0.00    +0.000 A 
ATOM     18  C   UNL     1      10.764  12.828  19.907  0.00  0.00    +0.000 A 
ATOM     19  C   UNL     1      10.605  12.893  18.543  0.00  0.00    +0.000 A 
ATOM     20  C   UNL     1       9.875  11.947  17.843  0.00  0.00    +0.000 A 
ATOM     21  O   UNL     1      11.214  13.989  18.010  0.00  0.00    +0.000 OA
ATOM     22  C   UNL     1      11.690  14.643  19.207  0.00  0.00    +0.000 C 
ATOM     23  O   UNL     1      11.485  13.867  20.403  0.00  0.00    +0.000 OA
ENDBRANCH  13  15
ENDBRANCH  10  11
ENDBRANCH   9  10
ENDBRANCH   7   9
ENDBRANCH   1   7
BRANCH   1  24
ATOM     24  C   UNL     1       4.343   5.960  17.198  0.00  0.00    +0.000 C 
BRANCH  24  25
ATOM     25  C   UNL     1       3.782   4.626  17.603  0.00  0.00    +0.000 A 
ATOM     26  C   UNL     1       4.057   3.415  16.996  0.00  0.00    +0.000 A 
ATOM     27  N   UNL     1       3.461   2.423  17.723  0.00  0.00    +0.000 N 
ATOM     28  C   UNL     1       2.709   2.965  18.737  0.00  0.00    +0.000 A 
ATOM     29  C   UNL     1       1.908   2.334  19.697  0.00  0.00    +0.000 A 
ATOM     30  C   UNL     1       1.202   3.146  20.588  0.00  0.00    +0.000 A 
ATOM     31  C   UNL     1       1.305   4.533  20.527  0.00  0.00    +0.000 A 
ATOM     32  C   UNL     1       2.132   5.146  19.577  0.00  0.00    +0.000 A 
ATOM     33  C   UNL     1       2.857   4.350  18.664  0.00  0.00    +0.000 A 
ATOM     34  H   UNL     1       3.535   1.433  17.531  0.00  0.00    +0.000 HD
ENDBRANCH  24  25
ENDBRANCH   1  24
TORSDOF 8
ENDMDL
