MODEL 1
REMARK VINA RESULT:      -8.9      0.000      0.000
REMARK  Name = 
REMARK  5 active torsions:
REMARK  status: ('A' for Active; 'I' for Inactive)
REMARK    1  A    between atoms: C_1  and  C_9
REMARK    2  A    between atoms: C_2  and  C_3
REMARK    3  A    between atoms: C_9  and  C_22
REMARK    4  A    between atoms: N_10  and  N_11
REMARK    5  A    between atoms: N_11  and  C_12
REMARK                            x       y       z     vdW  Elec       q    Type
REMARK                         _______ _______ _______ _____ _____    ______ ____
ROOT
ATOM      1  C   UNL     1       2.539   7.158  18.668  0.00  0.00    +0.000 C 
ATOM      2  N   UNL     1       3.289   7.769  17.782  0.00  0.00    +0.000 NA
ENDROOT
BRANCH   1   3
ATOM      3  C   UNL     1       2.458   5.654  18.822  0.00  0.00    +0.000 A 
ATOM      4  C   UNL     1       1.878   4.821  17.858  0.00  0.00    +0.000 A 
ATOM      5  C   UNL     1       1.941   3.427  17.996  0.00  0.00    +0.000 A 
ATOM      6  C   UNL     1       2.536   2.857  19.121  0.00  0.00    +0.000 A 
ATOM      7  C   UNL     1       3.085   3.675  20.100  0.00  0.00    +0.000 A 
ATOM      8  C   UNL     1       3.065   5.060  19.940  0.00  0.00    +0.000 A 
ENDBRANCH   1   3
BRANCH   1   9
ATOM      9  C   UNL     1       1.755   7.915  19.765  0.00  0.00    +0.000 C 
ATOM     10  C   UNL     1       1.199   9.146  19.783  0.00  0.00    +0.000 C 
BRANCH  10  11
ATOM     11  C   UNL     1       0.408   9.715  20.934  0.00  0.00    +0.000 A 
ATOM     12  C   UNL     1       0.363   9.143  22.217  0.00  0.00    +0.000 A 
ATOM     13  C   UNL     1      -0.363   9.724  23.263  0.00  0.00    +0.000 A 
ATOM     14  C   UNL     1      -1.093  10.885  23.054  0.00  0.00    +0.000 A 
ATOM     15  C   UNL     1      -1.074  11.503  21.812  0.00  0.00    +0.000 A 
ATOM     16  C   UNL     1      -0.340  10.899  20.764  0.00  0.00    +0.000 A 
ENDBRANCH  10  11
ENDBRANCH   1   9
BRANCH   2  17
ATOM     17  N   UNL     1       3.791   7.030  16.703  0.00  0.00    +0.000 N 
ATOM     18  H   UNL     1       3.489   7.531  15.851  0.00  0.00    +0.000 HD
BRANCH  17  19
ATOM     19  C   UNL     1       5.237   6.998  16.315  0.00  0.00    +0.000 A 
ATOM     20  N   UNL     1       5.399   6.111  15.317  0.00  0.00    +0.000 NA
ATOM     21  N   UNL     1       5.628   4.801  15.651  0.00  0.00    +0.000 NA
ATOM     22  C   UNL     1       5.817   4.475  16.960  0.00  0.00    +0.000 A 
ATOM     23  C   UNL     1       6.010   5.442  17.932  0.00  0.00    +0.000 A 
ATOM     24  C   UNL     1       6.572   5.110  19.168  0.00  0.00    +0.000 A 
ATOM     25  C   UNL     1       7.738   5.778  19.525  0.00  0.00    +0.000 A 
ATOM     26  C   UNL     1       8.234   6.739  18.649  0.00  0.00    +0.000 A 
ATOM     27  C   UNL     1       7.411   7.240  17.627  0.00  0.00    +0.000 A 
ATOM     28  C   UNL     1       6.118   6.709  17.394  0.00  0.00    +0.000 A 
ENDBRANCH  17  19
ENDBRANCH   2  17
TORSDOF 5
ENDMDL
MODEL 2
REMARK VINA RESULT:      -8.8      3.978      6.954
REMARK  Name = 
REMARK  5 active torsions:
REMARK  status: ('A' for Active; 'I' for Inactive)
REMARK    1  A    between atoms: C_1  and  C_9
REMARK    2  A    between atoms: C_2  and  C_3
REMARK    3  A    between atoms: C_9  and  C_22
REMARK    4  A    between atoms: N_10  and  N_11
REMARK    5  A    between atoms: N_11  and  C_12
REMARK                            x       y       z     vdW  Elec       q    Type
REMARK                         _______ _______ _______ _____ _____    ______ ____
ROOT
ATOM      1  C   UNL     1       7.067   5.931  18.573  0.00  0.00    +0.000 C 
ATOM      2  N   UNL     1       6.642   5.224  19.594  0.00  0.00    +0.000 NA
ENDROOT
BRANCH   1   3
ATOM      3  C   UNL     1       6.672   5.669  17.135  0.00  0.00    +0.000 A 
ATOM      4  C   UNL     1       7.355   4.765  16.312  0.00  0.00    +0.000 A 
ATOM      5  C   UNL     1       6.871   4.472  15.029  0.00  0.00    +0.000 A 
ATOM      6  C   UNL     1       5.736   5.116  14.540  0.00  0.00    +0.000 A 
ATOM      7  C   UNL     1       5.070   6.039  15.336  0.00  0.00    +0.000 A 
ATOM      8  C   UNL     1       5.522   6.296  16.629  0.00  0.00    +0.000 A 
ENDBRANCH   1   3
BRANCH   1   9
ATOM      9  C   UNL     1       7.911   7.216  18.738  0.00  0.00    +0.000 C 
ATOM     10  C   UNL     1       7.927   8.374  18.043  0.00  0.00    +0.000 C 
BRANCH  10  11
ATOM     11  C   UNL     1       8.787   9.566  18.379  0.00  0.00    +0.000 A 
ATOM     12  C   UNL     1       9.235  10.505  17.434  0.00  0.00    +0.000 A 
ATOM     13  C   UNL     1      10.008  11.614  17.798  0.00  0.00    +0.000 A 
ATOM     14  C   UNL     1      10.382  11.808  19.120  0.00  0.00    +0.000 A 
ATOM     15  C   UNL     1       9.956  10.922  20.099  0.00  0.00    +0.000 A 
ATOM     16  C   UNL     1       9.181   9.803  19.713  0.00  0.00    +0.000 A 
ENDBRANCH  10  11
ENDBRANCH   1   9
BRANCH   2  17
ATOM     17  N   UNL     1       6.068   3.969  19.351  0.00  0.00    +0.000 N 
ATOM     18  H   UNL     1       6.664   3.284  19.844  0.00  0.00    +0.000 HD
BRANCH  17  19
ATOM     19  C   UNL     1       4.796   3.499  19.984  0.00  0.00    +0.000 A 
ATOM     20  N   UNL     1       4.852   2.162  20.128  0.00  0.00    +0.000 NA
ATOM     21  N   UNL     1       4.428   1.384  19.082  0.00  0.00    +0.000 NA
ATOM     22  C   UNL     1       3.847   1.982  18.005  0.00  0.00    +0.000 A 
ATOM     23  C   UNL     1       3.466   3.312  18.026  0.00  0.00    +0.000 A 
ATOM     24  C   UNL     1       2.549   3.808  17.096  0.00  0.00    +0.000 A 
ATOM     25  C   UNL     1       1.390   4.383  17.604  0.00  0.00    +0.000 A 
ATOM     26  C   UNL     1       1.247   4.450  18.987  0.00  0.00    +0.000 A 
ATOM     27  C   UNL     1       2.365   4.255  19.813  0.00  0.00    +0.000 A 
ATOM     28  C   UNL     1       3.622   3.880  19.276  0.00  0.00    +0.000 A 
ENDBRANCH  17  19
ENDBRANCH   2  17
TORSDOF 5
ENDMDL
MODEL 3
REMARK VINA RESULT:      -8.6      3.042      6.672
REMARK  Name = 
REMARK  5 active torsions:
REMARK  status: ('A' for Active; 'I' for Inactive)
REMARK    1  A    between atoms: C_1  and  C_9
REMARK    2  A    between atoms: C_2  and  C_3
REMARK    3  A    between atoms: C_9  and  C_22
REMARK    4  A    between atoms: N_10  and  N_11
REMARK    5  A    between atoms: N_11  and  C_12
REMARK                            x       y       z     vdW  Elec       q    Type
REMARK                         _______ _______ _______ _____ _____    ______ ____
ROOT
ATOM      1  C   UNL     1       6.927   5.883  18.278  0.00  0.00    +0.000 C 
ATOM      2  N   UNL     1       6.463   5.178  19.282  0.00  0.00    +0.000 NA
ENDROOT
BRANCH   1   3
ATOM      3  C   UNL     1       6.629   5.589  16.823  0.00  0.00    +0.000 A 
ATOM      4  C   UNL     1       7.312   4.611  16.089  0.00  0.00    +0.000 A 
ATOM      5  C   UNL     1       6.911   4.298  14.783  0.00  0.00    +0.000 A 
ATOM      6  C   UNL     1       5.861   4.993  14.183  0.00  0.00    +0.000 A 
ATOM      7  C   UNL     1       5.199   5.987  14.890  0.00  0.00    +0.000 A 
ATOM      8  C   UNL     1       5.566   6.266  16.206  0.00  0.00    +0.000 A 
ENDBRANCH   1   3
BRANCH   1   9
ATOM      9  C   UNL     1       7.721   7.195  18.473  0.00  0.00    +0.000 C 
ATOM     10  C   UNL     1       7.616   8.404  17.879  0.00  0.00    +0.000 C 
BRANCH  10  11
ATOM     11  C   UNL     1       8.445   9.612  18.235  0.00  0.00    +0.000 A 
ATOM     12  C   UNL     1       9.371   9.647  19.292  0.00  0.00    +0.000 A 
ATOM     13  C   UNL     1      10.141  10.782  19.567  0.00  0.00    +0.000 A 
ATOM     14  C   UNL     1       9.992  11.935  18.809  0.00  0.00    +0.000 A 
ATOM     15  C   UNL     1       9.104  11.954  17.742  0.00  0.00    +0.000 A 
ATOM     16  C   UNL     1       8.330  10.799  17.482  0.00  0.00    +0.000 A 
ENDBRANCH  10  11
ENDBRANCH   1   9
BRANCH   2  17
ATOM     17  N   UNL     1       5.943   3.902  19.025  0.00  0.00    +0.000 N 
ATOM     18  H   UNL     1       6.485   3.250  19.616  0.00  0.00    +0.000 HD
BRANCH  17  19
ATOM     19  C   UNL     1       4.611   3.431  19.519  0.00  0.00    +0.000 A 
ATOM     20  N   UNL     1       4.130   2.513  18.660  0.00  0.00    +0.000 NA
ATOM     21  N   UNL     1       3.395   2.956  17.590  0.00  0.00    +0.000 NA
ATOM     22  C   UNL     1       3.067   4.275  17.513  0.00  0.00    +0.000 A 
ATOM     23  C   UNL     1       3.253   5.137  18.580  0.00  0.00    +0.000 A 
ATOM     24  C   UNL     1       2.582   6.362  18.635  0.00  0.00    +0.000 A 
ATOM     25  C   UNL     1       1.769   6.581  19.742  0.00  0.00    +0.000 A 
ATOM     26  C   UNL     1       1.711   5.588  20.716  0.00  0.00    +0.000 A 
ATOM     27  C   UNL     1       2.684   4.576  20.737  0.00  0.00    +0.000 A 
ATOM     28  C   UNL     1       3.666   4.476  19.720  0.00  0.00    +0.000 A 
ENDBRANCH  17  19
ENDBRANCH   2  17
TORSDOF 5
ENDMDL
MODEL 4
REMARK VINA RESULT:      -8.5      1.735      2.958
REMARK  Name = 
REMARK  5 active torsions:
REMARK  status: ('A' for Active; 'I' for Inactive)
REMARK    1  A    between atoms: C_1  and  C_9
REMARK    2  A    between atoms: C_2  and  C_3
REMARK    3  A    between atoms: C_9  and  C_22
REMARK    4  A    between atoms: N_10  and  N_11
REMARK    5  A    between atoms: N_11  and  C_12
REMARK                            x       y       z     vdW  Elec       q    Type
REMARK                         _______ _______ _______ _____ _____    ______ ____
ROOT
ATOM      1  C   UNL     1       2.308   6.904  19.708  0.00  0.00    +0.000 C 
ATOM      2  N   UNL     1       3.251   7.244  18.862  0.00  0.00    +0.000 NA
ENDROOT
BRANCH   1   3
ATOM      3  C   UNL     1       1.997   5.476  20.105  0.00  0.00    +0.000 A 
ATOM      4  C   UNL     1       2.454   4.902  21.298  0.00  0.00    +0.000 A 
ATOM      5  C   UNL     1       2.034   3.618  21.671  0.00  0.00    +0.000 A 
ATOM      6  C   UNL     1       1.198   2.879  20.835  0.00  0.00    +0.000 A 
ATOM      7  C   UNL     1       0.766   3.426  19.634  0.00  0.00    +0.000 A 
ATOM      8  C   UNL     1       1.145   4.721  19.284  0.00  0.00    +0.000 A 
ENDBRANCH   1   3
BRANCH   1   9
ATOM      9  C   UNL     1       1.495   7.940  20.516  0.00  0.00    +0.000 C 
ATOM     10  C   UNL     1       0.889   9.091  20.148  0.00  0.00    +0.000 C 
BRANCH  10  11
ATOM     11  C   UNL     1       0.076   9.966  21.067  0.00  0.00    +0.000 A 
ATOM     12  C   UNL     1      -0.471  11.205  20.694  0.00  0.00    +0.000 A 
ATOM     13  C   UNL     1      -1.245  11.971  21.573  0.00  0.00    +0.000 A 
ATOM     14  C   UNL     1      -1.478  11.533  22.870  0.00  0.00    +0.000 A 
ATOM     15  C   UNL     1      -0.976  10.310  23.289  0.00  0.00    +0.000 A 
ATOM     16  C   UNL     1      -0.190   9.552  22.390  0.00  0.00    +0.000 A 
ENDBRANCH  10  11
ENDBRANCH   1   9
BRANCH   2  17
ATOM     17  N   UNL     1       3.789   6.260  18.021  0.00  0.00    +0.000 N 
ATOM     18  H   UNL     1       4.359   6.765  17.322  0.00  0.00    +0.000 HD
BRANCH  17  19
ATOM     19  C   UNL     1       4.890   5.330  18.425  0.00  0.00    +0.000 A 
ATOM     20  N   UNL     1       5.882   5.414  17.520  0.00  0.00    +0.000 NA
ATOM     21  N   UNL     1       5.819   4.599  16.419  0.00  0.00    +0.000 NA
ATOM     22  C   UNL     1       4.841   3.653  16.351  0.00  0.00    +0.000 A 
ATOM     23  C   UNL     1       4.055   3.336  17.445  0.00  0.00    +0.000 A 
ATOM     24  C   UNL     1       3.339   2.136  17.486  0.00  0.00    +0.000 A 
ATOM     25  C   UNL     1       3.612   1.280  18.547  0.00  0.00    +0.000 A 
ATOM     26  C   UNL     1       4.544   1.692  19.495  0.00  0.00    +0.000 A 
ATOM     27  C   UNL     1       4.929   3.042  19.552  0.00  0.00    +0.000 A 
ATOM     28  C   UNL     1       4.473   3.980  18.593  0.00  0.00    +0.000 A 
ENDBRANCH  17  19
ENDBRANCH   2  17
TORSDOF 5
ENDMDL
MODEL 5
REMARK VINA RESULT:      -8.5      1.937      3.270
REMARK  Name = 
REMARK  5 active torsions:
REMARK  status: ('A' for Active; 'I' for Inactive)
REMARK    1  A    between atoms: C_1  and  C_9
REMARK    2  A    between atoms: C_2  and  C_3
REMARK    3  A    between atoms: C_9  and  C_22
REMARK    4  A    between atoms: N_10  and  N_11
REMARK    5  A    between atoms: N_11  and  C_12
REMARK                            x       y       z     vdW  Elec       q    Type
REMARK                         _______ _______ _______ _____ _____    ______ ____
ROOT
ATOM      1  C   UNL     1       3.807   5.475  19.492  0.00  0.00    +0.000 C 
ATOM      2  N   UNL     1       5.103   5.538  19.681  0.00  0.00    +0.000 NA
ENDROOT
BRANCH   1   3
ATOM      3  C   UNL     1       3.043   4.188  19.261  0.00  0.00    +0.000 A 
ATOM      4  C   UNL     1       2.322   3.540  20.272  0.00  0.00    +0.000 A 
ATOM      5  C   UNL     1       1.534   2.420  19.972  0.00  0.00    +0.000 A 
ATOM      6  C   UNL     1       1.500   1.909  18.675  0.00  0.00    +0.000 A 
ATOM      7  C   UNL     1       2.237   2.525  17.672  0.00  0.00    +0.000 A 
ATOM      8  C   UNL     1       2.984   3.667  17.959  0.00  0.00    +0.000 A 
ENDBRANCH   1   3
BRANCH   1   9
ATOM      9  C   UNL     1       2.880   6.705  19.631  0.00  0.00    +0.000 C 
ATOM     10  C   UNL     1       2.433   7.599  18.721  0.00  0.00    +0.000 C 
BRANCH  10  11
ATOM     11  C   UNL     1       1.473   8.722  19.021  0.00  0.00    +0.000 A 
ATOM     12  C   UNL     1       0.930   9.574  18.044  0.00  0.00    +0.000 A 
ATOM     13  C   UNL     1       0.018  10.586  18.365  0.00  0.00    +0.000 A 
ATOM     14  C   UNL     1      -0.363  10.798  19.683  0.00  0.00    +0.000 A 
ATOM     15  C   UNL     1       0.129   9.977  20.688  0.00  0.00    +0.000 A 
ATOM     16  C   UNL     1       1.055   8.964  20.346  0.00  0.00    +0.000 A 
ENDBRANCH  10  11
ENDBRANCH   1   9
BRANCH   2  17
ATOM     17  N   UNL     1       5.889   4.432  19.331  0.00  0.00    +0.000 N 
ATOM     18  H   UNL     1       5.280   3.819  18.765  0.00  0.00    +0.000 HD
BRANCH  17  19
ATOM     19  C   UNL     1       6.989   4.479  18.316  0.00  0.00    +0.000 A 
ATOM     20  N   UNL     1       7.863   5.439  18.668  0.00  0.00    +0.000 NA
ATOM     21  N   UNL     1       7.626   6.716  18.230  0.00  0.00    +0.000 NA
ATOM     22  C   UNL     1       6.606   6.937  17.355  0.00  0.00    +0.000 A 
ATOM     23  C   UNL     1       5.949   5.897  16.722  0.00  0.00    +0.000 A 
ATOM     24  C   UNL     1       5.191   6.126  15.570  0.00  0.00    +0.000 A 
ATOM     25  C   UNL     1       5.555   5.419  14.430  0.00  0.00    +0.000 A 
ATOM     26  C   UNL     1       6.616   4.524  14.528  0.00  0.00    +0.000 A 
ATOM     27  C   UNL     1       7.065   4.112  15.793  0.00  0.00    +0.000 A 
ATOM     28  C   UNL     1       6.536   4.674  16.982  0.00  0.00    +0.000 A 
ENDBRANCH  17  19
ENDBRANCH   2  17
TORSDOF 5
ENDMDL
MODEL 6
REMARK VINA RESULT:      -8.4      1.654      2.777
REMARK  Name = 
REMARK  5 active torsions:
REMARK  status: ('A' for Active; 'I' for Inactive)
REMARK    1  A    between atoms: C_1  and  C_9
REMARK    2  A    between atoms: C_2  and  C_3
REMARK    3  A    between atoms: C_9  and  C_22
REMARK    4  A    between atoms: N_10  and  N_11
REMARK    5  A    between atoms: N_11  and  C_12
REMARK                            x       y       z     vdW  Elec       q    Type
REMARK                         _______ _______ _______ _____ _____    ______ ____
ROOT
ATOM      1  C   UNL     1       2.430   7.034  19.253  0.00  0.00    +0.000 C 
ATOM      2  N   UNL     1       3.421   7.293  18.433  0.00  0.00    +0.000 NA
ENDROOT
BRANCH   1   3
ATOM      3  C   UNL     1       2.078   5.648  19.751  0.00  0.00    +0.000 A 
ATOM      4  C   UNL     1       2.465   5.173  21.010  0.00  0.00    +0.000 A 
ATOM      5  C   UNL     1       2.007   3.929  21.467  0.00  0.00    +0.000 A 
ATOM      6  C   UNL     1       1.205   3.130  20.653  0.00  0.00    +0.000 A 
ATOM      7  C   UNL     1       0.843   3.578  19.389  0.00  0.00    +0.000 A 
ATOM      8  C   UNL     1       1.259   4.835  18.953  0.00  0.00    +0.000 A 
ENDBRANCH   1   3
BRANCH   1   9
ATOM      9  C   UNL     1       1.590   8.144  19.927  0.00  0.00    +0.000 C 
ATOM     10  C   UNL     1       1.142   8.285  21.194  0.00  0.00    +0.000 C 
BRANCH  10  11
ATOM     11  C   UNL     1       0.372   9.476  21.704  0.00  0.00    +0.000 A 
ATOM     12  C   UNL     1      -0.472   9.445  22.828  0.00  0.00    +0.000 A 
ATOM     13  C   UNL     1      -1.144  10.585  23.283  0.00  0.00    +0.000 A 
ATOM     14  C   UNL     1      -1.017  11.793  22.612  0.00  0.00    +0.000 A 
ATOM     15  C   UNL     1      -0.185  11.888  21.505  0.00  0.00    +0.000 A 
ATOM     16  C   UNL     1       0.482  10.724  21.055  0.00  0.00    +0.000 A 
ENDBRANCH  10  11
ENDBRANCH   1   9
BRANCH   2  17
ATOM     17  N   UNL     1       3.988   6.236  17.708  0.00  0.00    +0.000 N 
ATOM     18  H   UNL     1       4.615   6.674  17.013  0.00  0.00    +0.000 HD
BRANCH  17  19
ATOM     19  C   UNL     1       5.037   5.320  18.255  0.00  0.00    +0.000 A 
ATOM     20  N   UNL     1       6.090   5.315  17.416  0.00  0.00    +0.000 NA
ATOM     21  N   UNL     1       6.080   4.420  16.378  0.00  0.00    +0.000 NA
ATOM     22  C   UNL     1       5.088   3.490  16.315  0.00  0.00    +0.000 A 
ATOM     23  C   UNL     1       4.223   3.272  17.374  0.00  0.00    +0.000 A 
ATOM     24  C   UNL     1       3.478   2.092  17.456  0.00  0.00    +0.000 A 
ATOM     25  C   UNL     1       3.660   1.315  18.595  0.00  0.00    +0.000 A 
ATOM     26  C   UNL     1       4.537   1.782  19.570  0.00  0.00    +0.000 A 
ATOM     27  C   UNL     1       4.948   3.124  19.552  0.00  0.00    +0.000 A 
ATOM     28  C   UNL     1       4.579   3.994  18.495  0.00  0.00    +0.000 A 
ENDBRANCH  17  19
ENDBRANCH   2  17
TORSDOF 5
ENDMDL
MODEL 7
REMARK VINA RESULT:      -8.4      1.945      3.075
REMARK  Name = 
REMARK  5 active torsions:
REMARK  status: ('A' for Active; 'I' for Inactive)
REMARK    1  A    between atoms: C_1  and  C_9
REMARK    2  A    between atoms: C_2  and  C_3
REMARK    3  A    between atoms: C_9  and  C_22
REMARK    4  A    between atoms: N_10  and  N_11
REMARK    5  A    between atoms: N_11  and  C_12
REMARK                            x       y       z     vdW  Elec       q    Type
REMARK                         _______ _______ _______ _____ _____    ______ ____
ROOT
ATOM      1  C   UNL     1       3.739   5.444  19.447  0.00  0.00    +0.000 C 
ATOM      2  N   UNL     1       5.029   5.474  19.687  0.00  0.00    +0.000 NA
ENDROOT
BRANCH   1   3
ATOM      3  C   UNL     1       2.966   4.186  19.112  0.00  0.00    +0.000 A 
ATOM      4  C   UNL     1       3.015   3.576  17.852  0.00  0.00    +0.000 A 
ATOM      5  C   UNL     1       2.376   2.347  17.636  0.00  0.00    +0.000 A 
ATOM      6  C   UNL     1       1.644   1.744  18.658  0.00  0.00    +0.000 A 
ATOM      7  C   UNL     1       1.561   2.357  19.901  0.00  0.00    +0.000 A 
ATOM      8  C   UNL     1       2.235   3.555  20.131  0.00  0.00    +0.000 A 
ENDBRANCH   1   3
BRANCH   1   9
ATOM      9  C   UNL     1       2.826   6.679  19.624  0.00  0.00    +0.000 C 
ATOM     10  C   UNL     1       2.419   7.626  18.750  0.00  0.00    +0.000 C 
BRANCH  10  11
ATOM     11  C   UNL     1       1.466   8.746  19.081  0.00  0.00    +0.000 A 
ATOM     12  C   UNL     1       1.060   9.075  20.385  0.00  0.00    +0.000 A 
ATOM     13  C   UNL     1       0.194  10.144  20.646  0.00  0.00    +0.000 A 
ATOM     14  C   UNL     1      -0.317  10.907  19.606  0.00  0.00    +0.000 A 
ATOM     15  C   UNL     1       0.061  10.638  18.298  0.00  0.00    +0.000 A 
ATOM     16  C   UNL     1       0.931   9.550  18.052  0.00  0.00    +0.000 A 
ENDBRANCH  10  11
ENDBRANCH   1   9
BRANCH   2  17
ATOM     17  N   UNL     1       5.811   4.378  19.302  0.00  0.00    +0.000 N 
ATOM     18  H   UNL     1       5.210   3.801  18.689  0.00  0.00    +0.000 HD
BRANCH  17  19
ATOM     19  C   UNL     1       6.937   4.462  18.319  0.00  0.00    +0.000 A 
ATOM     20  N   UNL     1       7.776   5.441  18.704  0.00  0.00    +0.000 NA
ATOM     21  N   UNL     1       7.518   6.716  18.270  0.00  0.00    +0.000 NA
ATOM     22  C   UNL     1       6.518   6.918  17.368  0.00  0.00    +0.000 A 
ATOM     23  C   UNL     1       5.907   5.867  16.707  0.00  0.00    +0.000 A 
ATOM     24  C   UNL     1       5.176   6.086  15.537  0.00  0.00    +0.000 A 
ATOM     25  C   UNL     1       5.592   5.400  14.401  0.00  0.00    +0.000 A 
ATOM     26  C   UNL     1       6.672   4.531  14.522  0.00  0.00    +0.000 A 
ATOM     27  C   UNL     1       7.096   4.120  15.796  0.00  0.00    +0.000 A 
ATOM     28  C   UNL     1       6.518   4.657  16.974  0.00  0.00    +0.000 A 
ENDBRANCH  17  19
ENDBRANCH   2  17
TORSDOF 5
ENDMDL
MODEL 8
REMARK VINA RESULT:      -8.3      1.820      3.049
REMARK  Name = 
REMARK  5 active torsions:
REMARK  status: ('A' for Active; 'I' for Inactive)
REMARK    1  A    between atoms: C_1  and  C_9
REMARK    2  A    between atoms: C_2  and  C_3
REMARK    3  A    between atoms: C_9  and  C_22
REMARK    4  A    between atoms: N_10  and  N_11
REMARK    5  A    between atoms: N_11  and  C_12
REMARK                            x       y       z     vdW  Elec       q    Type
REMARK                         _______ _______ _______ _____ _____    ______ ____
ROOT
ATOM      1  C   UNL     1       3.577   5.632  19.382  0.00  0.00    +0.000 C 
ATOM      2  N   UNL     1       4.868   5.695  19.606  0.00  0.00    +0.000 NA
ENDROOT
BRANCH   1   3
ATOM      3  C   UNL     1       2.796   4.340  19.262  0.00  0.00    +0.000 A 
ATOM      4  C   UNL     1       1.985   3.843  20.291  0.00  0.00    +0.000 A 
ATOM      5  C   UNL     1       1.191   2.708  20.079  0.00  0.00    +0.000 A 
ATOM      6  C   UNL     1       1.238   2.031  18.860  0.00  0.00    +0.000 A 
ATOM      7  C   UNL     1       2.064   2.497  17.845  0.00  0.00    +0.000 A 
ATOM      8  C   UNL     1       2.818   3.653  18.038  0.00  0.00    +0.000 A 
ENDBRANCH   1   3
BRANCH   1   9
ATOM      9  C   UNL     1       2.669   6.883  19.361  0.00  0.00    +0.000 C 
ATOM     10  C   UNL     1       1.958   7.493  20.335  0.00  0.00    +0.000 C 
BRANCH  10  11
ATOM     11  C   UNL     1       1.160   8.758  20.151  0.00  0.00    +0.000 A 
ATOM     12  C   UNL     1       0.330   9.315  21.139  0.00  0.00    +0.000 A 
ATOM     13  C   UNL     1      -0.371  10.510  20.934  0.00  0.00    +0.000 A 
ATOM     14  C   UNL     1      -0.285  11.177  19.720  0.00  0.00    +0.000 A 
ATOM     15  C   UNL     1       0.531  10.682  18.713  0.00  0.00    +0.000 A 
ATOM     16  C   UNL     1       1.227   9.470  18.935  0.00  0.00    +0.000 A 
ENDBRANCH  10  11
ENDBRANCH   1   9
BRANCH   2  17
ATOM     17  N   UNL     1       5.643   4.546  19.400  0.00  0.00    +0.000 N 
ATOM     18  H   UNL     1       5.044   3.890  18.871  0.00  0.00    +0.000 HD
BRANCH  17  19
ATOM     19  C   UNL     1       6.783   4.472  18.433  0.00  0.00    +0.000 A 
ATOM     20  N   UNL     1       7.714   5.376  18.791  0.00  0.00    +0.000 NA
ATOM     21  N   UNL     1       7.594   6.651  18.301  0.00  0.00    +0.000 NA
ATOM     22  C   UNL     1       6.631   6.917  17.376  0.00  0.00    +0.000 A 
ATOM     23  C   UNL     1       5.922   5.907  16.749  0.00  0.00    +0.000 A 
ATOM     24  C   UNL     1       5.232   6.150  15.559  0.00  0.00    +0.000 A 
ATOM     25  C   UNL     1       5.587   5.378  14.459  0.00  0.00    +0.000 A 
ATOM     26  C   UNL     1       6.571   4.409  14.632  0.00  0.00    +0.000 A 
ATOM     27  C   UNL     1       6.935   4.011  15.929  0.00  0.00    +0.000 A 
ATOM     28  C   UNL     1       6.402   4.653  17.074  0.00  0.00    +0.000 A 
ENDBRANCH  17  19
ENDBRANCH   2  17
TORSDOF 5
ENDMDL
MODEL 9
REMARK VINA RESULT:      -8.3      6.572     10.188
REMARK  Name = 
REMARK  5 active torsions:
REMARK  status: ('A' for Active; 'I' for Inactive)
REMARK    1  A    between atoms: C_1  and  C_9
REMARK    2  A    between atoms: C_2  and  C_3
REMARK    3  A    between atoms: C_9  and  C_22
REMARK    4  A    between atoms: N_10  and  N_11
REMARK    5  A    between atoms: N_11  and  C_12
REMARK                            x       y       z     vdW  Elec       q    Type
REMARK                         _______ _______ _______ _____ _____    ______ ____
ROOT
ATOM      1  C   UNL     1       8.676  11.273  17.746  0.00  0.00    +0.000 C 
ATOM      2  N   UNL     1       7.814  12.219  17.460  0.00  0.00    +0.000 NA
ENDROOT
BRANCH   1   3
ATOM      3  C   UNL     1       9.992  11.507  18.459  0.00  0.00    +0.000 A 
ATOM      4  C   UNL     1      11.173  11.838  17.784  0.00  0.00    +0.000 A 
ATOM      5  C   UNL     1      12.331  12.164  18.504  0.00  0.00    +0.000 A 
ATOM      6  C   UNL     1      12.333  12.111  19.897  0.00  0.00    +0.000 A 
ATOM      7  C   UNL     1      11.176  11.751  20.575  0.00  0.00    +0.000 A 
ATOM      8  C   UNL     1      10.011  11.473  19.862  0.00  0.00    +0.000 A 
ENDBRANCH   1   3
BRANCH   1   9
ATOM      9  C   UNL     1       8.378   9.773  17.518  0.00  0.00    +0.000 C 
ATOM     10  C   UNL     1       8.115   8.768  18.382  0.00  0.00    +0.000 C 
BRANCH  10  11
ATOM     11  C   UNL     1       7.785   7.353  17.980  0.00  0.00    +0.000 A 
ATOM     12  C   UNL     1       7.240   6.996  16.735  0.00  0.00    +0.000 A 
ATOM     13  C   UNL     1       6.977   5.664  16.394  0.00  0.00    +0.000 A 
ATOM     14  C   UNL     1       7.226   4.643  17.301  0.00  0.00    +0.000 A 
ATOM     15  C   UNL     1       7.779   4.935  18.540  0.00  0.00    +0.000 A 
ATOM     16  C   UNL     1       8.032   6.286  18.870  0.00  0.00    +0.000 A 
ENDBRANCH  10  11
ENDBRANCH   1   9
BRANCH   2  17
ATOM     17  N   UNL     1       8.242  13.553  17.501  0.00  0.00    +0.000 N 
ATOM     18  H   UNL     1       7.625  14.069  16.852  0.00  0.00    +0.000 HD
BRANCH  17  19
ATOM     19  C   UNL     1       7.995  14.473  18.656  0.00  0.00    +0.000 A 
ATOM     20  N   UNL     1       7.395  15.589  18.202  0.00  0.00    +0.000 NA
ATOM     21  N   UNL     1       8.193  16.615  17.766  0.00  0.00    +0.000 NA
ATOM     22  C   UNL     1       9.541  16.523  17.933  0.00  0.00    +0.000 A 
ATOM     23  C   UNL     1      10.113  15.542  18.725  0.00  0.00    +0.000 A 
ATOM     24  C   UNL     1      11.422  15.677  19.196  0.00  0.00    +0.000 A 
ATOM     25  C   UNL     1      11.597  15.651  20.575  0.00  0.00    +0.000 A 
ATOM     26  C   UNL     1      10.472  15.462  21.373  0.00  0.00    +0.000 A 
ATOM     27  C   UNL     1       9.283  14.986  20.797  0.00  0.00    +0.000 A 
ATOM     28  C   UNL     1       9.165  14.796  19.398  0.00  0.00    +0.000 A 
ENDBRANCH  17  19
ENDBRANCH   2  17
TORSDOF 5
ENDMDL
