MODEL 1
REMARK VINA RESULT:      -8.0      0.000      0.000
REMARK  Name = 
REMARK  1 active torsions:
REMARK  status: ('A' for Active; 'I' for Inactive)
REMARK    1  A    between atoms: N_13  and  C_14
REMARK                            x       y       z     vdW  Elec       q    Type
REMARK                         _______ _______ _______ _____ _____    ______ ____
ROOT
ATOM      1  O   UNL     1       3.669   1.901  17.288  0.00  0.00    +0.000 OA
ATOM      2  C   UNL     1       3.218   3.014  17.520  0.00  0.00    +0.000 C 
ATOM      3  C   UNL     1       1.933   3.181  18.270  0.00  0.00    +0.000 C 
ATOM      4  C   UNL     1       1.607   2.136  19.717  0.00  0.00    +0.000 C 
ATOM      5  C   UNL     1       1.699   2.486  21.496  0.00  0.00    +0.000 C 
ATOM      6  C   UNL     1       1.874   3.886  21.890  0.00  0.00    +0.000 C 
ATOM      7  C   UNL     1       2.229   5.079  20.575  0.00  0.00    +0.000 C 
ATOM      8  C   UNL     1       2.830   3.860  20.234  0.00  0.00    +0.000 C 
ATOM      9  C   UNL     1       0.967   3.372  19.951  0.00  0.00    +0.000 C 
ATOM     10  C   UNL     1       2.002   4.945  18.764  0.00  0.00    +0.000 C 
ATOM     11  C   UNL     1       3.141   5.392  17.860  0.00  0.00    +0.000 C 
ATOM     12  O   UNL     1       3.414   6.584  17.770  0.00  0.00    +0.000 OA
ATOM     13  N   UNL     1       3.750   4.289  17.220  0.00  0.00    +0.000 N 
ENDROOT
BRANCH  13  14
ATOM     14  C   UNL     1       4.969   4.417  16.454  0.00  0.00    +0.000 A 
ATOM     15  C   UNL     1       6.213   4.599  17.085  0.00  0.00    +0.000 A 
ATOM     16  C   UNL     1       7.391   4.795  16.354  0.00  0.00    +0.000 A 
ATOM     17  C   UNL     1       7.359   4.795  14.967  0.00  0.00    +0.000 A 
ATOM     18  C   UNL     1       6.151   4.589  14.315  0.00  0.00    +0.000 A 
ATOM     19  C   UNL     1       4.973   4.402  15.049  0.00  0.00    +0.000 A 
ENDBRANCH  13  14
TORSDOF 1
ENDMDL
MODEL 2
REMARK VINA RESULT:      -8.0      0.070      1.100
REMARK  Name = 
REMARK  1 active torsions:
REMARK  status: ('A' for Active; 'I' for Inactive)
REMARK    1  A    between atoms: N_13  and  C_14
REMARK                            x       y       z     vdW  Elec       q    Type
REMARK                         _______ _______ _______ _____ _____    ______ ____
ROOT
ATOM      1  O   UNL     1       3.715   1.969  17.267  0.00  0.00    +0.000 OA
ATOM      2  C   UNL     1       3.235   3.067  17.513  0.00  0.00    +0.000 C 
ATOM      3  C   UNL     1       1.944   3.190  18.263  0.00  0.00    +0.000 C 
ATOM      4  C   UNL     1       1.642   2.117  19.694  0.00  0.00    +0.000 C 
ATOM      5  C   UNL     1       1.721   2.445  21.477  0.00  0.00    +0.000 C 
ATOM      6  C   UNL     1       1.858   3.844  21.891  0.00  0.00    +0.000 C 
ATOM      7  C   UNL     1       2.186   5.063  20.593  0.00  0.00    +0.000 C 
ATOM      8  C   UNL     1       2.819   3.865  20.238  0.00  0.00    +0.000 C 
ATOM      9  C   UNL     1       0.970   3.333  19.943  0.00  0.00    +0.000 C 
ATOM     10  C   UNL     1       1.967   4.948  18.781  0.00  0.00    +0.000 C 
ATOM     11  C   UNL     1       3.096   5.437  17.886  0.00  0.00    +0.000 C 
ATOM     12  O   UNL     1       3.339   6.637  17.813  0.00  0.00    +0.000 OA
ATOM     13  N   UNL     1       3.735   4.359  17.232  0.00  0.00    +0.000 N 
ENDROOT
BRANCH  13  14
ATOM     14  C   UNL     1       4.952   4.529  16.472  0.00  0.00    +0.000 A 
ATOM     15  C   UNL     1       4.938   4.553  15.066  0.00  0.00    +0.000 A 
ATOM     16  C   UNL     1       6.116   4.646  14.315  0.00  0.00    +0.000 A 
ATOM     17  C   UNL     1       7.344   4.736  14.955  0.00  0.00    +0.000 A 
ATOM     18  C   UNL     1       7.389   4.743  16.343  0.00  0.00    +0.000 A 
ATOM     19  C   UNL     1       6.208   4.641  17.090  0.00  0.00    +0.000 A 
ENDBRANCH  13  14
TORSDOF 1
ENDMDL
MODEL 3
REMARK VINA RESULT:      -7.9      1.842      2.304
REMARK  Name = 
REMARK  1 active torsions:
REMARK  status: ('A' for Active; 'I' for Inactive)
REMARK    1  A    between atoms: N_13  and  C_14
REMARK                            x       y       z     vdW  Elec       q    Type
REMARK                         _______ _______ _______ _____ _____    ______ ____
ROOT
ATOM      1  O   UNL     1       4.977   3.345  17.112  0.00  0.00    +0.000 OA
ATOM      2  C   UNL     1       4.157   4.188  17.448  0.00  0.00    +0.000 C 
ATOM      3  C   UNL     1       2.690   3.883  17.425  0.00  0.00    +0.000 C 
ATOM      4  C   UNL     1       2.108   2.270  18.018  0.00  0.00    +0.000 C 
ATOM      5  C   UNL     1       1.316   1.779  19.575  0.00  0.00    +0.000 C 
ATOM      6  C   UNL     1       0.870   2.856  20.463  0.00  0.00    +0.000 C 
ATOM      7  C   UNL     1       1.376   4.542  20.039  0.00  0.00    +0.000 C 
ATOM      8  C   UNL     1       2.403   3.669  19.660  0.00  0.00    +0.000 C 
ATOM      9  C   UNL     1       1.089   3.204  18.300  0.00  0.00    +0.000 C 
ATOM     10  C   UNL     1       2.002   5.227  18.463  0.00  0.00    +0.000 C 
ATOM     11  C   UNL     1       3.223   6.133  18.506  0.00  0.00    +0.000 C 
ATOM     12  O   UNL     1       3.132   7.255  18.994  0.00  0.00    +0.000 OA
ATOM     13  N   UNL     1       4.351   5.500  17.936  0.00  0.00    +0.000 N 
ENDROOT
BRANCH  13  14
ATOM     14  C   UNL     1       5.678   6.066  18.017  0.00  0.00    +0.000 A 
ATOM     15  C   UNL     1       6.616   5.601  18.955  0.00  0.00    +0.000 A 
ATOM     16  C   UNL     1       7.880   6.188  19.092  0.00  0.00    +0.000 A 
ATOM     17  C   UNL     1       8.248   7.248  18.276  0.00  0.00    +0.000 A 
ATOM     18  C   UNL     1       7.353   7.713  17.321  0.00  0.00    +0.000 A 
ATOM     19  C   UNL     1       6.087   7.128  17.193  0.00  0.00    +0.000 A 
ENDBRANCH  13  14
TORSDOF 1
ENDMDL
MODEL 4
REMARK VINA RESULT:      -7.8      1.420      5.807
REMARK  Name = 
REMARK  1 active torsions:
REMARK  status: ('A' for Active; 'I' for Inactive)
REMARK    1  A    between atoms: N_13  and  C_14
REMARK                            x       y       z     vdW  Elec       q    Type
REMARK                         _______ _______ _______ _____ _____    ______ ____
ROOT
ATOM      1  O   UNL     1       5.555   3.358  19.403  0.00  0.00    +0.000 OA
ATOM      2  C   UNL     1       5.162   4.429  18.964  0.00  0.00    +0.000 C 
ATOM      3  C   UNL     1       6.108   5.376  18.291  0.00  0.00    +0.000 C 
ATOM      4  C   UNL     1       7.349   4.724  17.140  0.00  0.00    +0.000 C 
ATOM      5  C   UNL     1       7.416   4.715  15.326  0.00  0.00    +0.000 C 
ATOM      6  C   UNL     1       6.422   5.527  14.619  0.00  0.00    +0.000 C 
ATOM      7  C   UNL     1       5.087   6.247  15.608  0.00  0.00    +0.000 C 
ATOM      8  C   UNL     1       5.423   5.007  16.165  0.00  0.00    +0.000 C 
ATOM      9  C   UNL     1       7.006   6.015  16.685  0.00  0.00    +0.000 C 
ATOM     10  C   UNL     1       4.961   6.506  17.415  0.00  0.00    +0.000 C 
ATOM     11  C   UNL     1       3.669   6.108  18.111  0.00  0.00    +0.000 C 
ATOM     12  O   UNL     1       2.646   6.756  17.915  0.00  0.00    +0.000 OA
ATOM     13  N   UNL     1       3.859   4.974  18.934  0.00  0.00    +0.000 N 
ENDROOT
BRANCH  13  14
ATOM     14  C   UNL     1       2.757   4.282  19.561  0.00  0.00    +0.000 A 
ATOM     15  C   UNL     1       2.628   4.229  20.961  0.00  0.00    +0.000 A 
ATOM     16  C   UNL     1       1.605   3.502  21.583  0.00  0.00    +0.000 A 
ATOM     17  C   UNL     1       0.669   2.823  20.818  0.00  0.00    +0.000 A 
ATOM     18  C   UNL     1       0.752   2.879  19.433  0.00  0.00    +0.000 A 
ATOM     19  C   UNL     1       1.782   3.600  18.814  0.00  0.00    +0.000 A 
ENDBRANCH  13  14
TORSDOF 1
ENDMDL
MODEL 5
REMARK VINA RESULT:      -7.7      1.884      2.501
REMARK  Name = 
REMARK  1 active torsions:
REMARK  status: ('A' for Active; 'I' for Inactive)
REMARK    1  A    between atoms: N_13  and  C_14
REMARK                            x       y       z     vdW  Elec       q    Type
REMARK                         _______ _______ _______ _____ _____    ______ ____
ROOT
ATOM      1  O   UNL     1       5.008   3.406  17.150  0.00  0.00    +0.000 OA
ATOM      2  C   UNL     1       4.165   4.228  17.481  0.00  0.00    +0.000 C 
ATOM      3  C   UNL     1       2.706   3.894  17.428  0.00  0.00    +0.000 C 
ATOM      4  C   UNL     1       2.146   2.263  17.994  0.00  0.00    +0.000 C 
ATOM      5  C   UNL     1       1.338   1.739  19.531  0.00  0.00    +0.000 C 
ATOM      6  C   UNL     1       0.854   2.796  20.423  0.00  0.00    +0.000 C 
ATOM      7  C   UNL     1       1.333   4.497  20.027  0.00  0.00    +0.000 C 
ATOM      8  C   UNL     1       2.384   3.649  19.655  0.00  0.00    +0.000 C 
ATOM      9  C   UNL     1       1.104   3.173  18.268  0.00  0.00    +0.000 C 
ATOM     10  C   UNL     1       1.973   5.212  18.469  0.00  0.00    +0.000 C 
ATOM     11  C   UNL     1       3.174   6.142  18.543  0.00  0.00    +0.000 C 
ATOM     12  O   UNL     1       3.052   7.256  19.042  0.00  0.00    +0.000 OA
ATOM     13  N   UNL     1       4.325   5.538  17.987  0.00  0.00    +0.000 N 
ENDROOT
BRANCH  13  14
ATOM     14  C   UNL     1       5.638   6.130  18.096  0.00  0.00    +0.000 A 
ATOM     15  C   UNL     1       6.031   7.195  17.266  0.00  0.00    +0.000 A 
ATOM     16  C   UNL     1       7.324   7.732  17.313  0.00  0.00    +0.000 A 
ATOM     17  C   UNL     1       8.255   7.228  18.209  0.00  0.00    +0.000 A 
ATOM     18  C   UNL     1       7.888   6.195  19.062  0.00  0.00    +0.000 A 
ATOM     19  C   UNL     1       6.597   5.655  19.006  0.00  0.00    +0.000 A 
ENDBRANCH  13  14
TORSDOF 1
ENDMDL
MODEL 6
REMARK VINA RESULT:      -7.6      1.401      5.893
REMARK  Name = 
REMARK  1 active torsions:
REMARK  status: ('A' for Active; 'I' for Inactive)
REMARK    1  A    between atoms: N_13  and  C_14
REMARK                            x       y       z     vdW  Elec       q    Type
REMARK                         _______ _______ _______ _____ _____    ______ ____
ROOT
ATOM      1  O   UNL     1       5.553   3.261  19.335  0.00  0.00    +0.000 OA
ATOM      2  C   UNL     1       5.155   4.339  18.917  0.00  0.00    +0.000 C 
ATOM      3  C   UNL     1       6.102   5.317  18.291  0.00  0.00    +0.000 C 
ATOM      4  C   UNL     1       7.376   4.713  17.149  0.00  0.00    +0.000 C 
ATOM      5  C   UNL     1       7.482   4.754  15.338  0.00  0.00    +0.000 C 
ATOM      6  C   UNL     1       6.492   5.572  14.632  0.00  0.00    +0.000 C 
ATOM      7  C   UNL     1       5.126   6.248  15.611  0.00  0.00    +0.000 C 
ATOM      8  C   UNL     1       5.468   4.997  16.141  0.00  0.00    +0.000 C 
ATOM      9  C   UNL     1       7.025   6.011  16.723  0.00  0.00    +0.000 C 
ATOM     10  C   UNL     1       4.958   6.455  17.421  0.00  0.00    +0.000 C 
ATOM     11  C   UNL     1       3.657   6.020  18.078  0.00  0.00    +0.000 C 
ATOM     12  O   UNL     1       2.630   6.660  17.877  0.00  0.00    +0.000 OA
ATOM     13  N   UNL     1       3.845   4.867  18.873  0.00  0.00    +0.000 N 
ENDROOT
BRANCH  13  14
ATOM     14  C   UNL     1       2.739   4.143  19.457  0.00  0.00    +0.000 A 
ATOM     15  C   UNL     1       1.824   3.436  18.657  0.00  0.00    +0.000 A 
ATOM     16  C   UNL     1       0.708   2.790  19.203  0.00  0.00    +0.000 A 
ATOM     17  C   UNL     1       0.488   2.817  20.572  0.00  0.00    +0.000 A 
ATOM     18  C   UNL     1       1.390   3.483  21.392  0.00  0.00    +0.000 A 
ATOM     19  C   UNL     1       2.499   4.136  20.841  0.00  0.00    +0.000 A 
ENDBRANCH  13  14
TORSDOF 1
ENDMDL
MODEL 7
REMARK VINA RESULT:      -7.0      1.875      5.894
REMARK  Name = 
REMARK  1 active torsions:
REMARK  status: ('A' for Active; 'I' for Inactive)
REMARK    1  A    between atoms: N_13  and  C_14
REMARK                            x       y       z     vdW  Elec       q    Type
REMARK                         _______ _______ _______ _____ _____    ______ ____
ROOT
ATOM      1  O   UNL     1       3.187   6.458  17.301  0.00  0.00    +0.000 OA
ATOM      2  C   UNL     1       4.051   5.611  17.481  0.00  0.00    +0.000 C 
ATOM      3  C   UNL     1       5.394   5.735  16.829  0.00  0.00    +0.000 C 
ATOM      4  C   UNL     1       6.207   7.355  16.768  0.00  0.00    +0.000 C 
ATOM      5  C   UNL     1       7.567   8.054  17.745  0.00  0.00    +0.000 C 
ATOM      6  C   UNL     1       8.301   7.132  18.617  0.00  0.00    +0.000 C 
ATOM      7  C   UNL     1       7.624   5.465  18.818  0.00  0.00    +0.000 C 
ATOM      8  C   UNL     1       6.554   6.357  18.670  0.00  0.00    +0.000 C 
ATOM      9  C   UNL     1       7.229   6.386  16.845  0.00  0.00    +0.000 C 
ATOM     10  C   UNL     1       6.403   4.555  17.803  0.00  0.00    +0.000 C 
ATOM     11  C   UNL     1       5.277   3.823  18.517  0.00  0.00    +0.000 C 
ATOM     12  O   UNL     1       5.525   2.819  19.176  0.00  0.00    +0.000 OA
ATOM     13  N   UNL     1       4.033   4.455  18.293  0.00  0.00    +0.000 N 
ENDROOT
BRANCH  13  14
ATOM     14  C   UNL     1       2.834   4.072  19.003  0.00  0.00    +0.000 A 
ATOM     15  C   UNL     1       2.618   4.461  20.337  0.00  0.00    +0.000 A 
ATOM     16  C   UNL     1       1.495   4.039  21.059  0.00  0.00    +0.000 A 
ATOM     17  C   UNL     1       0.543   3.229  20.456  0.00  0.00    +0.000 A 
ATOM     18  C   UNL     1       0.714   2.850  19.131  0.00  0.00    +0.000 A 
ATOM     19  C   UNL     1       1.843   3.268  18.415  0.00  0.00    +0.000 A 
ENDBRANCH  13  14
TORSDOF 1
ENDMDL
MODEL 8
REMARK VINA RESULT:      -6.8      1.876      5.949
REMARK  Name = 
REMARK  1 active torsions:
REMARK  status: ('A' for Active; 'I' for Inactive)
REMARK    1  A    between atoms: N_13  and  C_14
REMARK                            x       y       z     vdW  Elec       q    Type
REMARK                         _______ _______ _______ _____ _____    ______ ____
ROOT
ATOM      1  O   UNL     1       3.236   6.359  17.124  0.00  0.00    +0.000 OA
ATOM      2  C   UNL     1       4.096   5.526  17.372  0.00  0.00    +0.000 C 
ATOM      3  C   UNL     1       5.466   5.638  16.777  0.00  0.00    +0.000 C 
ATOM      4  C   UNL     1       6.270   7.262  16.695  0.00  0.00    +0.000 C 
ATOM      5  C   UNL     1       7.580   8.004  17.708  0.00  0.00    +0.000 C 
ATOM      6  C   UNL     1       8.281   7.120  18.642  0.00  0.00    +0.000 C 
ATOM      7  C   UNL     1       7.606   5.455  18.871  0.00  0.00    +0.000 C 
ATOM      8  C   UNL     1       6.538   6.333  18.645  0.00  0.00    +0.000 C 
ATOM      9  C   UNL     1       7.295   6.304  16.851  0.00  0.00    +0.000 C 
ATOM     10  C   UNL     1       6.438   4.501  17.836  0.00  0.00    +0.000 C 
ATOM     11  C   UNL     1       5.285   3.785  18.523  0.00  0.00    +0.000 C 
ATOM     12  O   UNL     1       5.510   2.806  19.228  0.00  0.00    +0.000 OA
ATOM     13  N   UNL     1       4.048   4.399  18.223  0.00  0.00    +0.000 N 
ENDROOT
BRANCH  13  14
ATOM     14  C   UNL     1       2.821   4.031  18.891  0.00  0.00    +0.000 A 
ATOM     15  C   UNL     1       1.963   3.053  18.357  0.00  0.00    +0.000 A 
ATOM     16  C   UNL     1       0.737   2.738  18.956  0.00  0.00    +0.000 A 
ATOM     17  C   UNL     1       0.344   3.382  20.120  0.00  0.00    +0.000 A 
ATOM     18  C   UNL     1       1.183   4.333  20.687  0.00  0.00    +0.000 A 
ATOM     19  C   UNL     1       2.404   4.651  20.080  0.00  0.00    +0.000 A 
ENDBRANCH  13  14
TORSDOF 1
ENDMDL
MODEL 9
REMARK VINA RESULT:      -6.7      2.228      3.844
REMARK  Name = 
REMARK  1 active torsions:
REMARK  status: ('A' for Active; 'I' for Inactive)
REMARK    1  A    between atoms: N_13  and  C_14
REMARK                            x       y       z     vdW  Elec       q    Type
REMARK                         _______ _______ _______ _____ _____    ______ ____
ROOT
ATOM      1  O   UNL     1       4.498   6.728  15.217  0.00  0.00    +0.000 OA
ATOM      2  C   UNL     1       5.293   6.247  16.013  0.00  0.00    +0.000 C 
ATOM      3  C   UNL     1       5.174   6.526  17.480  0.00  0.00    +0.000 C 
ATOM      4  C   UNL     1       3.534   6.516  18.256  0.00  0.00    +0.000 C 
ATOM      5  C   UNL     1       2.705   5.278  19.292  0.00  0.00    +0.000 C 
ATOM      6  C   UNL     1       3.521   4.162  19.778  0.00  0.00    +0.000 C 
ATOM      7  C   UNL     1       5.191   3.998  19.096  0.00  0.00    +0.000 C 
ATOM      8  C   UNL     1       4.355   4.506  18.092  0.00  0.00    +0.000 C 
ATOM      9  C   UNL     1       4.454   6.081  19.234  0.00  0.00    +0.000 C 
ATOM     10  C   UNL     1       6.228   5.214  18.206  0.00  0.00    +0.000 C 
ATOM     11  C   UNL     1       6.941   4.764  16.940  0.00  0.00    +0.000 C 
ATOM     12  O   UNL     1       7.875   3.974  17.016  0.00  0.00    +0.000 OA
ATOM     13  N   UNL     1       6.377   5.368  15.793  0.00  0.00    +0.000 N 
ENDROOT
BRANCH  13  14
ATOM     14  C   UNL     1       6.744   4.972  14.453  0.00  0.00    +0.000 A 
ATOM     15  C   UNL     1       7.749   5.651  13.740  0.00  0.00    +0.000 A 
ATOM     16  C   UNL     1       8.066   5.324  12.415  0.00  0.00    +0.000 A 
ATOM     17  C   UNL     1       7.397   4.293  11.773  0.00  0.00    +0.000 A 
ATOM     18  C   UNL     1       6.419   3.585  12.460  0.00  0.00    +0.000 A 
ATOM     19  C   UNL     1       6.099   3.921  13.781  0.00  0.00    +0.000 A 
ENDBRANCH  13  14
TORSDOF 1
ENDMDL
