MODEL 1
REMARK VINA RESULT:      -7.7      0.000      0.000
REMARK  Name = 
REMARK  8 active torsions:
REMARK  status: ('A' for Active; 'I' for Inactive)
REMARK    1  A    between atoms: C_1  and  C_2
REMARK    2  A    between atoms: C_2  and  C_3
REMARK    3  A    between atoms: C_6  and  C_7
REMARK    4  A    between atoms: C_7  and  N_8
REMARK    5  A    between atoms: N_8  and  C_9
REMARK    6  A    between atoms: N_8  and  S_17
REMARK    7  A    between atoms: C_12  and  C_13
REMARK    8  A    between atoms: S_17  and  C_18
REMARK                            x       y       z     vdW  Elec       q    Type
REMARK                         _______ _______ _______ _____ _____    ______ ____
ROOT
ATOM      1  N   UNL     1       5.689   4.834  17.563  0.00  0.00    +0.000 N 
ENDROOT
BRANCH   1   2
ATOM      2  C   UNL     1       4.651   4.398  18.460  0.00  0.00    +0.000 A 
ATOM      3  C   UNL     1       3.877   5.303  19.193  0.00  0.00    +0.000 A 
ATOM      4  C   UNL     1       2.982   4.837  20.165  0.00  0.00    +0.000 A 
ATOM      5  C   UNL     1       2.873   3.465  20.424  0.00  0.00    +0.000 A 
ATOM      6  C   UNL     1       3.651   2.562  19.694  0.00  0.00    +0.000 A 
ATOM      7  C   UNL     1       4.541   3.029  18.722  0.00  0.00    +0.000 A 
BRANCH   5   8
ATOM      8  C   UNL     1       1.991   2.991  21.454  0.00  0.00    +0.000 C 
ATOM      9  N   UNL     1       1.279   2.609  22.283  0.00  0.00    +0.000 NA
ENDBRANCH   5   8
ENDBRANCH   1   2
BRANCH   1  10
ATOM     10  S   UNL     1       7.197   5.145  18.319  0.00  0.00    +0.000 S 
ATOM     11  C   UNL     1       7.421   6.849  17.858  0.00  0.00    +0.000 C 
ATOM     12  O   UNL     1       7.004   5.077  19.753  0.00  0.00    +0.000 OA
ATOM     13  O   UNL     1       8.245   4.392  17.664  0.00  0.00    +0.000 OA
ENDBRANCH   1  10
BRANCH   1  14
ATOM     14  C   UNL     1       5.359   5.813  16.494  0.00  0.00    +0.000 C 
BRANCH  14  18
ATOM     15  C   UNL     1       6.183   4.255  13.417  0.00  0.00    +0.000 A 
ATOM     16  N   UNL     1       7.314   4.950  13.598  0.00  0.00    +0.000 NA
ATOM     17  O   UNL     1       7.054   5.688  14.755  0.00  0.00    +0.000 OA
ATOM     18  C   UNL     1       5.787   5.359  15.145  0.00  0.00    +0.000 A 
ATOM     19  N   UNL     1       5.195   4.509  14.332  0.00  0.00    +0.000 NA
BRANCH  15  21
ATOM     20  C   UNL     1       4.714   3.210  11.718  0.00  0.00    +0.000 C 
ATOM     21  C   UNL     1       6.066   3.164  12.419  0.00  0.00    +0.000 C 
ENDBRANCH  15  21
ENDBRANCH  14  18
ENDBRANCH   1  14
TORSDOF 6
ENDMDL
MODEL 2
REMARK VINA RESULT:      -7.3      1.610      1.716
REMARK  Name = 
REMARK  8 active torsions:
REMARK  status: ('A' for Active; 'I' for Inactive)
REMARK    1  A    between atoms: C_1  and  C_2
REMARK    2  A    between atoms: C_2  and  C_3
REMARK    3  A    between atoms: C_6  and  C_7
REMARK    4  A    between atoms: C_7  and  N_8
REMARK    5  A    between atoms: N_8  and  C_9
REMARK    6  A    between atoms: N_8  and  S_17
REMARK    7  A    between atoms: C_12  and  C_13
REMARK    8  A    between atoms: S_17  and  C_18
REMARK                            x       y       z     vdW  Elec       q    Type
REMARK                         _______ _______ _______ _____ _____    ______ ____
ROOT
ATOM      1  N   UNL     1       6.069   4.564  16.678  0.00  0.00    +0.000 N 
ENDROOT
BRANCH   1   2
ATOM      2  C   UNL     1       4.751   4.133  17.063  0.00  0.00    +0.000 A 
ATOM      3  C   UNL     1       3.739   5.042  17.387  0.00  0.00    +0.000 A 
ATOM      4  C   UNL     1       2.519   4.584  17.900  0.00  0.00    +0.000 A 
ATOM      5  C   UNL     1       2.313   3.215  18.114  0.00  0.00    +0.000 A 
ATOM      6  C   UNL     1       3.326   2.308  17.795  0.00  0.00    +0.000 A 
ATOM      7  C   UNL     1       4.542   2.768  17.278  0.00  0.00    +0.000 A 
BRANCH   5   8
ATOM      8  C   UNL     1       1.080   2.751  18.686  0.00  0.00    +0.000 C 
ATOM      9  N   UNL     1       0.085   2.375  19.145  0.00  0.00    +0.000 NA
ENDBRANCH   5   8
ENDBRANCH   1   2
BRANCH   1  10
ATOM     10  S   UNL     1       7.141   4.830  17.990  0.00  0.00    +0.000 S 
ATOM     11  C   UNL     1       7.483   6.560  17.757  0.00  0.00    +0.000 C 
ATOM     12  O   UNL     1       6.395   4.668  19.221  0.00  0.00    +0.000 OA
ATOM     13  O   UNL     1       8.384   4.123  17.767  0.00  0.00    +0.000 OA
ENDBRANCH   1  10
BRANCH   1  14
ATOM     14  C   UNL     1       6.215   5.568  15.592  0.00  0.00    +0.000 C 
BRANCH  14  18
ATOM     15  C   UNL     1       6.265   3.642  12.615  0.00  0.00    +0.000 A 
ATOM     16  N   UNL     1       7.380   4.355  12.411  0.00  0.00    +0.000 NA
ATOM     17  O   UNL     1       7.404   5.230  13.499  0.00  0.00    +0.000 OA
ATOM     18  C   UNL     1       6.294   4.952  14.242  0.00  0.00    +0.000 A 
ATOM     19  N   UNL     1       5.539   4.007  13.720  0.00  0.00    +0.000 NA
BRANCH  15  21
ATOM     20  C   UNL     1       7.166   1.880  11.126  0.00  0.00    +0.000 C 
ATOM     21  C   UNL     1       5.929   2.436  11.821  0.00  0.00    +0.000 C 
ENDBRANCH  15  21
ENDBRANCH  14  18
ENDBRANCH   1  14
TORSDOF 6
ENDMDL
MODEL 3
REMARK VINA RESULT:      -7.3      1.455      1.786
REMARK  Name = 
REMARK  8 active torsions:
REMARK  status: ('A' for Active; 'I' for Inactive)
REMARK    1  A    between atoms: C_1  and  C_2
REMARK    2  A    between atoms: C_2  and  C_3
REMARK    3  A    between atoms: C_6  and  C_7
REMARK    4  A    between atoms: C_7  and  N_8
REMARK    5  A    between atoms: N_8  and  C_9
REMARK    6  A    between atoms: N_8  and  S_17
REMARK    7  A    between atoms: C_12  and  C_13
REMARK    8  A    between atoms: S_17  and  C_18
REMARK                            x       y       z     vdW  Elec       q    Type
REMARK                         _______ _______ _______ _____ _____    ______ ____
ROOT
ATOM      1  N   UNL     1       6.022   4.635  16.960  0.00  0.00    +0.000 N 
ENDROOT
BRANCH   1   2
ATOM      2  C   UNL     1       4.802   4.114  17.517  0.00  0.00    +0.000 A 
ATOM      3  C   UNL     1       4.621   2.749  17.759  0.00  0.00    +0.000 A 
ATOM      4  C   UNL     1       3.369   2.265  18.159  0.00  0.00    +0.000 A 
ATOM      5  C   UNL     1       2.285   3.141  18.298  0.00  0.00    +0.000 A 
ATOM      6  C   UNL     1       2.465   4.504  18.051  0.00  0.00    +0.000 A 
ATOM      7  C   UNL     1       3.718   4.986  17.655  0.00  0.00    +0.000 A 
BRANCH   5   8
ATOM      8  C   UNL     1       0.990   2.637  18.660  0.00  0.00    +0.000 C 
ATOM      9  N   UNL     1      -0.055   2.233  18.953  0.00  0.00    +0.000 NA
ENDBRANCH   5   8
ENDBRANCH   1   2
BRANCH   1  10
ATOM     10  S   UNL     1       7.259   4.933  18.110  0.00  0.00    +0.000 S 
ATOM     11  C   UNL     1       7.630   6.630  17.724  0.00  0.00    +0.000 C 
ATOM     12  O   UNL     1       6.667   4.880  19.431  0.00  0.00    +0.000 OA
ATOM     13  O   UNL     1       8.439   4.161  17.783  0.00  0.00    +0.000 OA
ENDBRANCH   1  10
BRANCH   1  14
ATOM     14  C   UNL     1       5.949   5.674  15.899  0.00  0.00    +0.000 C 
BRANCH  14  18
ATOM     15  C   UNL     1       6.114   3.893  12.837  0.00  0.00    +0.000 A 
ATOM     16  N   UNL     1       7.321   4.473  12.796  0.00  0.00    +0.000 NA
ATOM     17  O   UNL     1       7.322   5.288  13.930  0.00  0.00    +0.000 OA
ATOM     18  C   UNL     1       6.109   5.114  14.532  0.00  0.00    +0.000 A 
ATOM     19  N   UNL     1       5.315   4.294  13.877  0.00  0.00    +0.000 NA
BRANCH  15  21
ATOM     20  C   UNL     1       4.358   3.010  11.330  0.00  0.00    +0.000 C 
ATOM     21  C   UNL     1       5.734   2.774  11.941  0.00  0.00    +0.000 C 
ENDBRANCH  15  21
ENDBRANCH  14  18
ENDBRANCH   1  14
TORSDOF 6
ENDMDL
MODEL 4
REMARK VINA RESULT:      -7.3      0.876      1.052
REMARK  Name = 
REMARK  8 active torsions:
REMARK  status: ('A' for Active; 'I' for Inactive)
REMARK    1  A    between atoms: C_1  and  C_2
REMARK    2  A    between atoms: C_2  and  C_3
REMARK    3  A    between atoms: C_6  and  C_7
REMARK    4  A    between atoms: C_7  and  N_8
REMARK    5  A    between atoms: N_8  and  C_9
REMARK    6  A    between atoms: N_8  and  S_17
REMARK    7  A    between atoms: C_12  and  C_13
REMARK    8  A    between atoms: S_17  and  C_18
REMARK                            x       y       z     vdW  Elec       q    Type
REMARK                         _______ _______ _______ _____ _____    ______ ____
ROOT
ATOM      1  N   UNL     1       5.601   5.107  17.795  0.00  0.00    +0.000 N 
ENDROOT
BRANCH   1   2
ATOM      2  C   UNL     1       4.564   4.587  18.647  0.00  0.00    +0.000 A 
ATOM      3  C   UNL     1       3.694   5.425  19.351  0.00  0.00    +0.000 A 
ATOM      4  C   UNL     1       2.799   4.886  20.284  0.00  0.00    +0.000 A 
ATOM      5  C   UNL     1       2.787   3.508  20.535  0.00  0.00    +0.000 A 
ATOM      6  C   UNL     1       3.660   2.672  19.835  0.00  0.00    +0.000 A 
ATOM      7  C   UNL     1       4.550   3.213  18.901  0.00  0.00    +0.000 A 
BRANCH   5   8
ATOM      8  C   UNL     1       1.903   2.962  21.527  0.00  0.00    +0.000 C 
ATOM      9  N   UNL     1       1.192   2.522  22.329  0.00  0.00    +0.000 NA
ENDBRANCH   5   8
ENDBRANCH   1   2
BRANCH   1  10
ATOM     10  S   UNL     1       7.009   5.628  18.625  0.00  0.00    +0.000 S 
ATOM     11  C   UNL     1       8.181   4.439  18.010  0.00  0.00    +0.000 C 
ATOM     12  O   UNL     1       7.370   6.937  18.120  0.00  0.00    +0.000 OA
ATOM     13  O   UNL     1       6.868   5.383  20.045  0.00  0.00    +0.000 OA
ENDBRANCH   1  10
BRANCH   1  14
ATOM     14  C   UNL     1       5.231   5.994  16.661  0.00  0.00    +0.000 C 
BRANCH  14  18
ATOM     15  C   UNL     1       6.384   4.471  13.673  0.00  0.00    +0.000 A 
ATOM     16  N   UNL     1       7.515   5.092  14.031  0.00  0.00    +0.000 NA
ATOM     17  O   UNL     1       7.139   5.813  15.166  0.00  0.00    +0.000 OA
ATOM     18  C   UNL     1       5.815   5.551  15.368  0.00  0.00    +0.000 A 
ATOM     19  N   UNL     1       5.294   4.760  14.454  0.00  0.00    +0.000 NA
BRANCH  15  21
ATOM     20  C   UNL     1       4.955   3.309  12.016  0.00  0.00    +0.000 C 
ATOM     21  C   UNL     1       6.345   3.416  12.632  0.00  0.00    +0.000 C 
ENDBRANCH  15  21
ENDBRANCH  14  18
ENDBRANCH   1  14
TORSDOF 6
ENDMDL
MODEL 5
REMARK VINA RESULT:      -7.3      3.369      4.496
REMARK  Name = 
REMARK  8 active torsions:
REMARK  status: ('A' for Active; 'I' for Inactive)
REMARK    1  A    between atoms: C_1  and  C_2
REMARK    2  A    between atoms: C_2  and  C_3
REMARK    3  A    between atoms: C_6  and  C_7
REMARK    4  A    between atoms: C_7  and  N_8
REMARK    5  A    between atoms: N_8  and  C_9
REMARK    6  A    between atoms: N_8  and  S_17
REMARK    7  A    between atoms: C_12  and  C_13
REMARK    8  A    between atoms: S_17  and  C_18
REMARK                            x       y       z     vdW  Elec       q    Type
REMARK                         _______ _______ _______ _____ _____    ______ ____
ROOT
ATOM      1  N   UNL     1       3.509   4.397  18.777  0.00  0.00    +0.000 N 
ENDROOT
BRANCH   1   2
ATOM      2  C   UNL     1       2.805   5.631  19.008  0.00  0.00    +0.000 A 
ATOM      3  C   UNL     1       2.781   6.659  18.061  0.00  0.00    +0.000 A 
ATOM      4  C   UNL     1       2.215   7.899  18.383  0.00  0.00    +0.000 A 
ATOM      5  C   UNL     1       1.691   8.125  19.662  0.00  0.00    +0.000 A 
ATOM      6  C   UNL     1       1.720   7.099  20.610  0.00  0.00    +0.000 A 
ATOM      7  C   UNL     1       2.282   5.860  20.284  0.00  0.00    +0.000 A 
BRANCH   5   8
ATOM      8  C   UNL     1       1.155   9.413  20.006  0.00  0.00    +0.000 C 
ATOM      9  N   UNL     1       0.725  10.451  20.285  0.00  0.00    +0.000 NA
ENDBRANCH   5   8
ENDBRANCH   1   2
BRANCH   1  10
ATOM     10  S   UNL     1       2.596   2.984  19.112  0.00  0.00    +0.000 S 
ATOM     11  C   UNL     1       3.415   1.831  18.032  0.00  0.00    +0.000 C 
ATOM     12  O   UNL     1       2.855   2.596  20.483  0.00  0.00    +0.000 OA
ATOM     13  O   UNL     1       1.244   3.136  18.616  0.00  0.00    +0.000 OA
ENDBRANCH   1  10
BRANCH   1  14
ATOM     14  C   UNL     1       4.932   4.285  19.192  0.00  0.00    +0.000 C 
BRANCH  14  18
ATOM     15  C   UNL     1       6.872   4.674  16.249  0.00  0.00    +0.000 A 
ATOM     16  N   UNL     1       7.869   4.482  17.122  0.00  0.00    +0.000 NA
ATOM     17  O   UNL     1       7.209   4.412  18.351  0.00  0.00    +0.000 OA
ATOM     18  C   UNL     1       5.880   4.574  18.085  0.00  0.00    +0.000 A 
ATOM     19  N   UNL     1       5.625   4.777  16.809  0.00  0.00    +0.000 NA
BRANCH  15  21
ATOM     20  C   UNL     1       5.791   4.154  14.082  0.00  0.00    +0.000 C 
ATOM     21  C   UNL     1       7.069   4.601  14.781  0.00  0.00    +0.000 C 
ENDBRANCH  15  21
ENDBRANCH  14  18
ENDBRANCH   1  14
TORSDOF 6
ENDMDL
MODEL 6
REMARK VINA RESULT:      -7.2      3.536      5.412
REMARK  Name = 
REMARK  8 active torsions:
REMARK  status: ('A' for Active; 'I' for Inactive)
REMARK    1  A    between atoms: C_1  and  C_2
REMARK    2  A    between atoms: C_2  and  C_3
REMARK    3  A    between atoms: C_6  and  C_7
REMARK    4  A    between atoms: C_7  and  N_8
REMARK    5  A    between atoms: N_8  and  C_9
REMARK    6  A    between atoms: N_8  and  S_17
REMARK    7  A    between atoms: C_12  and  C_13
REMARK    8  A    between atoms: S_17  and  C_18
REMARK                            x       y       z     vdW  Elec       q    Type
REMARK                         _______ _______ _______ _____ _____    ______ ____
ROOT
ATOM      1  N   UNL     1       3.364   4.333  18.771  0.00  0.00    +0.000 N 
ENDROOT
BRANCH   1   2
ATOM      2  C   UNL     1       2.920   5.677  19.031  0.00  0.00    +0.000 A 
ATOM      3  C   UNL     1       2.267   6.026  20.217  0.00  0.00    +0.000 A 
ATOM      4  C   UNL     1       1.718   7.306  20.369  0.00  0.00    +0.000 A 
ATOM      5  C   UNL     1       1.800   8.236  19.325  0.00  0.00    +0.000 A 
ATOM      6  C   UNL     1       2.448   7.886  18.138  0.00  0.00    +0.000 A 
ATOM      7  C   UNL     1       2.999   6.608  17.991  0.00  0.00    +0.000 A 
BRANCH   5   8
ATOM      8  C   UNL     1       1.194   9.531  19.463  0.00  0.00    +0.000 C 
ATOM      9  N   UNL     1       0.703  10.575  19.572  0.00  0.00    +0.000 NA
ENDBRANCH   5   8
ENDBRANCH   1   2
BRANCH   1  10
ATOM     10  S   UNL     1       2.110   3.163  18.748  0.00  0.00    +0.000 S 
ATOM     11  C   UNL     1       2.973   1.810  17.979  0.00  0.00    +0.000 C 
ATOM     12  O   UNL     1       1.808   2.800  20.117  0.00  0.00    +0.000 OA
ATOM     13  O   UNL     1       1.067   3.570  17.830  0.00  0.00    +0.000 OA
ENDBRANCH   1  10
BRANCH   1  14
ATOM     14  C   UNL     1       4.608   3.842  19.419  0.00  0.00    +0.000 C 
BRANCH  14  18
ATOM     15  C   UNL     1       7.338   5.907  18.494  0.00  0.00    +0.000 A 
ATOM     16  N   UNL     1       7.125   5.316  17.311  0.00  0.00    +0.000 NA
ATOM     17  O   UNL     1       6.113   4.395  17.592  0.00  0.00    +0.000 OA
ATOM     18  C   UNL     1       5.828   4.529  18.920  0.00  0.00    +0.000 A 
ATOM     19  N   UNL     1       6.582   5.421  19.529  0.00  0.00    +0.000 NA
BRANCH  15  21
ATOM     20  C   UNL     1       7.838   8.161  17.594  0.00  0.00    +0.000 C 
ATOM     21  C   UNL     1       8.189   7.113  18.643  0.00  0.00    +0.000 C 
ENDBRANCH  15  21
ENDBRANCH  14  18
ENDBRANCH   1  14
TORSDOF 6
ENDMDL
MODEL 7
REMARK VINA RESULT:      -7.2      3.434      4.641
REMARK  Name = 
REMARK  8 active torsions:
REMARK  status: ('A' for Active; 'I' for Inactive)
REMARK    1  A    between atoms: C_1  and  C_2
REMARK    2  A    between atoms: C_2  and  C_3
REMARK    3  A    between atoms: C_6  and  C_7
REMARK    4  A    between atoms: C_7  and  N_8
REMARK    5  A    between atoms: N_8  and  C_9
REMARK    6  A    between atoms: N_8  and  S_17
REMARK    7  A    between atoms: C_12  and  C_13
REMARK    8  A    between atoms: S_17  and  C_18
REMARK                            x       y       z     vdW  Elec       q    Type
REMARK                         _______ _______ _______ _____ _____    ______ ____
ROOT
ATOM      1  N   UNL     1       3.474   4.546  18.876  0.00  0.00    +0.000 N 
ENDROOT
BRANCH   1   2
ATOM      2  C   UNL     1       2.968   5.880  19.064  0.00  0.00    +0.000 A 
ATOM      3  C   UNL     1       2.328   6.271  20.244  0.00  0.00    +0.000 A 
ATOM      4  C   UNL     1       1.717   7.528  20.331  0.00  0.00    +0.000 A 
ATOM      5  C   UNL     1       1.722   8.392  19.229  0.00  0.00    +0.000 A 
ATOM      6  C   UNL     1       2.357   7.999  18.048  0.00  0.00    +0.000 A 
ATOM      7  C   UNL     1       2.970   6.745  17.966  0.00  0.00    +0.000 A 
BRANCH   5   8
ATOM      8  C   UNL     1       1.053   9.661  19.303  0.00  0.00    +0.000 C 
ATOM      9  N   UNL     1       0.511  10.683  19.364  0.00  0.00    +0.000 NA
ENDBRANCH   5   8
ENDBRANCH   1   2
BRANCH   1  10
ATOM     10  S   UNL     1       2.401   3.302  19.369  0.00  0.00    +0.000 S 
ATOM     11  C   UNL     1       3.033   1.954  18.395  0.00  0.00    +0.000 C 
ATOM     12  O   UNL     1       2.652   3.019  20.767  0.00  0.00    +0.000 OA
ATOM     13  O   UNL     1       1.065   3.579  18.886  0.00  0.00    +0.000 OA
ENDBRANCH   1  10
BRANCH   1  14
ATOM     14  C   UNL     1       4.894   4.257  19.207  0.00  0.00    +0.000 C 
BRANCH  14  18
ATOM     15  C   UNL     1       6.786   4.549  16.221  0.00  0.00    +0.000 A 
ATOM     16  N   UNL     1       7.799   4.470  17.093  0.00  0.00    +0.000 NA
ATOM     17  O   UNL     1       7.154   4.448  18.332  0.00  0.00    +0.000 OA
ATOM     18  C   UNL     1       5.816   4.520  18.071  0.00  0.00    +0.000 A 
ATOM     19  N   UNL     1       5.539   4.622  16.788  0.00  0.00    +0.000 NA
BRANCH  15  21
ATOM     20  C   UNL     1       5.635   4.209  14.054  0.00  0.00    +0.000 C 
ATOM     21  C   UNL     1       6.974   4.386  14.759  0.00  0.00    +0.000 C 
ENDBRANCH  15  21
ENDBRANCH  14  18
ENDBRANCH   1  14
TORSDOF 6
ENDMDL
MODEL 8
REMARK VINA RESULT:      -7.1      3.565      5.395
REMARK  Name = 
REMARK  8 active torsions:
REMARK  status: ('A' for Active; 'I' for Inactive)
REMARK    1  A    between atoms: C_1  and  C_2
REMARK    2  A    between atoms: C_2  and  C_3
REMARK    3  A    between atoms: C_6  and  C_7
REMARK    4  A    between atoms: C_7  and  N_8
REMARK    5  A    between atoms: N_8  and  C_9
REMARK    6  A    between atoms: N_8  and  S_17
REMARK    7  A    between atoms: C_12  and  C_13
REMARK    8  A    between atoms: S_17  and  C_18
REMARK                            x       y       z     vdW  Elec       q    Type
REMARK                         _______ _______ _______ _____ _____    ______ ____
ROOT
ATOM      1  N   UNL     1       3.190   4.323  18.879  0.00  0.00    +0.000 N 
ENDROOT
BRANCH   1   2
ATOM      2  C   UNL     1       2.580   5.601  19.134  0.00  0.00    +0.000 A 
ATOM      3  C   UNL     1       2.700   6.670  18.241  0.00  0.00    +0.000 A 
ATOM      4  C   UNL     1       2.220   7.938  18.593  0.00  0.00    +0.000 A 
ATOM      5  C   UNL     1       1.640   8.149  19.850  0.00  0.00    +0.000 A 
ATOM      6  C   UNL     1       1.525   7.081  20.744  0.00  0.00    +0.000 A 
ATOM      7  C   UNL     1       2.001   5.815  20.388  0.00  0.00    +0.000 A 
BRANCH   5   8
ATOM      8  C   UNL     1       1.193   9.460  20.230  0.00  0.00    +0.000 C 
ATOM      9  N   UNL     1       0.836  10.519  20.536  0.00  0.00    +0.000 NA
ENDBRANCH   5   8
ENDBRANCH   1   2
BRANCH   1  10
ATOM     10  S   UNL     1       2.086   3.015  18.775  0.00  0.00    +0.000 S 
ATOM     11  C   UNL     1       3.116   1.812  17.963  0.00  0.00    +0.000 C 
ATOM     12  O   UNL     1       1.808   2.552  20.119  0.00  0.00    +0.000 OA
ATOM     13  O   UNL     1       1.016   3.340  17.855  0.00  0.00    +0.000 OA
ENDBRANCH   1  10
BRANCH   1  14
ATOM     14  C   UNL     1       4.450   3.968  19.584  0.00  0.00    +0.000 C 
BRANCH  14  18
ATOM     15  C   UNL     1       7.201   5.922  18.494  0.00  0.00    +0.000 A 
ATOM     16  N   UNL     1       6.779   5.488  17.300  0.00  0.00    +0.000 NA
ATOM     17  O   UNL     1       5.738   4.616  17.626  0.00  0.00    +0.000 OA
ATOM     18  C   UNL     1       5.647   4.617  18.988  0.00  0.00    +0.000 A 
ATOM     19  N   UNL     1       6.552   5.376  19.571  0.00  0.00    +0.000 NA
BRANCH  15  21
ATOM     20  C   UNL     1       7.879   8.146  17.639  0.00  0.00    +0.000 C 
ATOM     21  C   UNL     1       8.167   7.038  18.644  0.00  0.00    +0.000 C 
ENDBRANCH  15  21
ENDBRANCH  14  18
ENDBRANCH   1  14
TORSDOF 6
ENDMDL
MODEL 9
REMARK VINA RESULT:      -7.0      3.265      6.877
REMARK  Name = 
REMARK  8 active torsions:
REMARK  status: ('A' for Active; 'I' for Inactive)
REMARK    1  A    between atoms: C_1  and  C_2
REMARK    2  A    between atoms: C_2  and  C_3
REMARK    3  A    between atoms: C_6  and  C_7
REMARK    4  A    between atoms: C_7  and  N_8
REMARK    5  A    between atoms: N_8  and  C_9
REMARK    6  A    between atoms: N_8  and  S_17
REMARK    7  A    between atoms: C_12  and  C_13
REMARK    8  A    between atoms: S_17  and  C_18
REMARK                            x       y       z     vdW  Elec       q    Type
REMARK                         _______ _______ _______ _____ _____    ______ ____
ROOT
ATOM      1  N   UNL     1       3.683   3.979  19.201  0.00  0.00    +0.000 N 
ENDROOT
BRANCH   1   2
ATOM      2  C   UNL     1       4.644   4.154  18.144  0.00  0.00    +0.000 A 
ATOM      3  C   UNL     1       5.899   4.726  18.372  0.00  0.00    +0.000 A 
ATOM      4  C   UNL     1       6.746   5.016  17.294  0.00  0.00    +0.000 A 
ATOM      5  C   UNL     1       6.331   4.758  15.981  0.00  0.00    +0.000 A 
ATOM      6  C   UNL     1       5.074   4.191  15.755  0.00  0.00    +0.000 A 
ATOM      7  C   UNL     1       4.233   3.898  16.833  0.00  0.00    +0.000 A 
BRANCH   5   8
ATOM      8  C   UNL     1       7.180   5.101  14.875  0.00  0.00    +0.000 C 
ATOM      9  N   UNL     1       7.863   5.381  13.982  0.00  0.00    +0.000 NA
ENDBRANCH   5   8
ENDBRANCH   1   2
BRANCH   1  10
ATOM     10  S   UNL     1       3.664   2.410  19.893  0.00  0.00    +0.000 S 
ATOM     11  C   UNL     1       2.643   2.719  21.318  0.00  0.00    +0.000 C 
ATOM     12  O   UNL     1       2.946   1.531  18.993  0.00  0.00    +0.000 OA
ATOM     13  O   UNL     1       4.981   2.068  20.386  0.00  0.00    +0.000 OA
ENDBRANCH   1  10
BRANCH   1  14
ATOM     14  C   UNL     1       2.326   4.568  19.052  0.00  0.00    +0.000 C 
BRANCH  14  18
ATOM     15  C   UNL     1       1.670   7.738  20.499  0.00  0.00    +0.000 A 
ATOM     16  N   UNL     1       2.077   8.150  19.291  0.00  0.00    +0.000 NA
ATOM     17  O   UNL     1       2.458   6.964  18.661  0.00  0.00    +0.000 OA
ATOM     18  C   UNL     1       2.242   5.961  19.562  0.00  0.00    +0.000 A 
ATOM     19  N   UNL     1       1.793   6.391  20.723  0.00  0.00    +0.000 NA
BRANCH  15  21
ATOM     20  C   UNL     1       0.388   9.844  20.741  0.00  0.00    +0.000 C 
ATOM     21  C   UNL     1       0.972   8.632  21.455  0.00  0.00    +0.000 C 
ENDBRANCH  15  21
ENDBRANCH  14  18
ENDBRANCH   1  14
TORSDOF 6
ENDMDL
