MODEL 1
REMARK VINA RESULT:      -6.9      0.000      0.000
REMARK  Name = 
REMARK  6 active torsions:
REMARK  status: ('A' for Active; 'I' for Inactive)
REMARK    1  A    between atoms: N_2  and  C_4
REMARK    2  A    between atoms: C_7  and  N_8
REMARK    3  A    between atoms: N_8  and  N_9
REMARK    4  A    between atoms: C_10  and  C_11
REMARK    5  A    between atoms: C_14  and  O_15
REMARK    6  A    between atoms: C_17  and  O_18
REMARK                            x       y       z     vdW  Elec       q    Type
REMARK                         _______ _______ _______ _____ _____    ______ ____
ROOT
ATOM      1  N   UNL     1       3.835   5.980  19.389  0.00  0.00    +0.000 NA
ATOM      2  C   UNL     1       2.978   6.474  18.555  0.00  0.00    +0.000 C 
ENDROOT
BRANCH   2   3
ATOM      3  C   UNL     1       2.210   7.694  18.894  0.00  0.00    +0.000 A 
ATOM      4  C   UNL     1       2.000   8.669  17.906  0.00  0.00    +0.000 A 
ATOM      5  C   UNL     1       1.295   9.838  18.205  0.00  0.00    +0.000 A 
ATOM      6  C   UNL     1       0.797  10.023  19.490  0.00  0.00    +0.000 A 
ATOM      7  C   UNL     1       0.989   9.063  20.480  0.00  0.00    +0.000 A 
ATOM      8  C   UNL     1       1.702   7.897  20.182  0.00  0.00    +0.000 A 
BRANCH   6   9
ATOM      9  O   UNL     1       0.108  11.149  19.829  0.00  0.00    +0.000 OA
ATOM     10  H   UNL     1       0.545  11.569  20.589  0.00  0.00    +0.000 HD
ENDBRANCH   6   9
BRANCH   8  11
ATOM     11  O   UNL     1       1.900   6.962  21.159  0.00  0.00    +0.000 OA
ATOM     12  H   UNL     1       1.177   6.311  21.118  0.00  0.00    +0.000 HD
ENDBRANCH   8  11
ENDBRANCH   2   3
BRANCH   1  13
ATOM     13  N   UNL     1       4.473   4.845  19.014  0.00  0.00    +0.000 N 
ATOM     14  H   UNL     1       4.280   3.949  19.453  0.00  0.00    +0.000 HD
BRANCH  13  18
ATOM     15  C   UNL     1       6.447   4.855  15.284  0.00  0.00    +0.000 A 
ATOM     16  C   UNL     1       5.317   4.054  15.465  0.00  0.00    +0.000 A 
ATOM     17  C   UNL     1       4.669   4.058  16.701  0.00  0.00    +0.000 A 
ATOM     18  C   UNL     1       5.141   4.833  17.775  0.00  0.00    +0.000 A 
ATOM     19  C   UNL     1       6.261   5.651  17.563  0.00  0.00    +0.000 A 
ATOM     20  C   UNL     1       6.923   5.659  16.327  0.00  0.00    +0.000 A 
BRANCH  15  22
ATOM     21  O   UNL     1       8.095   5.634  13.849  0.00  0.00    +0.000 OA
ATOM     22  N   UNL     1       7.136   4.861  13.990  0.00  0.00    +0.000 N 
ATOM     23  O   UNL     1       6.721   4.091  13.112  0.00  0.00    +0.000 OA
ENDBRANCH  15  22
ENDBRANCH  13  18
ENDBRANCH   1  13
TORSDOF 6
ENDMDL
MODEL 2
REMARK VINA RESULT:      -6.8      0.794      1.514
REMARK  Name = 
REMARK  6 active torsions:
REMARK  status: ('A' for Active; 'I' for Inactive)
REMARK    1  A    between atoms: N_2  and  C_4
REMARK    2  A    between atoms: C_7  and  N_8
REMARK    3  A    between atoms: N_8  and  N_9
REMARK    4  A    between atoms: C_10  and  C_11
REMARK    5  A    between atoms: C_14  and  O_15
REMARK    6  A    between atoms: C_17  and  O_18
REMARK                            x       y       z     vdW  Elec       q    Type
REMARK                         _______ _______ _______ _____ _____    ______ ____
ROOT
ATOM      1  N   UNL     1       4.257   5.626  18.716  0.00  0.00    +0.000 NA
ATOM      2  C   UNL     1       3.125   6.003  18.217  0.00  0.00    +0.000 C 
ENDROOT
BRANCH   2   3
ATOM      3  C   UNL     1       2.412   7.182  18.763  0.00  0.00    +0.000 A 
ATOM      4  C   UNL     1       2.141   8.270  17.919  0.00  0.00    +0.000 A 
ATOM      5  C   UNL     1       1.488   9.403  18.413  0.00  0.00    +0.000 A 
ATOM      6  C   UNL     1       1.103   9.437  19.749  0.00  0.00    +0.000 A 
ATOM      7  C   UNL     1       1.357   8.363  20.598  0.00  0.00    +0.000 A 
ATOM      8  C   UNL     1       2.017   7.234  20.104  0.00  0.00    +0.000 A 
BRANCH   6   9
ATOM      9  O   UNL     1       0.467  10.521  20.277  0.00  0.00    +0.000 OA
ATOM     10  H   UNL     1       1.131  11.120  20.658  0.00  0.00    +0.000 HD
ENDBRANCH   6   9
BRANCH   8  11
ATOM     11  O   UNL     1       2.277   6.186  20.943  0.00  0.00    +0.000 OA
ATOM     12  H   UNL     1       1.448   5.700  21.099  0.00  0.00    +0.000 HD
ENDBRANCH   8  11
ENDBRANCH   2   3
BRANCH   1  13
ATOM     13  N   UNL     1       4.827   4.521  18.180  0.00  0.00    +0.000 N 
ATOM     14  H   UNL     1       4.576   3.584  18.484  0.00  0.00    +0.000 HD
BRANCH  13  18
ATOM     15  C   UNL     1       6.872   4.849  14.502  0.00  0.00    +0.000 A 
ATOM     16  C   UNL     1       7.486   5.293  15.676  0.00  0.00    +0.000 A 
ATOM     17  C   UNL     1       6.803   5.179  16.888  0.00  0.00    +0.000 A 
ATOM     18  C   UNL     1       5.503   4.648  16.952  0.00  0.00    +0.000 A 
ATOM     19  C   UNL     1       4.917   4.183  15.765  0.00  0.00    +0.000 A 
ATOM     20  C   UNL     1       5.588   4.290  14.539  0.00  0.00    +0.000 A 
BRANCH  15  22
ATOM     21  O   UNL     1       7.167   4.280  12.273  0.00  0.00    +0.000 OA
ATOM     22  N   UNL     1       7.578   4.963  13.222  0.00  0.00    +0.000 N 
ATOM     23  O   UNL     1       8.546   5.735  13.164  0.00  0.00    +0.000 OA
ENDBRANCH  15  22
ENDBRANCH  13  18
ENDBRANCH   1  13
TORSDOF 6
ENDMDL
MODEL 3
REMARK VINA RESULT:      -6.8      2.641      8.235
REMARK  Name = 
REMARK  6 active torsions:
REMARK  status: ('A' for Active; 'I' for Inactive)
REMARK    1  A    between atoms: N_2  and  C_4
REMARK    2  A    between atoms: C_7  and  N_8
REMARK    3  A    between atoms: N_8  and  N_9
REMARK    4  A    between atoms: C_10  and  C_11
REMARK    5  A    between atoms: C_14  and  O_15
REMARK    6  A    between atoms: C_17  and  O_18
REMARK                            x       y       z     vdW  Elec       q    Type
REMARK                         _______ _______ _______ _____ _____    ______ ____
ROOT
ATOM      1  N   UNL     1       3.300   8.110  17.745  0.00  0.00    +0.000 NA
ATOM      2  C   UNL     1       3.334   6.817  17.798  0.00  0.00    +0.000 C 
ENDROOT
BRANCH   2   3
ATOM      3  C   UNL     1       4.624   6.091  17.739  0.00  0.00    +0.000 A 
ATOM      4  C   UNL     1       5.046   5.352  18.855  0.00  0.00    +0.000 A 
ATOM      5  C   UNL     1       6.268   4.674  18.834  0.00  0.00    +0.000 A 
ATOM      6  C   UNL     1       7.059   4.733  17.691  0.00  0.00    +0.000 A 
ATOM      7  C   UNL     1       6.652   5.456  16.572  0.00  0.00    +0.000 A 
ATOM      8  C   UNL     1       5.433   6.140  16.599  0.00  0.00    +0.000 A 
BRANCH   6   9
ATOM      9  O   UNL     1       8.260   4.092  17.625  0.00  0.00    +0.000 OA
ATOM     10  H   UNL     1       8.885   4.533  18.225  0.00  0.00    +0.000 HD
ENDBRANCH   6   9
BRANCH   8  11
ATOM     11  O   UNL     1       5.042   6.859  15.504  0.00  0.00    +0.000 OA
ATOM     12  H   UNL     1       4.282   7.415  15.752  0.00  0.00    +0.000 HD
ENDBRANCH   8  11
ENDBRANCH   2   3
BRANCH   1  13
ATOM     13  N   UNL     1       2.079   8.693  17.773  0.00  0.00    +0.000 N 
ATOM     14  H   UNL     1       1.447   8.660  16.978  0.00  0.00    +0.000 HD
BRANCH  13  18
ATOM     15  C   UNL     1       0.396   9.696  21.511  0.00  0.00    +0.000 A 
ATOM     16  C   UNL     1       0.276  10.585  20.440  0.00  0.00    +0.000 A 
ATOM     17  C   UNL     1       0.835  10.244  19.207  0.00  0.00    +0.000 A 
ATOM     18  C   UNL     1       1.532   9.038  19.024  0.00  0.00    +0.000 A 
ATOM     19  C   UNL     1       1.617   8.149  20.106  0.00  0.00    +0.000 A 
ATOM     20  C   UNL     1       1.062   8.475  21.351  0.00  0.00    +0.000 A 
BRANCH  15  22
ATOM     21  O   UNL     1       0.381   9.619  23.830  0.00  0.00    +0.000 OA
ATOM     22  N   UNL     1      -0.187  10.042  22.812  0.00  0.00    +0.000 N 
ATOM     23  O   UNL     1      -1.213  10.736  22.819  0.00  0.00    +0.000 OA
ENDBRANCH  15  22
ENDBRANCH  13  18
ENDBRANCH   1  13
TORSDOF 6
ENDMDL
MODEL 4
REMARK VINA RESULT:      -6.8      1.339      1.887
REMARK  Name = 
REMARK  6 active torsions:
REMARK  status: ('A' for Active; 'I' for Inactive)
REMARK    1  A    between atoms: N_2  and  C_4
REMARK    2  A    between atoms: C_7  and  N_8
REMARK    3  A    between atoms: N_8  and  N_9
REMARK    4  A    between atoms: C_10  and  C_11
REMARK    5  A    between atoms: C_14  and  O_15
REMARK    6  A    between atoms: C_17  and  O_18
REMARK                            x       y       z     vdW  Elec       q    Type
REMARK                         _______ _______ _______ _____ _____    ______ ____
ROOT
ATOM      1  N   UNL     1       2.425   6.153  18.561  0.00  0.00    +0.000 NA
ATOM      2  C   UNL     1       2.580   6.969  19.553  0.00  0.00    +0.000 C 
ENDROOT
BRANCH   2   3
ATOM      3  C   UNL     1       1.725   8.172  19.684  0.00  0.00    +0.000 A 
ATOM      4  C   UNL     1       1.034   8.394  20.885  0.00  0.00    +0.000 A 
ATOM      5  C   UNL     1       0.205   9.510  21.028  0.00  0.00    +0.000 A 
ATOM      6  C   UNL     1       0.078  10.403  19.970  0.00  0.00    +0.000 A 
ATOM      7  C   UNL     1       0.763  10.202  18.774  0.00  0.00    +0.000 A 
ATOM      8  C   UNL     1       1.585   9.081  18.630  0.00  0.00    +0.000 A 
BRANCH   6   9
ATOM      9  O   UNL     1      -0.722  11.503  20.061  0.00  0.00    +0.000 OA
ATOM     10  H   UNL     1      -0.473  12.009  20.853  0.00  0.00    +0.000 HD
ENDBRANCH   6   9
BRANCH   8  11
ATOM     11  O   UNL     1       2.246   8.879  17.450  0.00  0.00    +0.000 OA
ATOM     12  H   UNL     1       3.162   8.614  17.648  0.00  0.00    +0.000 HD
ENDBRANCH   8  11
ENDBRANCH   2   3
BRANCH   1  13
ATOM     13  N   UNL     1       3.268   5.095  18.499  0.00  0.00    +0.000 N 
ATOM     14  H   UNL     1       3.102   4.242  19.024  0.00  0.00    +0.000 HD
BRANCH  13  18
ATOM     15  C   UNL     1       5.973   4.916  15.263  0.00  0.00    +0.000 A 
ATOM     16  C   UNL     1       5.539   3.733  15.867  0.00  0.00    +0.000 A 
ATOM     17  C   UNL     1       4.644   3.802  16.935  0.00  0.00    +0.000 A 
ATOM     18  C   UNL     1       4.185   5.034  17.431  0.00  0.00    +0.000 A 
ATOM     19  C   UNL     1       4.613   6.208  16.793  0.00  0.00    +0.000 A 
ATOM     20  C   UNL     1       5.512   6.157  15.719  0.00  0.00    +0.000 A 
BRANCH  15  22
ATOM     21  O   UNL     1       6.627   4.122  13.184  0.00  0.00    +0.000 OA
ATOM     22  N   UNL     1       6.914   4.858  14.140  0.00  0.00    +0.000 N 
ATOM     23  O   UNL     1       7.941   5.548  14.211  0.00  0.00    +0.000 OA
ENDBRANCH  15  22
ENDBRANCH  13  18
ENDBRANCH   1  13
TORSDOF 6
ENDMDL
MODEL 5
REMARK VINA RESULT:      -6.7      0.297      1.121
REMARK  Name = 
REMARK  6 active torsions:
REMARK  status: ('A' for Active; 'I' for Inactive)
REMARK    1  A    between atoms: N_2  and  C_4
REMARK    2  A    between atoms: C_7  and  N_8
REMARK    3  A    between atoms: N_8  and  N_9
REMARK    4  A    between atoms: C_10  and  C_11
REMARK    5  A    between atoms: C_14  and  O_15
REMARK    6  A    between atoms: C_17  and  O_18
REMARK                            x       y       z     vdW  Elec       q    Type
REMARK                         _______ _______ _______ _____ _____    ______ ____
ROOT
ATOM      1  N   UNL     1       3.723   6.307  19.293  0.00  0.00    +0.000 NA
ATOM      2  C   UNL     1       2.665   6.682  18.650  0.00  0.00    +0.000 C 
ENDROOT
BRANCH   2   3
ATOM      3  C   UNL     1       1.968   7.939  19.008  0.00  0.00    +0.000 A 
ATOM      4  C   UNL     1       1.719   8.893  18.010  0.00  0.00    +0.000 A 
ATOM      5  C   UNL     1       1.082  10.097  18.324  0.00  0.00    +0.000 A 
ATOM      6  C   UNL     1       0.689  10.336  19.636  0.00  0.00    +0.000 A 
ATOM      7  C   UNL     1       0.920   9.397  20.638  0.00  0.00    +0.000 A 
ATOM      8  C   UNL     1       1.566   8.197  20.323  0.00  0.00    +0.000 A 
BRANCH   6   9
ATOM      9  O   UNL     1       0.068  11.496  19.991  0.00  0.00    +0.000 OA
ATOM     10  H   UNL     1       0.496  11.851  20.789  0.00  0.00    +0.000 HD
ENDBRANCH   6   9
BRANCH   8  11
ATOM     11  O   UNL     1       1.804   7.283  21.311  0.00  0.00    +0.000 OA
ATOM     12  H   UNL     1       2.764   7.133  21.372  0.00  0.00    +0.000 HD
ENDBRANCH   8  11
ENDBRANCH   2   3
BRANCH   1  13
ATOM     13  N   UNL     1       4.281   5.129  18.924  0.00  0.00    +0.000 N 
ATOM     14  H   UNL     1       4.014   4.249  19.354  0.00  0.00    +0.000 HD
BRANCH  13  18
ATOM     15  C   UNL     1       6.371   4.917  15.263  0.00  0.00    +0.000 A 
ATOM     16  C   UNL     1       6.790   5.817  16.246  0.00  0.00    +0.000 A 
ATOM     17  C   UNL     1       6.094   5.879  17.454  0.00  0.00    +0.000 A 
ATOM     18  C   UNL     1       4.968   5.073  17.696  0.00  0.00    +0.000 A 
ATOM     19  C   UNL     1       4.582   4.157  16.706  0.00  0.00    +0.000 A 
ATOM     20  C   UNL     1       5.270   4.082  15.487  0.00  0.00    +0.000 A 
BRANCH  15  22
ATOM     21  O   UNL     1       8.067   5.594  13.832  0.00  0.00    +0.000 OA
ATOM     22  N   UNL     1       7.094   4.841  13.990  0.00  0.00    +0.000 N 
ATOM     23  O   UNL     1       6.690   4.029  13.145  0.00  0.00    +0.000 OA
ENDBRANCH  15  22
ENDBRANCH  13  18
ENDBRANCH   1  13
TORSDOF 6
ENDMDL
MODEL 6
REMARK VINA RESULT:      -6.7      2.626      8.160
REMARK  Name = 
REMARK  6 active torsions:
REMARK  status: ('A' for Active; 'I' for Inactive)
REMARK    1  A    between atoms: N_2  and  C_4
REMARK    2  A    between atoms: C_7  and  N_8
REMARK    3  A    between atoms: N_8  and  N_9
REMARK    4  A    between atoms: C_10  and  C_11
REMARK    5  A    between atoms: C_14  and  O_15
REMARK    6  A    between atoms: C_17  and  O_18
REMARK                            x       y       z     vdW  Elec       q    Type
REMARK                         _______ _______ _______ _____ _____    ______ ____
ROOT
ATOM      1  N   UNL     1       3.117   8.017  17.918  0.00  0.00    +0.000 NA
ATOM      2  C   UNL     1       3.182   6.786  17.524  0.00  0.00    +0.000 C 
ENDROOT
BRANCH   2   3
ATOM      3  C   UNL     1       4.486   6.089  17.432  0.00  0.00    +0.000 A 
ATOM      4  C   UNL     1       5.134   6.007  16.190  0.00  0.00    +0.000 A 
ATOM      5  C   UNL     1       6.355   5.338  16.071  0.00  0.00    +0.000 A 
ATOM      6  C   UNL     1       6.926   4.761  17.200  0.00  0.00    +0.000 A 
ATOM      7  C   UNL     1       6.302   4.840  18.442  0.00  0.00    +0.000 A 
ATOM      8  C   UNL     1       5.076   5.502  18.557  0.00  0.00    +0.000 A 
BRANCH   6   9
ATOM      9  O   UNL     1       8.114   4.095  17.133  0.00  0.00    +0.000 OA
ATOM     10  H   UNL     1       8.408   3.883  18.035  0.00  0.00    +0.000 HD
ENDBRANCH   6   9
BRANCH   8  11
ATOM     11  O   UNL     1       4.458   5.566  19.775  0.00  0.00    +0.000 OA
ATOM     12  H   UNL     1       4.514   4.691  20.198  0.00  0.00    +0.000 HD
ENDBRANCH   8  11
ENDBRANCH   2   3
BRANCH   1  13
ATOM     13  N   UNL     1       1.890   8.589  17.944  0.00  0.00    +0.000 N 
ATOM     14  H   UNL     1       1.238   8.500  17.171  0.00  0.00    +0.000 HD
BRANCH  13  18
ATOM     15  C   UNL     1       0.390   9.872  21.675  0.00  0.00    +0.000 A 
ATOM     16  C   UNL     1       1.103   8.674  21.593  0.00  0.00    +0.000 A 
ATOM     17  C   UNL     1       1.597   8.258  20.355  0.00  0.00    +0.000 A 
ATOM     18  C   UNL     1       1.375   9.007  19.187  0.00  0.00    +0.000 A 
ATOM     19  C   UNL     1       0.680  10.220  19.297  0.00  0.00    +0.000 A 
ATOM     20  C   UNL     1       0.177  10.653  20.532  0.00  0.00    +0.000 A 
BRANCH  15  22
ATOM     21  O   UNL     1      -0.067   9.533  23.924  0.00  0.00    +0.000 OA
ATOM     22  N   UNL     1      -0.134  10.321  22.969  0.00  0.00    +0.000 N 
ATOM     23  O   UNL     1      -0.613  11.462  23.033  0.00  0.00    +0.000 OA
ENDBRANCH  15  22
ENDBRANCH  13  18
ENDBRANCH   1  13
TORSDOF 6
ENDMDL
MODEL 7
REMARK VINA RESULT:      -6.7      3.591      8.134
REMARK  Name = 
REMARK  6 active torsions:
REMARK  status: ('A' for Active; 'I' for Inactive)
REMARK    1  A    between atoms: N_2  and  C_4
REMARK    2  A    between atoms: C_7  and  N_8
REMARK    3  A    between atoms: N_8  and  N_9
REMARK    4  A    between atoms: C_10  and  C_11
REMARK    5  A    between atoms: C_14  and  O_15
REMARK    6  A    between atoms: C_17  and  O_18
REMARK                            x       y       z     vdW  Elec       q    Type
REMARK                         _______ _______ _______ _____ _____    ______ ____
ROOT
ATOM      1  N   UNL     1       2.807   6.920  18.208  0.00  0.00    +0.000 NA
ATOM      2  C   UNL     1       2.068   5.859  18.146  0.00  0.00    +0.000 C 
ENDROOT
BRANCH   2   3
ATOM      3  C   UNL     1       2.669   4.510  18.264  0.00  0.00    +0.000 A 
ATOM      4  C   UNL     1       2.192   3.474  17.448  0.00  0.00    +0.000 A 
ATOM      5  C   UNL     1       2.727   2.187  17.552  0.00  0.00    +0.000 A 
ATOM      6  C   UNL     1       3.745   1.946  18.469  0.00  0.00    +0.000 A 
ATOM      7  C   UNL     1       4.236   2.965  19.282  0.00  0.00    +0.000 A 
ATOM      8  C   UNL     1       3.693   4.250  19.182  0.00  0.00    +0.000 A 
BRANCH   6   9
ATOM      9  O   UNL     1       4.295   0.707  18.610  0.00  0.00    +0.000 OA
ATOM     10  H   UNL     1       3.854   0.249  19.345  0.00  0.00    +0.000 HD
ENDBRANCH   6   9
BRANCH   8  11
ATOM     11  O   UNL     1       4.167   5.245  19.990  0.00  0.00    +0.000 OA
ATOM     12  H   UNL     1       4.976   5.611  19.590  0.00  0.00    +0.000 HD
ENDBRANCH   8  11
ENDBRANCH   2   3
BRANCH   1  13
ATOM     13  N   UNL     1       2.184   8.112  18.060  0.00  0.00    +0.000 N 
ATOM     14  H   UNL     1       1.914   8.470  17.149  0.00  0.00    +0.000 HD
BRANCH  13  18
ATOM     15  C   UNL     1       0.341   9.826  21.449  0.00  0.00    +0.000 A 
ATOM     16  C   UNL     1       0.163  10.415  20.194  0.00  0.00    +0.000 A 
ATOM     17  C   UNL     1       0.775   9.840  19.079  0.00  0.00    +0.000 A 
ATOM     18  C   UNL     1       1.583   8.696  19.192  0.00  0.00    +0.000 A 
ATOM     19  C   UNL     1       1.726   8.106  20.457  0.00  0.00    +0.000 A 
ATOM     20  C   UNL     1       1.118   8.670  21.588  0.00  0.00    +0.000 A 
BRANCH  15  22
ATOM     21  O   UNL     1      -1.090  11.355  22.448  0.00  0.00    +0.000 OA
ATOM     22  N   UNL     1      -0.297  10.420  22.629  0.00  0.00    +0.000 N 
ATOM     23  O   UNL     1      -0.005   9.951  23.738  0.00  0.00    +0.000 OA
ENDBRANCH  15  22
ENDBRANCH  13  18
ENDBRANCH   1  13
TORSDOF 6
ENDMDL
MODEL 8
REMARK VINA RESULT:      -6.7      3.589      8.139
REMARK  Name = 
REMARK  6 active torsions:
REMARK  status: ('A' for Active; 'I' for Inactive)
REMARK    1  A    between atoms: N_2  and  C_4
REMARK    2  A    between atoms: C_7  and  N_8
REMARK    3  A    between atoms: N_8  and  N_9
REMARK    4  A    between atoms: C_10  and  C_11
REMARK    5  A    between atoms: C_14  and  O_15
REMARK    6  A    between atoms: C_17  and  O_18
REMARK                            x       y       z     vdW  Elec       q    Type
REMARK                         _______ _______ _______ _____ _____    ______ ____
ROOT
ATOM      1  N   UNL     1       2.830   6.927  18.254  0.00  0.00    +0.000 NA
ATOM      2  C   UNL     1       2.099   5.869  18.108  0.00  0.00    +0.000 C 
ENDROOT
BRANCH   2   3
ATOM      3  C   UNL     1       2.690   4.517  18.240  0.00  0.00    +0.000 A 
ATOM      4  C   UNL     1       2.239   3.487  17.400  0.00  0.00    +0.000 A 
ATOM      5  C   UNL     1       2.765   2.197  17.516  0.00  0.00    +0.000 A 
ATOM      6  C   UNL     1       3.748   1.947  18.468  0.00  0.00    +0.000 A 
ATOM      7  C   UNL     1       4.213   2.959  19.304  0.00  0.00    +0.000 A 
ATOM      8  C   UNL     1       3.679   4.247  19.192  0.00  0.00    +0.000 A 
BRANCH   6   9
ATOM      9  O   UNL     1       4.288   0.705  18.621  0.00  0.00    +0.000 OA
ATOM     10  H   UNL     1       3.571   0.066  18.773  0.00  0.00    +0.000 HD
ENDBRANCH   6   9
BRANCH   8  11
ATOM     11  O   UNL     1       4.128   5.235  20.022  0.00  0.00    +0.000 OA
ATOM     12  H   UNL     1       4.488   4.824  20.829  0.00  0.00    +0.000 HD
ENDBRANCH   8  11
ENDBRANCH   2   3
BRANCH   1  13
ATOM     13  N   UNL     1       2.219   8.123  18.087  0.00  0.00    +0.000 N 
ATOM     14  H   UNL     1       1.989   8.487  17.167  0.00  0.00    +0.000 HD
BRANCH  13  18
ATOM     15  C   UNL     1       0.330   9.896  21.419  0.00  0.00    +0.000 A 
ATOM     16  C   UNL     1       1.043   8.705  21.582  0.00  0.00    +0.000 A 
ATOM     17  C   UNL     1       1.666   8.127  20.475  0.00  0.00    +0.000 A 
ATOM     18  C   UNL     1       1.574   8.704  19.196  0.00  0.00    +0.000 A 
ATOM     19  C   UNL     1       0.876   9.913  19.061  0.00  0.00    +0.000 A 
ATOM     20  C   UNL     1       0.245  10.508  20.162  0.00  0.00    +0.000 A 
BRANCH  15  22
ATOM     21  O   UNL     1      -0.062  10.067  23.700  0.00  0.00    +0.000 OA
ATOM     22  N   UNL     1      -0.328  10.515  22.575  0.00  0.00    +0.000 N 
ATOM     23  O   UNL     1      -1.113  11.449  22.359  0.00  0.00    +0.000 OA
ENDBRANCH  15  22
ENDBRANCH  13  18
ENDBRANCH   1  13
TORSDOF 6
ENDMDL
MODEL 9
REMARK VINA RESULT:      -6.6      5.810      7.033
REMARK  Name = 
REMARK  6 active torsions:
REMARK  status: ('A' for Active; 'I' for Inactive)
REMARK    1  A    between atoms: N_2  and  C_4
REMARK    2  A    between atoms: C_7  and  N_8
REMARK    3  A    between atoms: N_8  and  N_9
REMARK    4  A    between atoms: C_10  and  C_11
REMARK    5  A    between atoms: C_14  and  O_15
REMARK    6  A    between atoms: C_17  and  O_18
REMARK                            x       y       z     vdW  Elec       q    Type
REMARK                         _______ _______ _______ _____ _____    ______ ____
ROOT
ATOM      1  N   UNL     1       8.346   8.982  18.098  0.00  0.00    +0.000 NA
ATOM      2  C   UNL     1       8.585  10.189  17.698  0.00  0.00    +0.000 C 
ENDROOT
BRANCH   2   3
ATOM      3  C   UNL     1       9.092  11.213  18.642  0.00  0.00    +0.000 A 
ATOM      4  C   UNL     1       9.653  10.803  19.861  0.00  0.00    +0.000 A 
ATOM      5  C   UNL     1      10.121  11.748  20.778  0.00  0.00    +0.000 A 
ATOM      6  C   UNL     1      10.032  13.100  20.467  0.00  0.00    +0.000 A 
ATOM      7  C   UNL     1       9.485  13.524  19.258  0.00  0.00    +0.000 A 
ATOM      8  C   UNL     1       9.010  12.577  18.346  0.00  0.00    +0.000 A 
BRANCH   6   9
ATOM      9  O   UNL     1      10.470  14.059  21.331  0.00  0.00    +0.000 OA
ATOM     10  H   UNL     1      11.422  13.934  21.483  0.00  0.00    +0.000 HD
ENDBRANCH   6   9
BRANCH   8  11
ATOM     11  O   UNL     1       8.461  12.998  17.166  0.00  0.00    +0.000 OA
ATOM     12  H   UNL     1       7.581  13.373  17.349  0.00  0.00    +0.000 HD
ENDBRANCH   8  11
ENDBRANCH   2   3
BRANCH   1  13
ATOM     13  N   UNL     1       7.856   8.117  17.180  0.00  0.00    +0.000 N 
ATOM     14  H   UNL     1       8.240   8.051  16.242  0.00  0.00    +0.000 HD
BRANCH  13  18
ATOM     15  C   UNL     1       5.417   4.961  18.562  0.00  0.00    +0.000 A 
ATOM     16  C   UNL     1       6.698   5.129  19.095  0.00  0.00    +0.000 A 
ATOM     17  C   UNL     1       7.496   6.176  18.633  0.00  0.00    +0.000 A 
ATOM     18  C   UNL     1       7.050   7.053  17.629  0.00  0.00    +0.000 A 
ATOM     19  C   UNL     1       5.751   6.882  17.127  0.00  0.00    +0.000 A 
ATOM     20  C   UNL     1       4.936   5.836  17.580  0.00  0.00    +0.000 A 
BRANCH  15  22
ATOM     21  O   UNL     1       3.375   3.870  18.700  0.00  0.00    +0.000 OA
ATOM     22  N   UNL     1       4.567   3.865  19.039  0.00  0.00    +0.000 N 
ATOM     23  O   UNL     1       5.091   2.999  19.753  0.00  0.00    +0.000 OA
ENDBRANCH  15  22
ENDBRANCH  13  18
ENDBRANCH   1  13
TORSDOF 6
ENDMDL
