MODEL 1
REMARK VINA RESULT:      -6.8      0.000      0.000
REMARK  Name = 
REMARK  6 active torsions:
REMARK  status: ('A' for Active; 'I' for Inactive)
REMARK    1  A    between atoms: C_2  and  C_3
REMARK    2  A    between atoms: C_3  and  O_4
REMARK    3  A    between atoms: O_4  and  C_5
REMARK    4  A    between atoms: N_12  and  C_13
REMARK    5  A    between atoms: C_13  and  C_14
REMARK    6  A    between atoms: C_14  and  N_15
REMARK                            x       y       z     vdW  Elec       q    Type
REMARK                         _______ _______ _______ _____ _____    ______ ____
ROOT
ATOM      1  O   UNL     1       8.169   6.696  18.877  0.00  0.00    +0.000 OA
ATOM      2  C   UNL     1       7.653   7.265  17.914  0.00  0.00    +0.000 C 
ATOM      3  N   UNL     1       7.863   8.601  17.650  0.00  0.00    +0.000 N 
ATOM      4  H   UNL     1       7.219   9.102  17.047  0.00  0.00    +0.000 HD
ENDROOT
BRANCH   2   5
ATOM      5  C   UNL     1       6.802   6.507  16.892  0.00  0.00    +0.000 C 
BRANCH   5   6
ATOM      6  O   UNL     1       5.463   6.959  16.907  0.00  0.00    +0.000 OA
BRANCH   6   7
ATOM      7  C   UNL     1       4.471   6.079  17.254  0.00  0.00    +0.000 A 
ATOM      8  C   UNL     1       4.796   4.747  16.931  0.00  0.00    +0.000 A 
ATOM      9  C   UNL     1       3.895   3.698  17.133  0.00  0.00    +0.000 A 
ATOM     10  C   UNL     1       2.639   3.958  17.660  0.00  0.00    +0.000 A 
ATOM     11  C   UNL     1       2.289   5.271  17.982  0.00  0.00    +0.000 A 
ATOM     12  C   UNL     1       3.188   6.331  17.774  0.00  0.00    +0.000 A 
ATOM     13 BR   UNL     1       2.442   8.038  18.156  0.00  0.00    +0.000 Br
ENDBRANCH   6   7
ENDBRANCH   5   6
ENDBRANCH   2   5
BRANCH   3  14
ATOM     14  C   UNL     1       8.690   9.401  18.535  0.00  0.00    +0.000 C 
BRANCH  14  15
ATOM     15  C   UNL     1       8.922  10.824  17.996  0.00  0.00    +0.000 C 
BRANCH  15  16
ATOM     16  N   UNL     1      10.315  11.317  18.112  0.00  0.00    +0.000 NA
ATOM     17  C   UNL     1      10.479  12.619  17.437  0.00  0.00    +0.000 C 
ATOM     18  C   UNL     1      11.911  13.139  17.564  0.00  0.00    +0.000 C 
ATOM     19  C   UNL     1      12.333  13.252  19.021  0.00  0.00    +0.000 C 
ATOM     20  C   UNL     1      12.100  11.928  19.739  0.00  0.00    +0.000 C 
ATOM     21  C   UNL     1      10.665  11.438  19.542  0.00  0.00    +0.000 C 
ENDBRANCH  15  16
ENDBRANCH  14  15
ENDBRANCH   3  14
TORSDOF 6
ENDMDL
MODEL 2
REMARK VINA RESULT:      -6.5      2.631      8.987
REMARK  Name = 
REMARK  6 active torsions:
REMARK  status: ('A' for Active; 'I' for Inactive)
REMARK    1  A    between atoms: C_2  and  C_3
REMARK    2  A    between atoms: C_3  and  O_4
REMARK    3  A    between atoms: O_4  and  C_5
REMARK    4  A    between atoms: N_12  and  C_13
REMARK    5  A    between atoms: C_13  and  C_14
REMARK    6  A    between atoms: C_14  and  N_15
REMARK                            x       y       z     vdW  Elec       q    Type
REMARK                         _______ _______ _______ _____ _____    ______ ____
ROOT
ATOM      1  O   UNL     1       8.282   7.077  18.781  0.00  0.00    +0.000 OA
ATOM      2  C   UNL     1       7.852   7.820  17.899  0.00  0.00    +0.000 C 
ATOM      3  N   UNL     1       6.996   7.375  16.914  0.00  0.00    +0.000 N 
ATOM      4  H   UNL     1       6.891   7.909  16.059  0.00  0.00    +0.000 HD
ENDROOT
BRANCH   2   5
ATOM      5  C   UNL     1       8.174   9.316  17.877  0.00  0.00    +0.000 C 
BRANCH   5   6
ATOM      6  O   UNL     1       8.859   9.709  19.049  0.00  0.00    +0.000 OA
BRANCH   6   7
ATOM      7  C   UNL     1       9.552  10.891  19.046  0.00  0.00    +0.000 A 
ATOM      8  C   UNL     1      10.306  11.070  17.870  0.00  0.00    +0.000 A 
ATOM      9  C   UNL     1      11.144  12.174  17.691  0.00  0.00    +0.000 A 
ATOM     10  C   UNL     1      11.253  13.128  18.692  0.00  0.00    +0.000 A 
ATOM     11  C   UNL     1      10.521  12.971  19.872  0.00  0.00    +0.000 A 
ATOM     12  C   UNL     1       9.683  11.859  20.060  0.00  0.00    +0.000 A 
ATOM     13 BR   UNL     1       8.899  11.790  21.791  0.00  0.00    +0.000 Br
ENDBRANCH   6   7
ENDBRANCH   5   6
ENDBRANCH   2   5
BRANCH   3  14
ATOM     14  C   UNL     1       6.593   5.981  16.870  0.00  0.00    +0.000 C 
BRANCH  14  15
ATOM     15  C   UNL     1       5.103   5.788  17.202  0.00  0.00    +0.000 C 
BRANCH  15  16
ATOM     16  N   UNL     1       4.732   4.422  17.640  0.00  0.00    +0.000 NA
ATOM     17  C   UNL     1       4.904   4.263  19.097  0.00  0.00    +0.000 C 
ATOM     18  C   UNL     1       4.510   2.859  19.557  0.00  0.00    +0.000 C 
ATOM     19  C   UNL     1       3.078   2.527  19.163  0.00  0.00    +0.000 C 
ATOM     20  C   UNL     1       2.879   2.757  17.671  0.00  0.00    +0.000 C 
ATOM     21  C   UNL     1       3.329   4.161  17.262  0.00  0.00    +0.000 C 
ENDBRANCH  15  16
ENDBRANCH  14  15
ENDBRANCH   3  14
TORSDOF 6
ENDMDL
MODEL 3
REMARK VINA RESULT:      -6.4      5.481      8.462
REMARK  Name = 
REMARK  6 active torsions:
REMARK  status: ('A' for Active; 'I' for Inactive)
REMARK    1  A    between atoms: C_2  and  C_3
REMARK    2  A    between atoms: C_3  and  O_4
REMARK    3  A    between atoms: O_4  and  C_5
REMARK    4  A    between atoms: N_12  and  C_13
REMARK    5  A    between atoms: C_13  and  C_14
REMARK    6  A    between atoms: C_14  and  N_15
REMARK                            x       y       z     vdW  Elec       q    Type
REMARK                         _______ _______ _______ _____ _____    ______ ____
ROOT
ATOM      1  O   UNL     1       1.876   5.843  17.763  0.00  0.00    +0.000 OA
ATOM      2  C   UNL     1       2.619   6.634  18.346  0.00  0.00    +0.000 C 
ATOM      3  N   UNL     1       2.659   6.729  19.720  0.00  0.00    +0.000 N 
ATOM      4  H   UNL     1       3.044   7.560  20.156  0.00  0.00    +0.000 HD
ENDROOT
BRANCH   2   5
ATOM      5  C   UNL     1       3.612   7.516  17.586  0.00  0.00    +0.000 C 
BRANCH   5   6
ATOM      6  O   UNL     1       4.944   7.229  17.963  0.00  0.00    +0.000 OA
BRANCH   6   7
ATOM      7  C   UNL     1       5.657   6.316  17.231  0.00  0.00    +0.000 A 
ATOM      8  C   UNL     1       5.063   6.046  15.982  0.00  0.00    +0.000 A 
ATOM      9  C   UNL     1       5.587   5.090  15.108  0.00  0.00    +0.000 A 
ATOM     10  C   UNL     1       6.719   4.374  15.465  0.00  0.00    +0.000 A 
ATOM     11  C   UNL     1       7.323   4.617  16.701  0.00  0.00    +0.000 A 
ATOM     12  C   UNL     1       6.796   5.572  17.588  0.00  0.00    +0.000 A 
ATOM     13 BR   UNL     1       7.703   5.631  19.258  0.00  0.00    +0.000 Br
ENDBRANCH   6   7
ENDBRANCH   5   6
ENDBRANCH   2   5
BRANCH   3  14
ATOM     14  C   UNL     1       1.786   5.904  20.537  0.00  0.00    +0.000 C 
BRANCH  14  15
ATOM     15  C   UNL     1       2.521   4.701  21.151  0.00  0.00    +0.000 C 
BRANCH  15  16
ATOM     16  N   UNL     1       2.453   3.453  20.355  0.00  0.00    +0.000 NA
ATOM     17  C   UNL     1       1.218   3.401  19.547  0.00  0.00    +0.000 C 
ATOM     18  C   UNL     1       1.148   2.122  18.714  0.00  0.00    +0.000 C 
ATOM     19  C   UNL     1       2.365   1.980  17.812  0.00  0.00    +0.000 C 
ATOM     20  C   UNL     1       3.643   2.102  18.632  0.00  0.00    +0.000 C 
ATOM     21  C   UNL     1       3.638   3.378  19.477  0.00  0.00    +0.000 C 
ENDBRANCH  15  16
ENDBRANCH  14  15
ENDBRANCH   3  14
TORSDOF 6
ENDMDL
MODEL 4
REMARK VINA RESULT:      -6.4      2.567      8.870
REMARK  Name = 
REMARK  6 active torsions:
REMARK  status: ('A' for Active; 'I' for Inactive)
REMARK    1  A    between atoms: C_2  and  C_3
REMARK    2  A    between atoms: C_3  and  O_4
REMARK    3  A    between atoms: O_4  and  C_5
REMARK    4  A    between atoms: N_12  and  C_13
REMARK    5  A    between atoms: C_13  and  C_14
REMARK    6  A    between atoms: C_14  and  N_15
REMARK                            x       y       z     vdW  Elec       q    Type
REMARK                         _______ _______ _______ _____ _____    ______ ____
ROOT
ATOM      1  O   UNL     1       7.649   8.318  17.080  0.00  0.00    +0.000 OA
ATOM      2  C   UNL     1       8.166   8.199  18.191  0.00  0.00    +0.000 C 
ATOM      3  N   UNL     1       8.181   6.999  18.870  0.00  0.00    +0.000 N 
ATOM      4  H   UNL     1       8.342   6.989  19.871  0.00  0.00    +0.000 HD
ENDROOT
BRANCH   2   5
ATOM      5  C   UNL     1       8.902   9.358  18.867  0.00  0.00    +0.000 C 
BRANCH   5   6
ATOM      6  O   UNL     1       9.074  10.443  17.978  0.00  0.00    +0.000 OA
BRANCH   6   7
ATOM      7  C   UNL     1       9.670  11.588  18.438  0.00  0.00    +0.000 A 
ATOM      8  C   UNL     1      10.836  11.325  19.184  0.00  0.00    +0.000 A 
ATOM      9  C   UNL     1      11.560  12.345  19.807  0.00  0.00    +0.000 A 
ATOM     10  C   UNL     1      11.129  13.660  19.703  0.00  0.00    +0.000 A 
ATOM     11  C   UNL     1       9.972  13.947  18.975  0.00  0.00    +0.000 A 
ATOM     12  C   UNL     1       9.236  12.923  18.353  0.00  0.00    +0.000 A 
ATOM     13 BR   UNL     1       7.631  13.537  17.540  0.00  0.00    +0.000 Br
ENDBRANCH   6   7
ENDBRANCH   5   6
ENDBRANCH   2   5
BRANCH   3  14
ATOM     14  C   UNL     1       7.547   5.826  18.297  0.00  0.00    +0.000 C 
BRANCH  14  15
ATOM     15  C   UNL     1       6.349   5.338  19.130  0.00  0.00    +0.000 C 
BRANCH  15  16
ATOM     16  N   UNL     1       5.142   4.987  18.343  0.00  0.00    +0.000 NA
ATOM     17  C   UNL     1       4.696   3.611  18.637  0.00  0.00    +0.000 C 
ATOM     18  C   UNL     1       3.445   3.247  17.838  0.00  0.00    +0.000 C 
ATOM     19  C   UNL     1       2.312   4.228  18.102  0.00  0.00    +0.000 C 
ATOM     20  C   UNL     1       2.790   5.655  17.867  0.00  0.00    +0.000 C 
ATOM     21  C   UNL     1       4.067   5.948  18.658  0.00  0.00    +0.000 C 
ENDBRANCH  15  16
ENDBRANCH  14  15
ENDBRANCH   3  14
TORSDOF 6
ENDMDL
MODEL 5
REMARK VINA RESULT:      -6.4      6.566      9.170
REMARK  Name = 
REMARK  6 active torsions:
REMARK  status: ('A' for Active; 'I' for Inactive)
REMARK    1  A    between atoms: C_2  and  C_3
REMARK    2  A    between atoms: C_3  and  O_4
REMARK    3  A    between atoms: O_4  and  C_5
REMARK    4  A    between atoms: N_12  and  C_13
REMARK    5  A    between atoms: C_13  and  C_14
REMARK    6  A    between atoms: C_14  and  N_15
REMARK                            x       y       z     vdW  Elec       q    Type
REMARK                         _______ _______ _______ _____ _____    ______ ____
ROOT
ATOM      1  O   UNL     1       2.044   9.231  17.285  0.00  0.00    +0.000 OA
ATOM      2  C   UNL     1       1.796   8.836  18.424  0.00  0.00    +0.000 C 
ATOM      3  N   UNL     1       0.876   9.463  19.237  0.00  0.00    +0.000 N 
ATOM      4  H   UNL     1       0.900   9.307  20.238  0.00  0.00    +0.000 HD
ENDROOT
BRANCH   2   5
ATOM      5  C   UNL     1       2.436   7.568  18.995  0.00  0.00    +0.000 C 
BRANCH   5   6
ATOM      6  O   UNL     1       3.377   7.020  18.094  0.00  0.00    +0.000 OA
BRANCH   6   7
ATOM      7  C   UNL     1       3.302   5.686  17.788  0.00  0.00    +0.000 A 
ATOM      8  C   UNL     1       2.035   5.139  18.069  0.00  0.00    +0.000 A 
ATOM      9  C   UNL     1       1.764   3.779  17.900  0.00  0.00    +0.000 A 
ATOM     10  C   UNL     1       2.761   2.927  17.448  0.00  0.00    +0.000 A 
ATOM     11  C   UNL     1       4.029   3.442  17.169  0.00  0.00    +0.000 A 
ATOM     12  C   UNL     1       4.309   4.809  17.344  0.00  0.00    +0.000 A 
ATOM     13 BR   UNL     1       6.132   5.250  17.033  0.00  0.00    +0.000 Br
ENDBRANCH   6   7
ENDBRANCH   5   6
ENDBRANCH   2   5
BRANCH   3  14
ATOM     14  C   UNL     1       0.182  10.651  18.774  0.00  0.00    +0.000 C 
BRANCH  14  15
ATOM     15  C   UNL     1      -1.249  10.750  19.332  0.00  0.00    +0.000 C 
BRANCH  15  16
ATOM     16  N   UNL     1      -2.324  10.481  18.348  0.00  0.00    +0.000 NA
ATOM     17  C   UNL     1      -3.157  11.679  18.127  0.00  0.00    +0.000 C 
ATOM     18  C   UNL     1      -4.260  11.412  17.103  0.00  0.00    +0.000 C 
ATOM     19  C   UNL     1      -3.685  10.927  15.780  0.00  0.00    +0.000 C 
ATOM     20  C   UNL     1      -2.768   9.733  16.014  0.00  0.00    +0.000 C 
ATOM     21  C   UNL     1      -1.713  10.045  17.077  0.00  0.00    +0.000 C 
ENDBRANCH  15  16
ENDBRANCH  14  15
ENDBRANCH   3  14
TORSDOF 6
ENDMDL
MODEL 6
REMARK VINA RESULT:      -6.4      6.257      9.131
REMARK  Name = 
REMARK  6 active torsions:
REMARK  status: ('A' for Active; 'I' for Inactive)
REMARK    1  A    between atoms: C_2  and  C_3
REMARK    2  A    between atoms: C_3  and  O_4
REMARK    3  A    between atoms: O_4  and  C_5
REMARK    4  A    between atoms: N_12  and  C_13
REMARK    5  A    between atoms: C_13  and  C_14
REMARK    6  A    between atoms: C_14  and  N_15
REMARK                            x       y       z     vdW  Elec       q    Type
REMARK                         _______ _______ _______ _____ _____    ______ ____
ROOT
ATOM      1  O   UNL     1       2.215   7.263  19.682  0.00  0.00    +0.000 OA
ATOM      2  C   UNL     1       2.475   7.714  18.566  0.00  0.00    +0.000 C 
ATOM      3  N   UNL     1       3.397   7.120  17.731  0.00  0.00    +0.000 N 
ATOM      4  H   UNL     1       3.800   7.651  16.967  0.00  0.00    +0.000 HD
ENDROOT
BRANCH   2   5
ATOM      5  C   UNL     1       1.736   8.924  17.992  0.00  0.00    +0.000 C 
BRANCH   5   6
ATOM      6  O   UNL     1       1.236   9.754  19.021  0.00  0.00    +0.000 OA
BRANCH   6   7
ATOM      7  C   UNL     1      -0.029  10.266  18.903  0.00  0.00    +0.000 A 
ATOM      8  C   UNL     1      -0.669   9.854  17.717  0.00  0.00    +0.000 A 
ATOM      9  C   UNL     1      -1.938  10.318  17.363  0.00  0.00    +0.000 A 
ATOM     10  C   UNL     1      -2.599  11.217  18.187  0.00  0.00    +0.000 A 
ATOM     11  C   UNL     1      -1.985  11.648  19.364  0.00  0.00    +0.000 A 
ATOM     12  C   UNL     1      -0.705  11.190  19.722  0.00  0.00    +0.000 A 
ATOM     13 BR   UNL     1      -0.019  12.017  21.290  0.00  0.00    +0.000 Br
ENDBRANCH   6   7
ENDBRANCH   5   6
ENDBRANCH   2   5
BRANCH   3  14
ATOM     14  C   UNL     1       4.124   5.940  18.164  0.00  0.00    +0.000 C 
BRANCH  14  15
ATOM     15  C   UNL     1       3.584   4.649  17.524  0.00  0.00    +0.000 C 
BRANCH  15  16
ATOM     16  N   UNL     1       2.946   3.702  18.469  0.00  0.00    +0.000 NA
ATOM     17  C   UNL     1       3.360   3.974  19.859  0.00  0.00    +0.000 C 
ATOM     18  C   UNL     1       2.695   3.009  20.840  0.00  0.00    +0.000 C 
ATOM     19  C   UNL     1       1.178   3.063  20.730  0.00  0.00    +0.000 C 
ATOM     20  C   UNL     1       0.751   2.851  19.283  0.00  0.00    +0.000 C 
ATOM     21  C   UNL     1       1.479   3.815  18.344  0.00  0.00    +0.000 C 
ENDBRANCH  15  16
ENDBRANCH  14  15
ENDBRANCH   3  14
TORSDOF 6
ENDMDL
MODEL 7
REMARK VINA RESULT:      -6.3      2.366      9.023
REMARK  Name = 
REMARK  6 active torsions:
REMARK  status: ('A' for Active; 'I' for Inactive)
REMARK    1  A    between atoms: C_2  and  C_3
REMARK    2  A    between atoms: C_3  and  O_4
REMARK    3  A    between atoms: O_4  and  C_5
REMARK    4  A    between atoms: N_12  and  C_13
REMARK    5  A    between atoms: C_13  and  C_14
REMARK    6  A    between atoms: C_14  and  N_15
REMARK                            x       y       z     vdW  Elec       q    Type
REMARK                         _______ _______ _______ _____ _____    ______ ____
ROOT
ATOM      1  O   UNL     1       8.246   7.094  18.667  0.00  0.00    +0.000 OA
ATOM      2  C   UNL     1       7.800   7.854  17.806  0.00  0.00    +0.000 C 
ATOM      3  N   UNL     1       6.776   7.486  16.960  0.00  0.00    +0.000 N 
ATOM      4  H   UNL     1       6.628   7.997  16.097  0.00  0.00    +0.000 HD
ENDROOT
BRANCH   2   5
ATOM      5  C   UNL     1       8.297   9.294  17.666  0.00  0.00    +0.000 C 
BRANCH   5   6
ATOM      6  O   UNL     1       8.607   9.854  18.926  0.00  0.00    +0.000 OA
BRANCH   6   7
ATOM      7  C   UNL     1       9.358  10.999  18.976  0.00  0.00    +0.000 A 
ATOM      8  C   UNL     1      10.454  10.887  19.854  0.00  0.00    +0.000 A 
ATOM      9  C   UNL     1      11.308  11.963  20.110  0.00  0.00    +0.000 A 
ATOM     10  C   UNL     1      11.081  13.186  19.494  0.00  0.00    +0.000 A 
ATOM     11  C   UNL     1       9.998  13.326  18.625  0.00  0.00    +0.000 A 
ATOM     12  C   UNL     1       9.131  12.249  18.370  0.00  0.00    +0.000 A 
ATOM     13 BR   UNL     1       7.655  12.714  17.265  0.00  0.00    +0.000 Br
ENDBRANCH   6   7
ENDBRANCH   5   6
ENDBRANCH   2   5
BRANCH   3  14
ATOM     14  C   UNL     1       6.204   6.154  17.039  0.00  0.00    +0.000 C 
BRANCH  14  15
ATOM     15  C   UNL     1       4.925   6.114  17.893  0.00  0.00    +0.000 C 
BRANCH  15  16
ATOM     16  N   UNL     1       3.971   5.036  17.540  0.00  0.00    +0.000 NA
ATOM     17  C   UNL     1       4.387   3.743  18.117  0.00  0.00    +0.000 C 
ATOM     18  C   UNL     1       3.400   2.630  17.767  0.00  0.00    +0.000 C 
ATOM     19  C   UNL     1       1.990   2.974  18.225  0.00  0.00    +0.000 C 
ATOM     20  C   UNL     1       1.583   4.340  17.687  0.00  0.00    +0.000 C 
ATOM     21  C   UNL     1       2.628   5.403  18.031  0.00  0.00    +0.000 C 
ENDBRANCH  15  16
ENDBRANCH  14  15
ENDBRANCH   3  14
TORSDOF 6
ENDMDL
MODEL 8
REMARK VINA RESULT:      -6.3      1.447      1.685
REMARK  Name = 
REMARK  6 active torsions:
REMARK  status: ('A' for Active; 'I' for Inactive)
REMARK    1  A    between atoms: C_2  and  C_3
REMARK    2  A    between atoms: C_3  and  O_4
REMARK    3  A    between atoms: O_4  and  C_5
REMARK    4  A    between atoms: N_12  and  C_13
REMARK    5  A    between atoms: C_13  and  C_14
REMARK    6  A    between atoms: C_14  and  N_15
REMARK                            x       y       z     vdW  Elec       q    Type
REMARK                         _______ _______ _______ _____ _____    ______ ____
ROOT
ATOM      1  O   UNL     1       7.507   6.261  16.178  0.00  0.00    +0.000 OA
ATOM      2  C   UNL     1       6.666   6.740  16.939  0.00  0.00    +0.000 C 
ATOM      3  N   UNL     1       6.943   7.815  17.757  0.00  0.00    +0.000 N 
ATOM      4  H   UNL     1       6.352   8.002  18.560  0.00  0.00    +0.000 HD
ENDROOT
BRANCH   2   5
ATOM      5  C   UNL     1       5.225   6.227  16.975  0.00  0.00    +0.000 C 
BRANCH   5   6
ATOM      6  O   UNL     1       4.922   5.641  18.225  0.00  0.00    +0.000 OA
BRANCH   6   7
ATOM      7  C   UNL     1       3.787   4.882  18.343  0.00  0.00    +0.000 A 
ATOM      8  C   UNL     1       3.845   3.703  17.573  0.00  0.00    +0.000 A 
ATOM      9  C   UNL     1       2.764   2.822  17.491  0.00  0.00    +0.000 A 
ATOM     10  C   UNL     1       1.591   3.102  18.175  0.00  0.00    +0.000 A 
ATOM     11  C   UNL     1       1.504   4.268  18.939  0.00  0.00    +0.000 A 
ATOM     12  C   UNL     1       2.586   5.162  19.019  0.00  0.00    +0.000 A 
ATOM     13 BR   UNL     1       2.188   6.740  20.003  0.00  0.00    +0.000 Br
ENDBRANCH   6   7
ENDBRANCH   5   6
ENDBRANCH   2   5
BRANCH   3  14
ATOM     14  C   UNL     1       8.269   8.405  17.767  0.00  0.00    +0.000 C 
BRANCH  14  15
ATOM     15  C   UNL     1       8.249   9.891  18.165  0.00  0.00    +0.000 C 
BRANCH  15  16
ATOM     16  N   UNL     1       9.508  10.396  18.762  0.00  0.00    +0.000 NA
ATOM     17  C   UNL     1      10.215  11.300  17.834  0.00  0.00    +0.000 C 
ATOM     18  C   UNL     1      11.508  11.834  18.448  0.00  0.00    +0.000 C 
ATOM     19  C   UNL     1      11.243  12.547  19.767  0.00  0.00    +0.000 C 
ATOM     20  C   UNL     1      10.452  11.640  20.702  0.00  0.00    +0.000 C 
ATOM     21  C   UNL     1       9.193  11.103  20.019  0.00  0.00    +0.000 C 
ENDBRANCH  15  16
ENDBRANCH  14  15
ENDBRANCH   3  14
TORSDOF 6
ENDMDL
MODEL 9
REMARK VINA RESULT:      -6.2      5.693      8.509
REMARK  Name = 
REMARK  6 active torsions:
REMARK  status: ('A' for Active; 'I' for Inactive)
REMARK    1  A    between atoms: C_2  and  C_3
REMARK    2  A    between atoms: C_3  and  O_4
REMARK    3  A    between atoms: O_4  and  C_5
REMARK    4  A    between atoms: N_12  and  C_13
REMARK    5  A    between atoms: C_13  and  C_14
REMARK    6  A    between atoms: C_14  and  N_15
REMARK                            x       y       z     vdW  Elec       q    Type
REMARK                         _______ _______ _______ _____ _____    ______ ____
ROOT
ATOM      1  O   UNL     1       5.702   4.968  18.549  0.00  0.00    +0.000 OA
ATOM      2  C   UNL     1       4.840   5.366  17.763  0.00  0.00    +0.000 C 
ATOM      3  N   UNL     1       4.107   4.502  16.977  0.00  0.00    +0.000 N 
ATOM      4  H   UNL     1       3.630   4.853  16.155  0.00  0.00    +0.000 HD
ENDROOT
BRANCH   2   5
ATOM      5  C   UNL     1       4.465   6.845  17.660  0.00  0.00    +0.000 C 
BRANCH   5   6
ATOM      6  O   UNL     1       3.062   7.017  17.642  0.00  0.00    +0.000 OA
BRANCH   6   7
ATOM      7  C   UNL     1       2.432   7.444  18.782  0.00  0.00    +0.000 A 
ATOM      8  C   UNL     1       2.282   6.415  19.732  0.00  0.00    +0.000 A 
ATOM      9  C   UNL     1       1.602   6.616  20.936  0.00  0.00    +0.000 A 
ATOM     10  C   UNL     1       1.049   7.856  21.218  0.00  0.00    +0.000 A 
ATOM     11  C   UNL     1       1.177   8.891  20.290  0.00  0.00    +0.000 A 
ATOM     12  C   UNL     1       1.853   8.693  19.074  0.00  0.00    +0.000 A 
ATOM     13 BR   UNL     1       1.781  10.200  17.916  0.00  0.00    +0.000 Br
ENDBRANCH   6   7
ENDBRANCH   5   6
ENDBRANCH   2   5
BRANCH   3  14
ATOM     14  C   UNL     1       4.356   3.073  17.032  0.00  0.00    +0.000 C 
BRANCH  14  15
ATOM     15  C   UNL     1       3.175   2.293  17.636  0.00  0.00    +0.000 C 
BRANCH  15  16
ATOM     16  N   UNL     1       2.603   2.883  18.869  0.00  0.00    +0.000 NA
ATOM     17  C   UNL     1       1.183   2.512  19.030  0.00  0.00    +0.000 C 
ATOM     18  C   UNL     1       0.591   3.107  20.307  0.00  0.00    +0.000 C 
ATOM     19  C   UNL     1       1.381   2.682  21.536  0.00  0.00    +0.000 C 
ATOM     20  C   UNL     1       2.858   3.000  21.345  0.00  0.00    +0.000 C 
ATOM     21  C   UNL     1       3.385   2.417  20.032  0.00  0.00    +0.000 C 
ENDBRANCH  15  16
ENDBRANCH  14  15
ENDBRANCH   3  14
TORSDOF 6
ENDMDL
