MODEL 1
REMARK VINA RESULT:      -6.3      0.000      0.000
REMARK  Name = 
REMARK  9 active torsions:
REMARK  status: ('A' for Active; 'I' for Inactive)
REMARK    1  A    between atoms: N_1  and  C_2
REMARK    2  A    between atoms: C_2  and  C_3
REMARK    3  A    between atoms: C_3  and  O_4
REMARK    4  A    between atoms: O_4  and  C_5
REMARK    5  A    between atoms: C_5  and  C_6
REMARK    6  A    between atoms: C_6  and  O_7
REMARK    7  A    between atoms: O_7  and  C_8
REMARK    8  A    between atoms: C_8  and  N_9
REMARK    9  A    between atoms: C_13  and  O_14
REMARK                            x       y       z     vdW  Elec       q    Type
REMARK                         _______ _______ _______ _____ _____    ______ ____
ROOT
ATOM      1  N   UNL     1       4.494   5.759  18.146  0.00  0.00    +0.000 N 
ATOM      2  C   UNL     1       4.896   5.363  19.395  0.00  0.00    +0.000 A 
ATOM      3  N   UNL     1       6.110   4.845  19.381  0.00  0.00    +0.000 NA
ATOM      4  C   UNL     1       6.480   4.883  18.059  0.00  0.00    +0.000 A 
ATOM      5  C   UNL     1       7.625   4.482  17.382  0.00  0.00    +0.000 A 
ATOM      6  N   UNL     1       7.712   4.617  16.044  0.00  0.00    +0.000 NA
ATOM      7  C   UNL     1       6.657   5.140  15.394  0.00  0.00    +0.000 A 
ATOM      8  N   UNL     1       6.777   5.251  14.023  0.00  0.00    +0.000 N 
ATOM      9  N   UNL     1       5.514   5.598  15.937  0.00  0.00    +0.000 NA
ATOM     10  C   UNL     1       5.490   5.434  17.269  0.00  0.00    +0.000 A 
ATOM     11  H   UNL     1       7.757   5.261  13.773  0.00  0.00    +0.000 HD
ATOM     12  H   UNL     1       6.200   6.004  13.679  0.00  0.00    +0.000 HD
ENDROOT
BRANCH   5  13
ATOM     13  O   UNL     1       8.702   3.932  18.034  0.00  0.00    +0.000 OA
ATOM     14  H   UNL     1       9.187   4.702  18.386  0.00  0.00    +0.000 HD
ENDBRANCH   5  13
BRANCH   1  15
ATOM     15  C   UNL     1       3.216   6.327  17.777  0.00  0.00    +0.000 C 
BRANCH  15  16
ATOM     16  O   UNL     1       2.192   5.697  18.537  0.00  0.00    +0.000 OA
BRANCH  16  17
ATOM     17  C   UNL     1       1.501   4.668  17.820  0.00  0.00    +0.000 C 
BRANCH  17  18
ATOM     18  C   UNL     1       1.808   3.253  18.322  0.00  0.00    +0.000 C 
BRANCH  18  19
ATOM     19  O   UNL     1       2.646   2.587  17.375  0.00  0.00    +0.000 OA
BRANCH  19  20
ATOM     20  C   UNL     1       3.629   1.773  18.024  0.00  0.00    +0.000 C 
BRANCH  20  21
ATOM     21  C   UNL     1       3.664   2.106  19.520  0.00  0.00    +0.000 C 
BRANCH  21  22
ATOM     22  N   UNL     1       4.998   1.897  20.087  0.00  0.00    +0.000 NA
ATOM     23  H   UNL     1       5.607   1.499  19.374  0.00  0.00    +0.000 HD
ATOM     24  H   UNL     1       4.915   1.187  20.819  0.00  0.00    +0.000 HD
ENDBRANCH  21  22
ENDBRANCH  20  21
ENDBRANCH  19  20
ENDBRANCH  18  19
ENDBRANCH  17  18
ENDBRANCH  16  17
ENDBRANCH  15  16
ENDBRANCH   1  15
TORSDOF 9
ENDMDL
MODEL 2
REMARK VINA RESULT:      -6.0      2.248      3.499
REMARK  Name = 
REMARK  9 active torsions:
REMARK  status: ('A' for Active; 'I' for Inactive)
REMARK    1  A    between atoms: N_1  and  C_2
REMARK    2  A    between atoms: C_2  and  C_3
REMARK    3  A    between atoms: C_3  and  O_4
REMARK    4  A    between atoms: O_4  and  C_5
REMARK    5  A    between atoms: C_5  and  C_6
REMARK    6  A    between atoms: C_6  and  O_7
REMARK    7  A    between atoms: O_7  and  C_8
REMARK    8  A    between atoms: C_8  and  N_9
REMARK    9  A    between atoms: C_13  and  O_14
REMARK                            x       y       z     vdW  Elec       q    Type
REMARK                         _______ _______ _______ _____ _____    ______ ____
ROOT
ATOM      1  N   UNL     1       5.336   4.702  16.886  0.00  0.00    +0.000 N 
ATOM      2  C   UNL     1       5.023   5.587  15.886  0.00  0.00    +0.000 A 
ATOM      3  N   UNL     1       5.761   6.679  15.946  0.00  0.00    +0.000 NA
ATOM      4  C   UNL     1       6.552   6.493  17.054  0.00  0.00    +0.000 A 
ATOM      5  C   UNL     1       7.528   7.272  17.663  0.00  0.00    +0.000 A 
ATOM      6  N   UNL     1       8.143   6.846  18.785  0.00  0.00    +0.000 NA
ATOM      7  C   UNL     1       7.773   5.655  19.290  0.00  0.00    +0.000 A 
ATOM      8  N   UNL     1       8.415   5.257  20.447  0.00  0.00    +0.000 N 
ATOM      9  N   UNL     1       6.874   4.798  18.776  0.00  0.00    +0.000 NA
ATOM     10  C   UNL     1       6.299   5.280  17.663  0.00  0.00    +0.000 A 
ATOM     11  H   UNL     1       9.298   5.743  20.524  0.00  0.00    +0.000 HD
ATOM     12  H   UNL     1       8.429   4.251  20.512  0.00  0.00    +0.000 HD
ENDROOT
BRANCH   5  13
ATOM     13  O   UNL     1       7.903   8.496  17.164  0.00  0.00    +0.000 OA
ATOM     14  H   UNL     1       8.762   8.327  16.736  0.00  0.00    +0.000 HD
ENDBRANCH   5  13
BRANCH   1  15
ATOM     15  C   UNL     1       4.706   3.428  17.155  0.00  0.00    +0.000 C 
BRANCH  15  16
ATOM     16  O   UNL     1       4.131   3.460  18.456  0.00  0.00    +0.000 OA
BRANCH  16  17
ATOM     17  C   UNL     1       3.647   2.187  18.897  0.00  0.00    +0.000 C 
BRANCH  17  18
ATOM     18  C   UNL     1       2.121   2.111  19.005  0.00  0.00    +0.000 C 
BRANCH  18  19
ATOM     19  O   UNL     1       1.584   3.435  19.053  0.00  0.00    +0.000 OA
BRANCH  19  20
ATOM     20  C   UNL     1       1.040   3.736  20.343  0.00  0.00    +0.000 C 
BRANCH  20  21
ATOM     21  C   UNL     1       2.119   4.393  21.213  0.00  0.00    +0.000 C 
BRANCH  21  22
ATOM     22  N   UNL     1       2.741   5.530  20.531  0.00  0.00    +0.000 NA
ATOM     23  H   UNL     1       2.419   5.559  19.565  0.00  0.00    +0.000 HD
ATOM     24  H   UNL     1       3.748   5.352  20.489  0.00  0.00    +0.000 HD
ENDBRANCH  21  22
ENDBRANCH  20  21
ENDBRANCH  19  20
ENDBRANCH  18  19
ENDBRANCH  17  18
ENDBRANCH  16  17
ENDBRANCH  15  16
ENDBRANCH   1  15
TORSDOF 9
ENDMDL
MODEL 3
REMARK VINA RESULT:      -6.0      1.283      1.360
REMARK  Name = 
REMARK  9 active torsions:
REMARK  status: ('A' for Active; 'I' for Inactive)
REMARK    1  A    between atoms: N_1  and  C_2
REMARK    2  A    between atoms: C_2  and  C_3
REMARK    3  A    between atoms: C_3  and  O_4
REMARK    4  A    between atoms: O_4  and  C_5
REMARK    5  A    between atoms: C_5  and  C_6
REMARK    6  A    between atoms: C_6  and  O_7
REMARK    7  A    between atoms: O_7  and  C_8
REMARK    8  A    between atoms: C_8  and  N_9
REMARK    9  A    between atoms: C_13  and  O_14
REMARK                            x       y       z     vdW  Elec       q    Type
REMARK                         _______ _______ _______ _____ _____    ______ ____
ROOT
ATOM      1  N   UNL     1       4.470   5.639  18.199  0.00  0.00    +0.000 N 
ATOM      2  C   UNL     1       4.899   5.244  19.440  0.00  0.00    +0.000 A 
ATOM      3  N   UNL     1       6.128   4.764  19.406  0.00  0.00    +0.000 NA
ATOM      4  C   UNL     1       6.480   4.825  18.079  0.00  0.00    +0.000 A 
ATOM      5  C   UNL     1       7.628   4.464  17.385  0.00  0.00    +0.000 A 
ATOM      6  N   UNL     1       7.694   4.613  16.047  0.00  0.00    +0.000 NA
ATOM      7  C   UNL     1       6.616   5.109  15.416  0.00  0.00    +0.000 A 
ATOM      8  N   UNL     1       6.715   5.235  14.043  0.00  0.00    +0.000 N 
ATOM      9  N   UNL     1       5.466   5.527  15.976  0.00  0.00    +0.000 NA
ATOM     10  C   UNL     1       5.464   5.352  17.307  0.00  0.00    +0.000 A 
ATOM     11  H   UNL     1       7.691   5.278  13.782  0.00  0.00    +0.000 HD
ATOM     12  H   UNL     1       6.112   5.973  13.714  0.00  0.00    +0.000 HD
ENDROOT
BRANCH   5  13
ATOM     13  O   UNL     1       8.730   3.943  18.019  0.00  0.00    +0.000 OA
ATOM     14  H   UNL     1       8.639   2.979  17.902  0.00  0.00    +0.000 HD
ENDBRANCH   5  13
BRANCH   1  15
ATOM     15  C   UNL     1       3.170   6.171  17.851  0.00  0.00    +0.000 C 
BRANCH  15  16
ATOM     16  O   UNL     1       2.165   5.388  18.483  0.00  0.00    +0.000 OA
BRANCH  16  17
ATOM     17  C   UNL     1       1.577   4.409  17.619  0.00  0.00    +0.000 C 
BRANCH  17  18
ATOM     18  C   UNL     1       2.178   3.008  17.774  0.00  0.00    +0.000 C 
BRANCH  18  19
ATOM     19  O   UNL     1       1.487   2.310  18.813  0.00  0.00    +0.000 OA
BRANCH  19  20
ATOM     20  C   UNL     1       2.259   2.265  20.019  0.00  0.00    +0.000 C 
BRANCH  20  21
ATOM     21  C   UNL     1       1.503   2.987  21.140  0.00  0.00    +0.000 C 
BRANCH  21  22
ATOM     22  N   UNL     1       1.986   4.358  21.319  0.00  0.00    +0.000 NA
ATOM     23  H   UNL     1       2.984   4.391  21.119  0.00  0.00    +0.000 HD
ATOM     24  H   UNL     1       1.887   4.594  22.310  0.00  0.00    +0.000 HD
ENDBRANCH  21  22
ENDBRANCH  20  21
ENDBRANCH  19  20
ENDBRANCH  18  19
ENDBRANCH  17  18
ENDBRANCH  16  17
ENDBRANCH  15  16
ENDBRANCH   1  15
TORSDOF 9
ENDMDL
MODEL 4
REMARK VINA RESULT:      -5.9      1.956      2.646
REMARK  Name = 
REMARK  9 active torsions:
REMARK  status: ('A' for Active; 'I' for Inactive)
REMARK    1  A    between atoms: N_1  and  C_2
REMARK    2  A    between atoms: C_2  and  C_3
REMARK    3  A    between atoms: C_3  and  O_4
REMARK    4  A    between atoms: O_4  and  C_5
REMARK    5  A    between atoms: C_5  and  C_6
REMARK    6  A    between atoms: C_6  and  O_7
REMARK    7  A    between atoms: O_7  and  C_8
REMARK    8  A    between atoms: C_8  and  N_9
REMARK    9  A    between atoms: C_13  and  O_14
REMARK                            x       y       z     vdW  Elec       q    Type
REMARK                         _______ _______ _______ _____ _____    ______ ____
ROOT
ATOM      1  N   UNL     1       4.747   3.702  18.068  0.00  0.00    +0.000 N 
ATOM      2  C   UNL     1       4.950   4.052  19.379  0.00  0.00    +0.000 A 
ATOM      3  N   UNL     1       5.882   4.977  19.504  0.00  0.00    +0.000 NA
ATOM      4  C   UNL     1       6.314   5.199  18.219  0.00  0.00    +0.000 A 
ATOM      5  C   UNL     1       7.279   6.037  17.674  0.00  0.00    +0.000 A 
ATOM      6  N   UNL     1       7.520   6.033  16.348  0.00  0.00    +0.000 NA
ATOM      7  C   UNL     1       6.806   5.189  15.581  0.00  0.00    +0.000 A 
ATOM      8  N   UNL     1       7.090   5.202  14.230  0.00  0.00    +0.000 N 
ATOM      9  N   UNL     1       5.825   4.360  15.982  0.00  0.00    +0.000 NA
ATOM     10  C   UNL     1       5.635   4.411  17.310  0.00  0.00    +0.000 A 
ATOM     11  H   UNL     1       7.519   6.084  13.987  0.00  0.00    +0.000 HD
ATOM     12  H   UNL     1       6.281   4.915  13.699  0.00  0.00    +0.000 HD
ENDROOT
BRANCH   5  13
ATOM     13  O   UNL     1       8.024   6.893  18.449  0.00  0.00    +0.000 OA
ATOM     14  H   UNL     1       8.140   7.683  17.889  0.00  0.00    +0.000 HD
ENDBRANCH   5  13
BRANCH   1  15
ATOM     15  C   UNL     1       3.839   2.697  17.561  0.00  0.00    +0.000 C 
BRANCH  15  16
ATOM     16  O   UNL     1       3.135   2.117  18.652  0.00  0.00    +0.000 OA
BRANCH  16  17
ATOM     17  C   UNL     1       1.717   2.072  18.456  0.00  0.00    +0.000 C 
BRANCH  17  18
ATOM     18  C   UNL     1       0.921   2.813  19.535  0.00  0.00    +0.000 C 
BRANCH  18  19
ATOM     19  O   UNL     1       1.530   2.590  20.809  0.00  0.00    +0.000 OA
BRANCH  19  20
ATOM     20  C   UNL     1       1.992   3.813  21.392  0.00  0.00    +0.000 C 
BRANCH  20  21
ATOM     21  C   UNL     1       1.465   5.001  20.578  0.00  0.00    +0.000 C 
BRANCH  21  22
ATOM     22  N   UNL     1       2.210   6.227  20.870  0.00  0.00    +0.000 NA
ATOM     23  H   UNL     1       3.142   6.158  20.463  0.00  0.00    +0.000 HD
ATOM     24  H   UNL     1       2.345   6.273  21.883  0.00  0.00    +0.000 HD
ENDBRANCH  21  22
ENDBRANCH  20  21
ENDBRANCH  19  20
ENDBRANCH  18  19
ENDBRANCH  17  18
ENDBRANCH  16  17
ENDBRANCH  15  16
ENDBRANCH   1  15
TORSDOF 9
ENDMDL
MODEL 5
REMARK VINA RESULT:      -5.9      2.114      3.226
REMARK  Name = 
REMARK  9 active torsions:
REMARK  status: ('A' for Active; 'I' for Inactive)
REMARK    1  A    between atoms: N_1  and  C_2
REMARK    2  A    between atoms: C_2  and  C_3
REMARK    3  A    between atoms: C_3  and  O_4
REMARK    4  A    between atoms: O_4  and  C_5
REMARK    5  A    between atoms: C_5  and  C_6
REMARK    6  A    between atoms: C_6  and  O_7
REMARK    7  A    between atoms: O_7  and  C_8
REMARK    8  A    between atoms: C_8  and  N_9
REMARK    9  A    between atoms: C_13  and  O_14
REMARK                            x       y       z     vdW  Elec       q    Type
REMARK                         _______ _______ _______ _____ _____    ______ ____
ROOT
ATOM      1  N   UNL     1       5.376   4.726  16.771  0.00  0.00    +0.000 N 
ATOM      2  C   UNL     1       5.084   5.622  15.775  0.00  0.00    +0.000 A 
ATOM      3  N   UNL     1       5.811   6.719  15.870  0.00  0.00    +0.000 NA
ATOM      4  C   UNL     1       6.573   6.524  16.996  0.00  0.00    +0.000 A 
ATOM      5  C   UNL     1       7.526   7.302  17.643  0.00  0.00    +0.000 A 
ATOM      6  N   UNL     1       8.113   6.865  18.775  0.00  0.00    +0.000 NA
ATOM      7  C   UNL     1       7.740   5.665  19.254  0.00  0.00    +0.000 A 
ATOM      8  N   UNL     1       8.352   5.256  20.423  0.00  0.00    +0.000 N 
ATOM      9  N   UNL     1       6.861   4.808  18.703  0.00  0.00    +0.000 NA
ATOM     10  C   UNL     1       6.313   5.301  17.582  0.00  0.00    +0.000 A 
ATOM     11  H   UNL     1       9.229   5.747  20.530  0.00  0.00    +0.000 HD
ATOM     12  H   UNL     1       8.373   4.249  20.474  0.00  0.00    +0.000 HD
ENDROOT
BRANCH   5  13
ATOM     13  O   UNL     1       7.904   8.536  17.171  0.00  0.00    +0.000 OA
ATOM     14  H   UNL     1       7.690   8.504  16.220  0.00  0.00    +0.000 HD
ENDBRANCH   5  13
BRANCH   1  15
ATOM     15  C   UNL     1       4.750   3.443  17.005  0.00  0.00    +0.000 C 
BRANCH  15  16
ATOM     16  O   UNL     1       3.802   3.576  18.058  0.00  0.00    +0.000 OA
BRANCH  16  17
ATOM     17  C   UNL     1       2.645   4.334  17.690  0.00  0.00    +0.000 C 
BRANCH  17  18
ATOM     18  C   UNL     1       1.350   3.840  18.343  0.00  0.00    +0.000 C 
BRANCH  18  19
ATOM     19  O   UNL     1       1.643   2.726  19.189  0.00  0.00    +0.000 OA
BRANCH  19  20
ATOM     20  C   UNL     1       1.213   2.961  20.535  0.00  0.00    +0.000 C 
BRANCH  20  21
ATOM     21  C   UNL     1       2.423   2.912  21.476  0.00  0.00    +0.000 C 
BRANCH  21  22
ATOM     22  N   UNL     1       3.626   2.447  20.782  0.00  0.00    +0.000 NA
ATOM     23  H   UNL     1       3.419   2.334  19.792  0.00  0.00    +0.000 HD
ATOM     24  H   UNL     1       3.845   1.513  21.136  0.00  0.00    +0.000 HD
ENDBRANCH  21  22
ENDBRANCH  20  21
ENDBRANCH  19  20
ENDBRANCH  18  19
ENDBRANCH  17  18
ENDBRANCH  16  17
ENDBRANCH  15  16
ENDBRANCH   1  15
TORSDOF 9
ENDMDL
MODEL 6
REMARK VINA RESULT:      -5.9      1.814      2.801
REMARK  Name = 
REMARK  9 active torsions:
REMARK  status: ('A' for Active; 'I' for Inactive)
REMARK    1  A    between atoms: N_1  and  C_2
REMARK    2  A    between atoms: C_2  and  C_3
REMARK    3  A    between atoms: C_3  and  O_4
REMARK    4  A    between atoms: O_4  and  C_5
REMARK    5  A    between atoms: C_5  and  C_6
REMARK    6  A    between atoms: C_6  and  O_7
REMARK    7  A    between atoms: O_7  and  C_8
REMARK    8  A    between atoms: C_8  and  N_9
REMARK    9  A    between atoms: C_13  and  O_14
REMARK                            x       y       z     vdW  Elec       q    Type
REMARK                         _______ _______ _______ _____ _____    ______ ____
ROOT
ATOM      1  N   UNL     1       4.069   5.614  18.777  0.00  0.00    +0.000 N 
ATOM      2  C   UNL     1       3.594   5.791  17.503  0.00  0.00    +0.000 A 
ATOM      3  N   UNL     1       4.565   5.787  16.610  0.00  0.00    +0.000 NA
ATOM      4  C   UNL     1       5.710   5.636  17.355  0.00  0.00    +0.000 A 
ATOM      5  C   UNL     1       7.057   5.568  17.020  0.00  0.00    +0.000 A 
ATOM      6  N   UNL     1       7.995   5.440  17.979  0.00  0.00    +0.000 NA
ATOM      7  C   UNL     1       7.584   5.391  19.259  0.00  0.00    +0.000 A 
ATOM      8  N   UNL     1       8.574   5.273  20.215  0.00  0.00    +0.000 N 
ATOM      9  N   UNL     1       6.315   5.410  19.706  0.00  0.00    +0.000 NA
ATOM     10  C   UNL     1       5.431   5.539  18.704  0.00  0.00    +0.000 A 
ATOM     11  H   UNL     1       9.403   4.883  19.791  0.00  0.00    +0.000 HD
ATOM     12  H   UNL     1       8.213   4.818  21.039  0.00  0.00    +0.000 HD
ENDROOT
BRANCH   5  13
ATOM     13  O   UNL     1       7.489   5.632  15.718  0.00  0.00    +0.000 OA
ATOM     14  H   UNL     1       6.721   5.336  15.195  0.00  0.00    +0.000 HD
ENDBRANCH   5  13
BRANCH   1  15
ATOM     15  C   UNL     1       3.303   5.606  20.004  0.00  0.00    +0.000 C 
BRANCH  15  16
ATOM     16  O   UNL     1       1.923   5.471  19.687  0.00  0.00    +0.000 OA
BRANCH  16  17
ATOM     17  C   UNL     1       1.293   4.363  20.340  0.00  0.00    +0.000 C 
BRANCH  17  18
ATOM     18  C   UNL     1       2.189   3.658  21.362  0.00  0.00    +0.000 C 
BRANCH  18  19
ATOM     19  O   UNL     1       2.464   2.329  20.913  0.00  0.00    +0.000 OA
BRANCH  19  20
ATOM     20  C   UNL     1       2.332   2.217  19.492  0.00  0.00    +0.000 C 
BRANCH  20  21
ATOM     21  C   UNL     1       3.720   2.056  18.859  0.00  0.00    +0.000 C 
BRANCH  21  22
ATOM     22  N   UNL     1       4.771   1.988  19.876  0.00  0.00    +0.000 NA
ATOM     23  H   UNL     1       5.559   2.563  19.584  0.00  0.00    +0.000 HD
ATOM     24  H   UNL     1       5.115   1.024  19.900  0.00  0.00    +0.000 HD
ENDBRANCH  21  22
ENDBRANCH  20  21
ENDBRANCH  19  20
ENDBRANCH  18  19
ENDBRANCH  17  18
ENDBRANCH  16  17
ENDBRANCH  15  16
ENDBRANCH   1  15
TORSDOF 9
ENDMDL
MODEL 7
REMARK VINA RESULT:      -5.8      2.636      4.944
REMARK  Name = 
REMARK  9 active torsions:
REMARK  status: ('A' for Active; 'I' for Inactive)
REMARK    1  A    between atoms: N_1  and  C_2
REMARK    2  A    between atoms: C_2  and  C_3
REMARK    3  A    between atoms: C_3  and  O_4
REMARK    4  A    between atoms: O_4  and  C_5
REMARK    5  A    between atoms: C_5  and  C_6
REMARK    6  A    between atoms: C_6  and  O_7
REMARK    7  A    between atoms: O_7  and  C_8
REMARK    8  A    between atoms: C_8  and  N_9
REMARK    9  A    between atoms: C_13  and  O_14
REMARK                            x       y       z     vdW  Elec       q    Type
REMARK                         _______ _______ _______ _____ _____    ______ ____
ROOT
ATOM      1  N   UNL     1       2.921   5.979  18.838  0.00  0.00    +0.000 N 
ATOM      2  C   UNL     1       2.268   6.587  19.880  0.00  0.00    +0.000 A 
ATOM      3  N   UNL     1       1.997   5.739  20.854  0.00  0.00    +0.000 NA
ATOM      4  C   UNL     1       2.468   4.533  20.394  0.00  0.00    +0.000 A 
ATOM      5  C   UNL     1       2.480   3.252  20.932  0.00  0.00    +0.000 A 
ATOM      6  N   UNL     1       2.997   2.221  20.235  0.00  0.00    +0.000 NA
ATOM      7  C   UNL     1       3.486   2.474  19.008  0.00  0.00    +0.000 A 
ATOM      8  N   UNL     1       3.995   1.391  18.317  0.00  0.00    +0.000 N 
ATOM      9  N   UNL     1       3.565   3.669  18.395  0.00  0.00    +0.000 NA
ATOM     10  C   UNL     1       3.034   4.651  19.140  0.00  0.00    +0.000 A 
ATOM     11  H   UNL     1       4.247   0.665  18.973  0.00  0.00    +0.000 HD
ATOM     12  H   UNL     1       4.699   1.692  17.662  0.00  0.00    +0.000 HD
ENDROOT
BRANCH   5  13
ATOM     13  O   UNL     1       1.970   2.979  22.178  0.00  0.00    +0.000 OA
ATOM     14  H   UNL     1       2.525   2.250  22.510  0.00  0.00    +0.000 HD
ENDBRANCH   5  13
BRANCH   1  15
ATOM     15  C   UNL     1       3.334   6.585  17.591  0.00  0.00    +0.000 C 
BRANCH  15  16
ATOM     16  O   UNL     1       4.738   6.811  17.630  0.00  0.00    +0.000 OA
BRANCH  16  17
ATOM     17  C   UNL     1       5.387   6.582  16.374  0.00  0.00    +0.000 C 
BRANCH  17  18
ATOM     18  C   UNL     1       6.083   5.221  16.279  0.00  0.00    +0.000 C 
BRANCH  18  19
ATOM     19  O   UNL     1       7.437   5.350  16.720  0.00  0.00    +0.000 OA
BRANCH  19  20
ATOM     20  C   UNL     1       7.617   4.803  18.031  0.00  0.00    +0.000 C 
BRANCH  20  21
ATOM     21  C   UNL     1       7.901   5.936  19.024  0.00  0.00    +0.000 C 
BRANCH  21  22
ATOM     22  N   UNL     1       8.050   5.430  20.390  0.00  0.00    +0.000 NA
ATOM     23  H   UNL     1       8.249   4.432  20.358  0.00  0.00    +0.000 HD
ATOM     24  H   UNL     1       7.144   5.525  20.856  0.00  0.00    +0.000 HD
ENDBRANCH  21  22
ENDBRANCH  20  21
ENDBRANCH  19  20
ENDBRANCH  18  19
ENDBRANCH  17  18
ENDBRANCH  16  17
ENDBRANCH  15  16
ENDBRANCH   1  15
TORSDOF 9
ENDMDL
MODEL 8
REMARK VINA RESULT:      -5.8      2.632      5.454
REMARK  Name = 
REMARK  9 active torsions:
REMARK  status: ('A' for Active; 'I' for Inactive)
REMARK    1  A    between atoms: N_1  and  C_2
REMARK    2  A    between atoms: C_2  and  C_3
REMARK    3  A    between atoms: C_3  and  O_4
REMARK    4  A    between atoms: O_4  and  C_5
REMARK    5  A    between atoms: C_5  and  C_6
REMARK    6  A    between atoms: C_6  and  O_7
REMARK    7  A    between atoms: O_7  and  C_8
REMARK    8  A    between atoms: C_8  and  N_9
REMARK    9  A    between atoms: C_13  and  O_14
REMARK                            x       y       z     vdW  Elec       q    Type
REMARK                         _______ _______ _______ _____ _____    ______ ____
ROOT
ATOM      1  N   UNL     1       3.771   3.652  17.857  0.00  0.00    +0.000 N 
ATOM      2  C   UNL     1       3.894   2.328  18.193  0.00  0.00    +0.000 A 
ATOM      3  N   UNL     1       3.365   2.068  19.374  0.00  0.00    +0.000 NA
ATOM      4  C   UNL     1       2.917   3.288  19.821  0.00  0.00    +0.000 A 
ATOM      5  C   UNL     1       2.282   3.696  20.987  0.00  0.00    +0.000 A 
ATOM      6  N   UNL     1       1.972   4.993  21.180  0.00  0.00    +0.000 NA
ATOM      7  C   UNL     1       2.306   5.870  20.217  0.00  0.00    +0.000 A 
ATOM      8  N   UNL     1       1.985   7.192  20.455  0.00  0.00    +0.000 N 
ATOM      9  N   UNL     1       2.886   5.596  19.034  0.00  0.00    +0.000 NA
ATOM     10  C   UNL     1       3.169   4.290  18.904  0.00  0.00    +0.000 A 
ATOM     11  H   UNL     1       1.240   7.237  21.136  0.00  0.00    +0.000 HD
ATOM     12  H   UNL     1       1.852   7.684  19.584  0.00  0.00    +0.000 HD
ENDROOT
BRANCH   5  13
ATOM     13  O   UNL     1       1.950   2.811  21.985  0.00  0.00    +0.000 OA
ATOM     14  H   UNL     1       1.587   3.375  22.693  0.00  0.00    +0.000 HD
ENDBRANCH   5  13
BRANCH   1  15
ATOM     15  C   UNL     1       4.268   4.302  16.664  0.00  0.00    +0.000 C 
BRANCH  15  16
ATOM     16  O   UNL     1       5.367   3.556  16.155  0.00  0.00    +0.000 OA
BRANCH  16  17
ATOM     17  C   UNL     1       6.545   4.344  15.949  0.00  0.00    +0.000 C 
BRANCH  17  18
ATOM     18  C   UNL     1       6.386   5.811  16.358  0.00  0.00    +0.000 C 
BRANCH  18  19
ATOM     19  O   UNL     1       7.657   6.331  16.756  0.00  0.00    +0.000 OA
BRANCH  19  20
ATOM     20  C   UNL     1       7.635   6.793  18.111  0.00  0.00    +0.000 C 
BRANCH  20  21
ATOM     21  C   UNL     1       7.081   5.690  19.021  0.00  0.00    +0.000 C 
BRANCH  21  22
ATOM     22  N   UNL     1       7.947   5.461  20.179  0.00  0.00    +0.000 NA
ATOM     23  H   UNL     1       7.626   4.635  20.680  0.00  0.00    +0.000 HD
ATOM     24  H   UNL     1       7.822   6.250  20.819  0.00  0.00    +0.000 HD
ENDBRANCH  21  22
ENDBRANCH  20  21
ENDBRANCH  19  20
ENDBRANCH  18  19
ENDBRANCH  17  18
ENDBRANCH  16  17
ENDBRANCH  15  16
ENDBRANCH   1  15
TORSDOF 9
ENDMDL
MODEL 9
REMARK VINA RESULT:      -5.8      1.816      2.327
REMARK  Name = 
REMARK  9 active torsions:
REMARK  status: ('A' for Active; 'I' for Inactive)
REMARK    1  A    between atoms: N_1  and  C_2
REMARK    2  A    between atoms: C_2  and  C_3
REMARK    3  A    between atoms: C_3  and  O_4
REMARK    4  A    between atoms: O_4  and  C_5
REMARK    5  A    between atoms: C_5  and  C_6
REMARK    6  A    between atoms: C_6  and  O_7
REMARK    7  A    between atoms: O_7  and  C_8
REMARK    8  A    between atoms: C_8  and  N_9
REMARK    9  A    between atoms: C_13  and  O_14
REMARK                            x       y       z     vdW  Elec       q    Type
REMARK                         _______ _______ _______ _____ _____    ______ ____
ROOT
ATOM      1  N   UNL     1       4.791   3.921  18.231  0.00  0.00    +0.000 N 
ATOM      2  C   UNL     1       5.123   4.791  19.238  0.00  0.00    +0.000 A 
ATOM      3  N   UNL     1       5.986   5.704  18.835  0.00  0.00    +0.000 NA
ATOM      4  C   UNL     1       6.238   5.377  17.524  0.00  0.00    +0.000 A 
ATOM      5  C   UNL     1       7.058   5.933  16.549  0.00  0.00    +0.000 A 
ATOM      6  N   UNL     1       7.134   5.379  15.323  0.00  0.00    +0.000 NA
ATOM      7  C   UNL     1       6.402   4.276  15.083  0.00  0.00    +0.000 A 
ATOM      8  N   UNL     1       6.516   3.729  13.820  0.00  0.00    +0.000 N 
ATOM      9  N   UNL     1       5.548   3.669  15.927  0.00  0.00    +0.000 NA
ATOM     10  C   UNL     1       5.519   4.267  17.129  0.00  0.00    +0.000 A 
ATOM     11  H   UNL     1       6.840   4.438  13.177  0.00  0.00    +0.000 HD
ATOM     12  H   UNL     1       5.675   3.229  13.577  0.00  0.00    +0.000 HD
ENDROOT
BRANCH   5  13
ATOM     13  O   UNL     1       7.821   7.050  16.787  0.00  0.00    +0.000 OA
ATOM     14  H   UNL     1       7.767   7.176  17.752  0.00  0.00    +0.000 HD
ENDBRANCH   5  13
BRANCH   1  15
ATOM     15  C   UNL     1       3.911   2.776  18.319  0.00  0.00    +0.000 C 
BRANCH  15  16
ATOM     16  O   UNL     1       2.801   2.977  17.454  0.00  0.00    +0.000 OA
BRANCH  16  17
ATOM     17  C   UNL     1       1.556   3.118  18.147  0.00  0.00    +0.000 C 
BRANCH  17  18
ATOM     18  C   UNL     1       1.489   4.351  19.052  0.00  0.00    +0.000 C 
BRANCH  18  19
ATOM     19  O   UNL     1       0.593   4.095  20.136  0.00  0.00    +0.000 OA
BRANCH  19  20
ATOM     20  C   UNL     1       1.018   2.971  20.915  0.00  0.00    +0.000 C 
BRANCH  20  21
ATOM     21  C   UNL     1       2.245   3.360  21.748  0.00  0.00    +0.000 C 
BRANCH  21  22
ATOM     22  N   UNL     1       3.212   2.262  21.828  0.00  0.00    +0.000 NA
ATOM     23  H   UNL     1       3.153   1.702  20.979  0.00  0.00    +0.000 HD
ATOM     24  H   UNL     1       2.922   1.650  22.594  0.00  0.00    +0.000 HD
ENDBRANCH  21  22
ENDBRANCH  20  21
ENDBRANCH  19  20
ENDBRANCH  18  19
ENDBRANCH  17  18
ENDBRANCH  16  17
ENDBRANCH  15  16
ENDBRANCH   1  15
TORSDOF 9
ENDMDL
