MODEL 1
REMARK VINA RESULT:      -8.2      0.000      0.000
REMARK  Name = 
REMARK  3 active torsions:
REMARK  status: ('A' for Active; 'I' for Inactive)
REMARK    1  A    between atoms: C_1  and  N_2
REMARK    2  A    between atoms: N_10  and  C_11
REMARK    3  A    between atoms: C_18  and  C_19
REMARK                            x       y       z     vdW  Elec       q    Type
REMARK                         _______ _______ _______ _____ _____    ______ ____
ROOT
ATOM      1  C   UNL     1       1.454   3.323  20.899  0.00  0.00    +0.000 C 
ATOM      2  N   UNL     1       2.182   3.118  19.661  0.00  0.00    +0.000 N 
ATOM      3  C   UNL     1       1.975   1.853  18.965  0.00  0.00    +0.000 C 
ATOM      4  C   UNL     1       3.275   1.709  18.205  0.00  0.00    +0.000 C 
ATOM      5  C   UNL     1       3.674   3.148  17.872  0.00  0.00    +0.000 C 
ATOM      6  C   UNL     1       2.997   4.003  18.947  0.00  0.00    +0.000 C 
ATOM      7  C   UNL     1       3.111   5.352  18.996  0.00  0.00    +0.000 C 
ATOM      8  C   UNL     1       2.248   6.281  19.782  0.00  0.00    +0.000 C 
ATOM      9  O   UNL     1       1.646   6.044  20.813  0.00  0.00    +0.000 OA
ATOM     10  N   UNL     1       2.331   7.481  19.058  0.00  0.00    +0.000 N 
ATOM     11  N   UNL     1       3.326   7.482  18.091  0.00  0.00    +0.000 NA
ATOM     12  C   UNL     1       3.845   6.279  18.085  0.00  0.00    +0.000 C 
ENDROOT
BRANCH  10  13
ATOM     13  C   UNL     1       1.527   8.639  19.230  0.00  0.00    +0.000 A 
ATOM     14  C   UNL     1       1.069   9.034  20.497  0.00  0.00    +0.000 A 
ATOM     15  C   UNL     1       0.229  10.141  20.654  0.00  0.00    +0.000 A 
ATOM     16  C   UNL     1      -0.169  10.878  19.546  0.00  0.00    +0.000 A 
ATOM     17  C   UNL     1       0.277  10.508  18.279  0.00  0.00    +0.000 A 
ATOM     18  C   UNL     1       1.118   9.399  18.123  0.00  0.00    +0.000 A 
ENDBRANCH  10  13
BRANCH  12  19
ATOM     19  C   UNL     1       5.010   5.984  17.298  0.00  0.00    +0.000 A 
ATOM     20  C   UNL     1       5.144   5.967  15.918  0.00  0.00    +0.000 A 
ATOM     21  C   UNL     1       6.462   5.554  15.606  0.00  0.00    +0.000 A 
ATOM     22  C   UNL     1       7.127   5.390  16.798  0.00  0.00    +0.000 A 
ATOM     23  N   UNL     1       6.272   5.754  17.804  0.00  0.00    +0.000 N 
ATOM     24  H   UNL     1       6.515   5.778  18.787  0.00  0.00    +0.000 HD
ENDBRANCH  12  19
TORSDOF 2
ENDMDL
MODEL 2
REMARK VINA RESULT:      -8.2      0.136      1.011
REMARK  Name = 
REMARK  3 active torsions:
REMARK  status: ('A' for Active; 'I' for Inactive)
REMARK    1  A    between atoms: C_1  and  N_2
REMARK    2  A    between atoms: N_10  and  C_11
REMARK    3  A    between atoms: C_18  and  C_19
REMARK                            x       y       z     vdW  Elec       q    Type
REMARK                         _______ _______ _______ _____ _____    ______ ____
ROOT
ATOM      1  C   UNL     1       1.469   3.219  20.898  0.00  0.00    +0.000 C 
ATOM      2  N   UNL     1       2.195   3.016  19.658  0.00  0.00    +0.000 N 
ATOM      3  C   UNL     1       1.980   1.756  18.956  0.00  0.00    +0.000 C 
ATOM      4  C   UNL     1       3.279   1.607  18.196  0.00  0.00    +0.000 C 
ATOM      5  C   UNL     1       3.686   3.046  17.868  0.00  0.00    +0.000 C 
ATOM      6  C   UNL     1       3.015   3.899  18.948  0.00  0.00    +0.000 C 
ATOM      7  C   UNL     1       3.137   5.248  19.003  0.00  0.00    +0.000 C 
ATOM      8  C   UNL     1       2.280   6.178  19.794  0.00  0.00    +0.000 C 
ATOM      9  O   UNL     1       1.676   5.940  20.824  0.00  0.00    +0.000 OA
ATOM     10  N   UNL     1       2.369   7.381  19.076  0.00  0.00    +0.000 N 
ATOM     11  N   UNL     1       3.364   7.380  18.108  0.00  0.00    +0.000 NA
ATOM     12  C   UNL     1       3.876   6.174  18.096  0.00  0.00    +0.000 C 
ENDROOT
BRANCH  10  13
ATOM     13  C   UNL     1       1.572   8.542  19.253  0.00  0.00    +0.000 A 
ATOM     14  C   UNL     1       1.243   9.379  18.174  0.00  0.00    +0.000 A 
ATOM     15  C   UNL     1       0.507  10.554  18.363  0.00  0.00    +0.000 A 
ATOM     16  C   UNL     1       0.084  10.915  19.637  0.00  0.00    +0.000 A 
ATOM     17  C   UNL     1       0.395  10.099  20.721  0.00  0.00    +0.000 A 
ATOM     18  C   UNL     1       1.133   8.923  20.531  0.00  0.00    +0.000 A 
ENDBRANCH  10  13
BRANCH  12  19
ATOM     19  C   UNL     1       5.038   5.877  17.308  0.00  0.00    +0.000 A 
ATOM     20  C   UNL     1       5.185   5.911  15.929  0.00  0.00    +0.000 A 
ATOM     21  C   UNL     1       6.493   5.472  15.611  0.00  0.00    +0.000 A 
ATOM     22  C   UNL     1       7.141   5.239  16.800  0.00  0.00    +0.000 A 
ATOM     23  N   UNL     1       6.288   5.587  17.814  0.00  0.00    +0.000 N 
ATOM     24  H   UNL     1       6.522   5.564  18.798  0.00  0.00    +0.000 HD
ENDBRANCH  12  19
TORSDOF 2
ENDMDL
MODEL 3
REMARK VINA RESULT:      -7.4      0.973      1.081
REMARK  Name = 
REMARK  3 active torsions:
REMARK  status: ('A' for Active; 'I' for Inactive)
REMARK    1  A    between atoms: C_1  and  N_2
REMARK    2  A    between atoms: N_10  and  C_11
REMARK    3  A    between atoms: C_18  and  C_19
REMARK                            x       y       z     vdW  Elec       q    Type
REMARK                         _______ _______ _______ _____ _____    ______ ____
ROOT
ATOM      1  C   UNL     1       1.453   4.078  20.804  0.00  0.00    +0.000 C 
ATOM      2  N   UNL     1       2.143   3.631  19.609  0.00  0.00    +0.000 N 
ATOM      3  C   UNL     1       1.847   2.286  19.129  0.00  0.00    +0.000 C 
ATOM      4  C   UNL     1       3.122   1.940  18.392  0.00  0.00    +0.000 C 
ATOM      5  C   UNL     1       3.600   3.279  17.825  0.00  0.00    +0.000 C 
ATOM      6  C   UNL     1       2.996   4.336  18.754  0.00  0.00    +0.000 C 
ATOM      7  C   UNL     1       3.192   5.666  18.582  0.00  0.00    +0.000 C 
ATOM      8  C   UNL     1       2.401   6.762  19.215  0.00  0.00    +0.000 C 
ATOM      9  O   UNL     1       1.805   6.732  20.276  0.00  0.00    +0.000 OA
ATOM     10  N   UNL     1       2.542   7.822  18.306  0.00  0.00    +0.000 N 
ATOM     11  N   UNL     1       3.517   7.604  17.342  0.00  0.00    +0.000 NA
ATOM     12  C   UNL     1       3.962   6.386  17.526  0.00  0.00    +0.000 C 
ENDROOT
BRANCH  10  13
ATOM     13  C   UNL     1       1.812   9.040  18.294  0.00  0.00    +0.000 A 
ATOM     14  C   UNL     1       2.455  10.282  18.421  0.00  0.00    +0.000 A 
ATOM     15  C   UNL     1       1.727  11.476  18.468  0.00  0.00    +0.000 A 
ATOM     16  C   UNL     1       0.340  11.451  18.389  0.00  0.00    +0.000 A 
ATOM     17  C   UNL     1      -0.319  10.231  18.259  0.00  0.00    +0.000 A 
ATOM     18  C   UNL     1       0.411   9.036  18.211  0.00  0.00    +0.000 A 
ENDBRANCH  10  13
BRANCH  12  19
ATOM     19  C   UNL     1       5.092   5.897  16.788  0.00  0.00    +0.000 A 
ATOM     20  C   UNL     1       5.249   5.784  15.414  0.00  0.00    +0.000 A 
ATOM     21  C   UNL     1       6.506   5.184  15.159  0.00  0.00    +0.000 A 
ATOM     22  C   UNL     1       7.120   5.001  16.375  0.00  0.00    +0.000 A 
ATOM     23  N   UNL     1       6.303   5.530  17.338  0.00  0.00    +0.000 N 
ATOM     24  H   UNL     1       6.528   5.578  18.324  0.00  0.00    +0.000 HD
ENDBRANCH  12  19
TORSDOF 2
ENDMDL
MODEL 4
REMARK VINA RESULT:      -7.2      1.813      4.142
REMARK  Name = 
REMARK  3 active torsions:
REMARK  status: ('A' for Active; 'I' for Inactive)
REMARK    1  A    between atoms: C_1  and  N_2
REMARK    2  A    between atoms: N_10  and  C_11
REMARK    3  A    between atoms: C_18  and  C_19
REMARK                            x       y       z     vdW  Elec       q    Type
REMARK                         _______ _______ _______ _____ _____    ______ ____
ROOT
ATOM      1  C   UNL     1       4.939   7.328  16.296  0.00  0.00    +0.000 C 
ATOM      2  N   UNL     1       5.064   6.360  17.369  0.00  0.00    +0.000 N 
ATOM      3  C   UNL     1       6.384   5.784  17.599  0.00  0.00    +0.000 C 
ATOM      4  C   UNL     1       6.028   4.453  18.226  0.00  0.00    +0.000 C 
ATOM      5  C   UNL     1       4.751   4.743  19.017  0.00  0.00    +0.000 C 
ATOM      6  C   UNL     1       4.120   5.950  18.317  0.00  0.00    +0.000 C 
ATOM      7  C   UNL     1       2.960   6.516  18.727  0.00  0.00    +0.000 C 
ATOM      8  C   UNL     1       2.446   7.859  18.329  0.00  0.00    +0.000 C 
ATOM      9  O   UNL     1       2.669   8.465  17.297  0.00  0.00    +0.000 OA
ATOM     10  N   UNL     1       1.635   8.224  19.415  0.00  0.00    +0.000 N 
ATOM     11  N   UNL     1       1.379   7.182  20.296  0.00  0.00    +0.000 NA
ATOM     12  C   UNL     1       2.079   6.156  19.877  0.00  0.00    +0.000 C 
ENDROOT
BRANCH  10  13
ATOM     13  C   UNL     1       1.075   9.503  19.671  0.00  0.00    +0.000 A 
ATOM     14  C   UNL     1       1.012  10.031  20.971  0.00  0.00    +0.000 A 
ATOM     15  C   UNL     1       0.407  11.266  21.226  0.00  0.00    +0.000 A 
ATOM     16  C   UNL     1      -0.148  12.000  20.184  0.00  0.00    +0.000 A 
ATOM     17  C   UNL     1      -0.094  11.499  18.886  0.00  0.00    +0.000 A 
ATOM     18  C   UNL     1       0.513  10.261  18.632  0.00  0.00    +0.000 A 
ENDBRANCH  10  13
BRANCH  12  19
ATOM     19  C   UNL     1       1.923   4.863  20.482  0.00  0.00    +0.000 A 
ATOM     20  C   UNL     1       1.182   3.780  20.035  0.00  0.00    +0.000 A 
ATOM     21  C   UNL     1       1.279   2.748  21.000  0.00  0.00    +0.000 A 
ATOM     22  C   UNL     1       2.128   3.195  21.985  0.00  0.00    +0.000 A 
ATOM     23  N   UNL     1       2.591   4.427  21.607  0.00  0.00    +0.000 N 
ATOM     24  H   UNL     1       3.272   4.970  22.122  0.00  0.00    +0.000 HD
ENDBRANCH  12  19
TORSDOF 2
ENDMDL
MODEL 5
REMARK VINA RESULT:      -7.2      1.813      4.258
REMARK  Name = 
REMARK  3 active torsions:
REMARK  status: ('A' for Active; 'I' for Inactive)
REMARK    1  A    between atoms: C_1  and  N_2
REMARK    2  A    between atoms: N_10  and  C_11
REMARK    3  A    between atoms: C_18  and  C_19
REMARK                            x       y       z     vdW  Elec       q    Type
REMARK                         _______ _______ _______ _____ _____    ______ ____
ROOT
ATOM      1  C   UNL     1       4.937   7.242  16.268  0.00  0.00    +0.000 C 
ATOM      2  N   UNL     1       5.050   6.271  17.339  0.00  0.00    +0.000 N 
ATOM      3  C   UNL     1       6.355   5.655  17.549  0.00  0.00    +0.000 C 
ATOM      4  C   UNL     1       5.970   4.336  18.182  0.00  0.00    +0.000 C 
ATOM      5  C   UNL     1       4.715   4.664  18.993  0.00  0.00    +0.000 C 
ATOM      6  C   UNL     1       4.109   5.889  18.302  0.00  0.00    +0.000 C 
ATOM      7  C   UNL     1       2.972   6.490  18.730  0.00  0.00    +0.000 C 
ATOM      8  C   UNL     1       2.493   7.848  18.340  0.00  0.00    +0.000 C 
ATOM      9  O   UNL     1       2.718   8.447  17.304  0.00  0.00    +0.000 OA
ATOM     10  N   UNL     1       1.710   8.237  19.438  0.00  0.00    +0.000 N 
ATOM     11  N   UNL     1       1.437   7.203  20.323  0.00  0.00    +0.000 NA
ATOM     12  C   UNL     1       2.100   6.157  19.894  0.00  0.00    +0.000 C 
ENDROOT
BRANCH  10  13
ATOM     13  C   UNL     1       1.193   9.533  19.701  0.00  0.00    +0.000 A 
ATOM     14  C   UNL     1       1.082  10.500  18.689  0.00  0.00    +0.000 A 
ATOM     15  C   UNL     1       0.627  11.793  18.966  0.00  0.00    +0.000 A 
ATOM     16  C   UNL     1       0.273  12.146  20.262  0.00  0.00    +0.000 A 
ATOM     17  C   UNL     1       0.370  11.203  21.282  0.00  0.00    +0.000 A 
ATOM     18  C   UNL     1       0.826   9.907  21.003  0.00  0.00    +0.000 A 
ENDBRANCH  10  13
BRANCH  12  19
ATOM     19  C   UNL     1       1.915   4.870  20.502  0.00  0.00    +0.000 A 
ATOM     20  C   UNL     1       1.126   3.812  20.072  0.00  0.00    +0.000 A 
ATOM     21  C   UNL     1       1.211   2.776  21.035  0.00  0.00    +0.000 A 
ATOM     22  C   UNL     1       2.098   3.193  21.999  0.00  0.00    +0.000 A 
ATOM     23  N   UNL     1       2.593   4.409  21.611  0.00  0.00    +0.000 N 
ATOM     24  H   UNL     1       3.305   4.929  22.110  0.00  0.00    +0.000 HD
ENDBRANCH  12  19
TORSDOF 2
ENDMDL
MODEL 6
REMARK VINA RESULT:      -6.8      1.854      4.334
REMARK  Name = 
REMARK  3 active torsions:
REMARK  status: ('A' for Active; 'I' for Inactive)
REMARK    1  A    between atoms: C_1  and  N_2
REMARK    2  A    between atoms: N_10  and  C_11
REMARK    3  A    between atoms: C_18  and  C_19
REMARK                            x       y       z     vdW  Elec       q    Type
REMARK                         _______ _______ _______ _____ _____    ______ ____
ROOT
ATOM      1  C   UNL     1       4.284   7.890  16.924  0.00  0.00    +0.000 C 
ATOM      2  N   UNL     1       4.513   6.709  17.734  0.00  0.00    +0.000 N 
ATOM      3  C   UNL     1       5.846   6.119  17.694  0.00  0.00    +0.000 C 
ATOM      4  C   UNL     1       5.549   4.676  18.040  0.00  0.00    +0.000 C 
ATOM      5  C   UNL     1       4.363   4.760  19.003  0.00  0.00    +0.000 C 
ATOM      6  C   UNL     1       3.670   6.082  18.658  0.00  0.00    +0.000 C 
ATOM      7  C   UNL     1       2.562   6.523  19.301  0.00  0.00    +0.000 C 
ATOM      8  C   UNL     1       2.018   7.911  19.268  0.00  0.00    +0.000 C 
ATOM      9  O   UNL     1       2.137   8.736  18.381  0.00  0.00    +0.000 OA
ATOM     10  N   UNL     1       1.326   8.011  20.485  0.00  0.00    +0.000 N 
ATOM     11  N   UNL     1       1.157   6.795  21.132  0.00  0.00    +0.000 NA
ATOM     12  C   UNL     1       1.803   5.901  20.426  0.00  0.00    +0.000 C 
ENDROOT
BRANCH  10  13
ATOM     13  C   UNL     1       0.804   9.191  21.077  0.00  0.00    +0.000 A 
ATOM     14  C   UNL     1       0.050   9.149  22.261  0.00  0.00    +0.000 A 
ATOM     15  C   UNL     1      -0.512  10.307  22.808  0.00  0.00    +0.000 A 
ATOM     16  C   UNL     1      -0.330  11.534  22.181  0.00  0.00    +0.000 A 
ATOM     17  C   UNL     1       0.417  11.602  21.008  0.00  0.00    +0.000 A 
ATOM     18  C   UNL     1       0.979  10.441  20.461  0.00  0.00    +0.000 A 
ENDBRANCH  10  13
BRANCH  12  19
ATOM     19  C   UNL     1       1.703   4.503  20.739  0.00  0.00    +0.000 A 
ATOM     20  C   UNL     1       1.035   3.504  20.046  0.00  0.00    +0.000 A 
ATOM     21  C   UNL     1       1.163   2.297  20.776  0.00  0.00    +0.000 A 
ATOM     22  C   UNL     1       1.957   2.566  21.865  0.00  0.00    +0.000 A 
ATOM     23  N   UNL     1       2.361   3.871  21.773  0.00  0.00    +0.000 N 
ATOM     24  H   UNL     1       2.997   4.325  22.417  0.00  0.00    +0.000 HD
ENDBRANCH  12  19
TORSDOF 2
ENDMDL
MODEL 7
REMARK VINA RESULT:      -6.5      4.103      9.051
REMARK  Name = 
REMARK  3 active torsions:
REMARK  status: ('A' for Active; 'I' for Inactive)
REMARK    1  A    between atoms: C_1  and  N_2
REMARK    2  A    between atoms: N_10  and  C_11
REMARK    3  A    between atoms: C_18  and  C_19
REMARK                            x       y       z     vdW  Elec       q    Type
REMARK                         _______ _______ _______ _____ _____    ______ ____
ROOT
ATOM      1  C   UNL     1      -3.794  11.030  17.099  0.00  0.00    +0.000 C 
ATOM      2  N   UNL     1      -4.000  11.550  18.438  0.00  0.00    +0.000 N 
ATOM      3  C   UNL     1      -5.368  11.583  18.939  0.00  0.00    +0.000 C 
ATOM      4  C   UNL     1      -5.296  12.712  19.943  0.00  0.00    +0.000 C 
ATOM      5  C   UNL     1      -3.874  12.625  20.501  0.00  0.00    +0.000 C 
ATOM      6  C   UNL     1      -3.061  11.942  19.398  0.00  0.00    +0.000 C 
ATOM      7  C   UNL     1      -1.736  11.680  19.514  0.00  0.00    +0.000 C 
ATOM      8  C   UNL     1      -0.944  10.748  18.659  0.00  0.00    +0.000 C 
ATOM      9  O   UNL     1      -1.161  10.433  17.503  0.00  0.00    +0.000 OA
ATOM     10  N   UNL     1       0.108  10.360  19.502  0.00  0.00    +0.000 N 
ATOM     11  N   UNL     1       0.209  11.123  20.657  0.00  0.00    +0.000 NA
ATOM     12  C   UNL     1      -0.809  11.947  20.652  0.00  0.00    +0.000 C 
ENDROOT
BRANCH  10  13
ATOM     13  C   UNL     1       1.036   9.308  19.280  0.00  0.00    +0.000 A 
ATOM     14  C   UNL     1       1.726   9.182  18.064  0.00  0.00    +0.000 A 
ATOM     15  C   UNL     1       2.596   8.112  17.828  0.00  0.00    +0.000 A 
ATOM     16  C   UNL     1       2.794   7.146  18.806  0.00  0.00    +0.000 A 
ATOM     17  C   UNL     1       2.124   7.252  20.022  0.00  0.00    +0.000 A 
ATOM     18  C   UNL     1       1.253   8.324  20.257  0.00  0.00    +0.000 A 
ENDBRANCH  10  13
BRANCH  12  19
ATOM     19  C   UNL     1      -0.919  12.986  21.638  0.00  0.00    +0.000 A 
ATOM     20  C   UNL     1      -1.145  12.869  23.001  0.00  0.00    +0.000 A 
ATOM     21  C   UNL     1      -1.242  14.172  23.548  0.00  0.00    +0.000 A 
ATOM     22  C   UNL     1      -1.009  15.058  22.524  0.00  0.00    +0.000 A 
ATOM     23  N   UNL     1      -0.712  14.329  21.403  0.00  0.00    +0.000 N 
ATOM     24  H   UNL     1      -0.449  14.726  20.509  0.00  0.00    +0.000 HD
ENDBRANCH  12  19
TORSDOF 2
ENDMDL
MODEL 8
REMARK VINA RESULT:      -6.4      2.558      6.834
REMARK  Name = 
REMARK  3 active torsions:
REMARK  status: ('A' for Active; 'I' for Inactive)
REMARK    1  A    between atoms: C_1  and  N_2
REMARK    2  A    between atoms: N_10  and  C_11
REMARK    3  A    between atoms: C_18  and  C_19
REMARK                            x       y       z     vdW  Elec       q    Type
REMARK                         _______ _______ _______ _____ _____    ______ ____
ROOT
ATOM      1  C   UNL     1       4.093   8.690  17.359  0.00  0.00    +0.000 C 
ATOM      2  N   UNL     1       3.325   7.650  18.017  0.00  0.00    +0.000 N 
ATOM      3  C   UNL     1       2.015   8.016  18.542  0.00  0.00    +0.000 C 
ATOM      4  C   UNL     1       1.841   7.007  19.656  0.00  0.00    +0.000 C 
ATOM      5  C   UNL     1       2.561   5.758  19.143  0.00  0.00    +0.000 C 
ATOM      6  C   UNL     1       3.599   6.284  18.147  0.00  0.00    +0.000 C 
ATOM      7  C   UNL     1       4.446   5.473  17.468  0.00  0.00    +0.000 C 
ATOM      8  C   UNL     1       5.246   5.844  16.264  0.00  0.00    +0.000 C 
ATOM      9  O   UNL     1       5.653   6.948  15.953  0.00  0.00    +0.000 OA
ATOM     10  N   UNL     1       5.428   4.614  15.613  0.00  0.00    +0.000 N 
ATOM     11  N   UNL     1       5.074   3.516  16.384  0.00  0.00    +0.000 NA
ATOM     12  C   UNL     1       4.569   3.986  17.498  0.00  0.00    +0.000 C 
ENDROOT
BRANCH  10  13
ATOM     13  C   UNL     1       5.926   4.410  14.299  0.00  0.00    +0.000 A 
ATOM     14  C   UNL     1       5.263   3.578  13.383  0.00  0.00    +0.000 A 
ATOM     15  C   UNL     1       5.788   3.333  12.110  0.00  0.00    +0.000 A 
ATOM     16  C   UNL     1       6.990   3.916  11.727  0.00  0.00    +0.000 A 
ATOM     17  C   UNL     1       7.664   4.748  12.617  0.00  0.00    +0.000 A 
ATOM     18  C   UNL     1       7.136   4.993  13.892  0.00  0.00    +0.000 A 
ENDBRANCH  10  13
BRANCH  12  19
ATOM     19  C   UNL     1       4.241   3.108  18.585  0.00  0.00    +0.000 A 
ATOM     20  C   UNL     1       3.102   2.337  18.765  0.00  0.00    +0.000 A 
ATOM     21  C   UNL     1       3.200   1.689  20.021  0.00  0.00    +0.000 A 
ATOM     22  C   UNL     1       4.421   2.024  20.554  0.00  0.00    +0.000 A 
ATOM     23  N   UNL     1       5.081   2.793  19.633  0.00  0.00    +0.000 N 
ATOM     24  H   UNL     1       6.025   3.141  19.742  0.00  0.00    +0.000 HD
ENDBRANCH  12  19
TORSDOF 2
ENDMDL
MODEL 9
REMARK VINA RESULT:      -6.4      7.182      9.547
REMARK  Name = 
REMARK  3 active torsions:
REMARK  status: ('A' for Active; 'I' for Inactive)
REMARK    1  A    between atoms: C_1  and  N_2
REMARK    2  A    between atoms: N_10  and  C_11
REMARK    3  A    between atoms: C_18  and  C_19
REMARK                            x       y       z     vdW  Elec       q    Type
REMARK                         _______ _______ _______ _____ _____    ______ ____
ROOT
ATOM      1  C   UNL     1      -0.101  14.148  21.386  0.00  0.00    +0.000 C 
ATOM      2  N   UNL     1      -0.036  12.997  20.506  0.00  0.00    +0.000 N 
ATOM      3  C   UNL     1       1.187  12.203  20.531  0.00  0.00    +0.000 C 
ATOM      4  C   UNL     1       1.185  11.600  19.144  0.00  0.00    +0.000 C 
ATOM      5  C   UNL     1      -0.298  11.407  18.823  0.00  0.00    +0.000 C 
ATOM      6  C   UNL     1      -1.025  12.443  19.684  0.00  0.00    +0.000 C 
ATOM      7  C   UNL     1      -2.372  12.589  19.683  0.00  0.00    +0.000 C 
ATOM      8  C   UNL     1      -3.180  13.321  20.702  0.00  0.00    +0.000 C 
ATOM      9  O   UNL     1      -2.828  14.254  21.399  0.00  0.00    +0.000 OA
ATOM     10  N   UNL     1      -4.431  12.688  20.630  0.00  0.00    +0.000 N 
ATOM     11  N   UNL     1      -4.570  11.850  19.532  0.00  0.00    +0.000 NA
ATOM     12  C   UNL     1      -3.410  11.832  18.923  0.00  0.00    +0.000 C 
ENDROOT
BRANCH  10  13
ATOM     13  C   UNL     1      -5.514  12.833  21.536  0.00  0.00    +0.000 A 
ATOM     14  C   UNL     1      -5.302  12.988  22.916  0.00  0.00    +0.000 A 
ATOM     15  C   UNL     1      -6.373  13.071  23.811  0.00  0.00    +0.000 A 
ATOM     16  C   UNL     1      -7.680  13.001  23.345  0.00  0.00    +0.000 A 
ATOM     17  C   UNL     1      -7.915  12.852  21.980  0.00  0.00    +0.000 A 
ATOM     18  C   UNL     1      -6.841  12.769  21.084  0.00  0.00    +0.000 A 
ENDBRANCH  10  13
BRANCH  12  19
ATOM     19  C   UNL     1      -3.255  11.176  17.656  0.00  0.00    +0.000 A 
ATOM     20  C   UNL     1      -3.077   9.826  17.393  0.00  0.00    +0.000 A 
ATOM     21  C   UNL     1      -2.903   9.665  15.997  0.00  0.00    +0.000 A 
ATOM     22  C   UNL     1      -3.042  10.908  15.427  0.00  0.00    +0.000 A 
ATOM     23  N   UNL     1      -3.358  11.791  16.425  0.00  0.00    +0.000 N 
ATOM     24  H   UNL     1      -3.565  12.772  16.284  0.00  0.00    +0.000 HD
ENDBRANCH  12  19
TORSDOF 2
ENDMDL
