MODEL 1
REMARK VINA RESULT:      -5.4      0.000      0.000
REMARK  Name = 
REMARK  3 active torsions:
REMARK  status: ('A' for Active; 'I' for Inactive)
REMARK    1  A    between atoms: C_1  and  C_2
REMARK    2  A    between atoms: C_4  and  N_5
REMARK    3  A    between atoms: C_10  and  O_11
REMARK                            x       y       z     vdW  Elec       q    Type
REMARK                         _______ _______ _______ _____ _____    ______ ____
ROOT
ATOM      1  C   UNL     1       2.837   2.681  17.416  0.00  0.00    +0.000 C 
ATOM      2  C   UNL     1       3.677   3.923  17.325  0.00  0.00    +0.000 A 
ATOM      3  C   UNL     1       4.990   3.855  16.838  0.00  0.00    +0.000 A 
ATOM      4  C   UNL     1       5.767   5.020  16.759  0.00  0.00    +0.000 A 
ATOM      5  C   UNL     1       5.244   6.256  17.166  0.00  0.00    +0.000 A 
ATOM      6  C   UNL     1       3.935   6.325  17.647  0.00  0.00    +0.000 A 
ATOM      7  C   UNL     1       3.164   5.164  17.721  0.00  0.00    +0.000 A 
ENDROOT
BRANCH   4   8
ATOM      8  N   UNL     1       7.140   4.943  16.245  0.00  0.00    +0.000 N 
ATOM      9  O   UNL     1       7.372   5.450  15.138  0.00  0.00    +0.000 OA
ATOM     10  O   UNL     1       7.988   4.376  16.949  0.00  0.00    +0.000 OA
ENDBRANCH   4   8
BRANCH   7  11
ATOM     11  O   UNL     1       1.881   5.215  18.185  0.00  0.00    +0.000 OA
ATOM     12  H   UNL     1       1.623   4.339  18.517  0.00  0.00    +0.000 HD
ENDBRANCH   7  11
TORSDOF 2
ENDMDL
MODEL 2
REMARK VINA RESULT:      -5.3      0.852      2.175
REMARK  Name = 
REMARK  3 active torsions:
REMARK  status: ('A' for Active; 'I' for Inactive)
REMARK    1  A    between atoms: C_1  and  C_2
REMARK    2  A    between atoms: C_4  and  N_5
REMARK    3  A    between atoms: C_10  and  O_11
REMARK                            x       y       z     vdW  Elec       q    Type
REMARK                         _______ _______ _______ _____ _____    ______ ____
ROOT
ATOM      1  C   UNL     1       2.778   7.490  18.124  0.00  0.00    +0.000 C 
ATOM      2  C   UNL     1       3.612   6.304  17.736  0.00  0.00    +0.000 A 
ATOM      3  C   UNL     1       4.967   6.466  17.410  0.00  0.00    +0.000 A 
ATOM      4  C   UNL     1       5.737   5.352  17.046  0.00  0.00    +0.000 A 
ATOM      5  C   UNL     1       5.165   4.072  17.002  0.00  0.00    +0.000 A 
ATOM      6  C   UNL     1       3.818   3.909  17.330  0.00  0.00    +0.000 A 
ATOM      7  C   UNL     1       3.055   5.019  17.695  0.00  0.00    +0.000 A 
ENDROOT
BRANCH   4   8
ATOM      8  N   UNL     1       7.155   5.529  16.710  0.00  0.00    +0.000 N 
ATOM      9  O   UNL     1       7.571   6.685  16.546  0.00  0.00    +0.000 OA
ATOM     10  O   UNL     1       7.854   4.510  16.610  0.00  0.00    +0.000 OA
ENDBRANCH   4   8
BRANCH   7  11
ATOM     11  O   UNL     1       1.738   4.876  18.023  0.00  0.00    +0.000 OA
ATOM     12  H   UNL     1       1.446   3.976  17.802  0.00  0.00    +0.000 HD
ENDBRANCH   7  11
TORSDOF 2
ENDMDL
MODEL 3
REMARK VINA RESULT:      -5.3      2.849      3.410
REMARK  Name = 
REMARK  3 active torsions:
REMARK  status: ('A' for Active; 'I' for Inactive)
REMARK    1  A    between atoms: C_1  and  C_2
REMARK    2  A    between atoms: C_4  and  N_5
REMARK    3  A    between atoms: C_10  and  O_11
REMARK                            x       y       z     vdW  Elec       q    Type
REMARK                         _______ _______ _______ _____ _____    ______ ____
ROOT
ATOM      1  C   UNL     1       1.719   2.631  21.591  0.00  0.00    +0.000 C 
ATOM      2  C   UNL     1       2.097   3.242  20.272  0.00  0.00    +0.000 A 
ATOM      3  C   UNL     1       3.377   3.784  20.083  0.00  0.00    +0.000 A 
ATOM      4  C   UNL     1       3.719   4.354  18.848  0.00  0.00    +0.000 A 
ATOM      5  C   UNL     1       2.791   4.392  17.797  0.00  0.00    +0.000 A 
ATOM      6  C   UNL     1       1.518   3.850  17.984  0.00  0.00    +0.000 A 
ATOM      7  C   UNL     1       1.183   3.279  19.212  0.00  0.00    +0.000 A 
ENDROOT
BRANCH   4   8
ATOM      8  N   UNL     1       5.062   4.916  18.656  0.00  0.00    +0.000 N 
ATOM      9  O   UNL     1       5.155   6.005  18.072  0.00  0.00    +0.000 OA
ATOM     10  O   UNL     1       6.024   4.267  19.090  0.00  0.00    +0.000 OA
ENDBRANCH   4   8
BRANCH   7  11
ATOM     11  O   UNL     1      -0.057   2.741  19.409  0.00  0.00    +0.000 OA
ATOM     12  H   UNL     1      -0.323   2.246  18.617  0.00  0.00    +0.000 HD
ENDBRANCH   7  11
TORSDOF 2
ENDMDL
MODEL 4
REMARK VINA RESULT:      -5.3      3.855      4.806
REMARK  Name = 
REMARK  3 active torsions:
REMARK  status: ('A' for Active; 'I' for Inactive)
REMARK    1  A    between atoms: C_1  and  C_2
REMARK    2  A    between atoms: C_4  and  N_5
REMARK    3  A    between atoms: C_10  and  O_11
REMARK                            x       y       z     vdW  Elec       q    Type
REMARK                         _______ _______ _______ _____ _____    ______ ____
ROOT
ATOM      1  C   UNL     1       1.459   2.724  21.517  0.00  0.00    +0.000 C 
ATOM      2  C   UNL     1       1.705   3.525  20.271  0.00  0.00    +0.000 A 
ATOM      3  C   UNL     1       1.924   4.908  20.348  0.00  0.00    +0.000 A 
ATOM      4  C   UNL     1       2.150   5.647  19.178  0.00  0.00    +0.000 A 
ATOM      5  C   UNL     1       2.156   5.017  17.926  0.00  0.00    +0.000 A 
ATOM      6  C   UNL     1       1.942   3.639  17.847  0.00  0.00    +0.000 A 
ATOM      7  C   UNL     1       1.721   2.906  19.014  0.00  0.00    +0.000 A 
ENDROOT
BRANCH   4   8
ATOM      8  N   UNL     1       2.383   7.094  19.267  0.00  0.00    +0.000 N 
ATOM      9  O   UNL     1       1.995   7.680  20.288  0.00  0.00    +0.000 OA
ATOM     10  O   UNL     1       2.955   7.644  18.316  0.00  0.00    +0.000 OA
ENDBRANCH   4   8
BRANCH   7  11
ATOM     11  O   UNL     1       1.514   1.558  18.955  0.00  0.00    +0.000 OA
ATOM     12  H   UNL     1       0.583   1.365  19.154  0.00  0.00    +0.000 HD
ENDBRANCH   7  11
TORSDOF 2
ENDMDL
MODEL 5
REMARK VINA RESULT:      -5.2      1.953      2.383
REMARK  Name = 
REMARK  3 active torsions:
REMARK  status: ('A' for Active; 'I' for Inactive)
REMARK    1  A    between atoms: C_1  and  C_2
REMARK    2  A    between atoms: C_4  and  N_5
REMARK    3  A    between atoms: C_10  and  O_11
REMARK                            x       y       z     vdW  Elec       q    Type
REMARK                         _______ _______ _______ _____ _____    ______ ____
ROOT
ATOM      1  C   UNL     1       3.116   4.093  17.444  0.00  0.00    +0.000 C 
ATOM      2  C   UNL     1       4.580   4.313  17.192  0.00  0.00    +0.000 A 
ATOM      3  C   UNL     1       5.073   4.370  15.880  0.00  0.00    +0.000 A 
ATOM      4  C   UNL     1       6.443   4.574  15.657  0.00  0.00    +0.000 A 
ATOM      5  C   UNL     1       7.328   4.719  16.734  0.00  0.00    +0.000 A 
ATOM      6  C   UNL     1       6.838   4.666  18.040  0.00  0.00    +0.000 A 
ATOM      7  C   UNL     1       5.474   4.467  18.259  0.00  0.00    +0.000 A 
ENDROOT
BRANCH   4   8
ATOM      8  N   UNL     1       6.952   4.636  14.280  0.00  0.00    +0.000 N 
ATOM      9  O   UNL     1       6.480   3.843  13.453  0.00  0.00    +0.000 OA
ATOM     10  O   UNL     1       7.822   5.480  14.027  0.00  0.00    +0.000 OA
ENDBRANCH   4   8
BRANCH   7  11
ATOM     11  O   UNL     1       4.978   4.418  19.530  0.00  0.00    +0.000 OA
ATOM     12  H   UNL     1       5.467   3.753  20.042  0.00  0.00    +0.000 HD
ENDBRANCH   7  11
TORSDOF 2
ENDMDL
MODEL 6
REMARK VINA RESULT:      -5.2      2.588      3.258
REMARK  Name = 
REMARK  3 active torsions:
REMARK  status: ('A' for Active; 'I' for Inactive)
REMARK    1  A    between atoms: C_1  and  C_2
REMARK    2  A    between atoms: C_4  and  N_5
REMARK    3  A    between atoms: C_10  and  O_11
REMARK                            x       y       z     vdW  Elec       q    Type
REMARK                         _______ _______ _______ _____ _____    ______ ____
ROOT
ATOM      1  C   UNL     1       2.383   2.722  21.660  0.00  0.00    +0.000 C 
ATOM      2  C   UNL     1       2.550   3.169  20.236  0.00  0.00    +0.000 A 
ATOM      3  C   UNL     1       3.828   3.428  19.719  0.00  0.00    +0.000 A 
ATOM      4  C   UNL     1       3.972   3.847  18.389  0.00  0.00    +0.000 A 
ATOM      5  C   UNL     1       2.849   4.014  17.567  0.00  0.00    +0.000 A 
ATOM      6  C   UNL     1       1.577   3.753  18.079  0.00  0.00    +0.000 A 
ATOM      7  C   UNL     1       1.437   3.332  19.402  0.00  0.00    +0.000 A 
ENDROOT
BRANCH   4   8
ATOM      8  N   UNL     1       5.314   4.112  17.853  0.00  0.00    +0.000 N 
ATOM      9  O   UNL     1       6.230   4.315  18.663  0.00  0.00    +0.000 OA
ATOM     10  O   UNL     1       5.451   4.118  16.622  0.00  0.00    +0.000 OA
ENDBRANCH   4   8
BRANCH   7  11
ATOM     11  O   UNL     1       0.200   3.069  19.917  0.00  0.00    +0.000 OA
ATOM     12  H   UNL     1      -0.473   3.533  19.393  0.00  0.00    +0.000 HD
ENDBRANCH   7  11
TORSDOF 2
ENDMDL
MODEL 7
REMARK VINA RESULT:      -5.2      1.190      1.190
REMARK  Name = 
REMARK  3 active torsions:
REMARK  status: ('A' for Active; 'I' for Inactive)
REMARK    1  A    between atoms: C_1  and  C_2
REMARK    2  A    between atoms: C_4  and  N_5
REMARK    3  A    between atoms: C_10  and  O_11
REMARK                            x       y       z     vdW  Elec       q    Type
REMARK                         _______ _______ _______ _____ _____    ______ ____
ROOT
ATOM      1  C   UNL     1       2.571   2.988  17.285  0.00  0.00    +0.000 C 
ATOM      2  C   UNL     1       3.700   3.840  17.791  0.00  0.00    +0.000 A 
ATOM      3  C   UNL     1       4.898   3.931  17.067  0.00  0.00    +0.000 A 
ATOM      4  C   UNL     1       5.947   4.728  17.549  0.00  0.00    +0.000 A 
ATOM      5  C   UNL     1       5.812   5.434  18.753  0.00  0.00    +0.000 A 
ATOM      6  C   UNL     1       4.619   5.346  19.472  0.00  0.00    +0.000 A 
ATOM      7  C   UNL     1       3.576   4.556  18.988  0.00  0.00    +0.000 A 
ENDROOT
BRANCH   4   8
ATOM      8  N   UNL     1       7.197   4.823  16.784  0.00  0.00    +0.000 N 
ATOM      9  O   UNL     1       7.200   5.532  15.768  0.00  0.00    +0.000 OA
ATOM     10  O   UNL     1       8.176   4.188  17.201  0.00  0.00    +0.000 OA
ENDBRANCH   4   8
BRANCH   7  11
ATOM     11  O   UNL     1       2.401   4.463  19.677  0.00  0.00    +0.000 OA
ATOM     12  H   UNL     1       2.430   5.054  20.447  0.00  0.00    +0.000 HD
ENDBRANCH   7  11
TORSDOF 2
ENDMDL
MODEL 8
REMARK VINA RESULT:      -5.2      1.557      1.736
REMARK  Name = 
REMARK  3 active torsions:
REMARK  status: ('A' for Active; 'I' for Inactive)
REMARK    1  A    between atoms: C_1  and  C_2
REMARK    2  A    between atoms: C_4  and  N_5
REMARK    3  A    between atoms: C_10  and  O_11
REMARK                            x       y       z     vdW  Elec       q    Type
REMARK                         _______ _______ _______ _____ _____    ______ ____
ROOT
ATOM      1  C   UNL     1       2.058   4.164  17.904  0.00  0.00    +0.000 C 
ATOM      2  C   UNL     1       3.522   4.486  18.002  0.00  0.00    +0.000 A 
ATOM      3  C   UNL     1       4.381   4.213  16.927  0.00  0.00    +0.000 A 
ATOM      4  C   UNL     1       5.746   4.515  17.029  0.00  0.00    +0.000 A 
ATOM      5  C   UNL     1       6.266   5.086  18.200  0.00  0.00    +0.000 A 
ATOM      6  C   UNL     1       5.411   5.360  19.270  0.00  0.00    +0.000 A 
ATOM      7  C   UNL     1       4.052   5.062  19.163  0.00  0.00    +0.000 A 
ENDROOT
BRANCH   4   8
ATOM      8  N   UNL     1       6.639   4.231  15.898  0.00  0.00    +0.000 N 
ATOM      9  O   UNL     1       7.822   4.589  15.991  0.00  0.00    +0.000 OA
ATOM     10  O   UNL     1       6.156   3.649  14.917  0.00  0.00    +0.000 OA
ENDBRANCH   4   8
BRANCH   7  11
ATOM     11  O   UNL     1       3.202   5.329  20.198  0.00  0.00    +0.000 OA
ATOM     12  H   UNL     1       3.710   5.394  21.023  0.00  0.00    +0.000 HD
ENDBRANCH   7  11
TORSDOF 2
ENDMDL
MODEL 9
REMARK VINA RESULT:      -5.2      2.326      4.112
REMARK  Name = 
REMARK  3 active torsions:
REMARK  status: ('A' for Active; 'I' for Inactive)
REMARK    1  A    between atoms: C_1  and  C_2
REMARK    2  A    between atoms: C_4  and  N_5
REMARK    3  A    between atoms: C_10  and  O_11
REMARK                            x       y       z     vdW  Elec       q    Type
REMARK                         _______ _______ _______ _____ _____    ______ ____
ROOT
ATOM      1  C   UNL     1       5.536   4.116  14.422  0.00  0.00    +0.000 C 
ATOM      2  C   UNL     1       5.861   4.454  15.848  0.00  0.00    +0.000 A 
ATOM      3  C   UNL     1       5.065   3.961  16.892  0.00  0.00    +0.000 A 
ATOM      4  C   UNL     1       5.375   4.285  18.221  0.00  0.00    +0.000 A 
ATOM      5  C   UNL     1       6.476   5.101  18.519  0.00  0.00    +0.000 A 
ATOM      6  C   UNL     1       7.270   5.590  17.480  0.00  0.00    +0.000 A 
ATOM      7  C   UNL     1       6.961   5.263  16.160  0.00  0.00    +0.000 A 
ENDROOT
BRANCH   4   8
ATOM      8  N   UNL     1       4.540   3.761  19.310  0.00  0.00    +0.000 N 
ATOM      9  O   UNL     1       4.919   2.732  19.886  0.00  0.00    +0.000 OA
ATOM     10  O   UNL     1       3.504   4.381  19.589  0.00  0.00    +0.000 OA
ENDBRANCH   4   8
BRANCH   7  11
ATOM     11  O   UNL     1       7.731   5.729  15.133  0.00  0.00    +0.000 OA
ATOM     12  H   UNL     1       7.382   5.395  14.290  0.00  0.00    +0.000 HD
ENDBRANCH   7  11
TORSDOF 2
ENDMDL
