MODEL 1
REMARK VINA RESULT:      -6.7      0.000      0.000
REMARK  Name = 
REMARK  3 active torsions:
REMARK  status: ('A' for Active; 'I' for Inactive)
REMARK    1  A    between atoms: C_1  and  O_2
REMARK    2  A    between atoms: O_2  and  C_3
REMARK    3  A    between atoms: N_10  and  C_11
REMARK                            x       y       z     vdW  Elec       q    Type
REMARK                         _______ _______ _______ _____ _____    ______ ____
ROOT
ATOM      1  C   UNL     1      -0.118  11.536  21.654  0.00  0.00    +0.000 C 
ATOM      2  C   UNL     1      -1.252  11.970  20.694  0.00  0.00    +0.000 C 
ATOM      3  C   UNL     1      -0.822  11.846  19.225  0.00  0.00    +0.000 C 
ATOM      4  C   UNL     1      -0.526  10.387  18.853  0.00  0.00    +0.000 C 
ATOM      5  C   UNL     1       0.266   9.713  19.919  0.00  0.00    +0.000 A 
ATOM      6  N   UNL     1       0.884   8.515  19.669  0.00  0.00    +0.000 NA
ATOM      7  C   UNL     1       1.579   8.119  20.714  0.00  0.00    +0.000 A 
ATOM      8  N   UNL     1       2.311   6.978  20.756  0.00  0.00    +0.000 N 
ATOM      9  S   UNL     1       1.500   9.202  22.066  0.00  0.00    +0.000 S 
ATOM     10  C   UNL     1       0.438  10.217  21.192  0.00  0.00    +0.000 A 
ATOM     11  H   UNL     1       3.081   6.888  21.397  0.00  0.00    +0.000 HD
ENDROOT
BRANCH   8  12
ATOM     12  C   UNL     1       2.043   5.839  19.956  0.00  0.00    +0.000 A 
ATOM     13  C   UNL     1       1.284   4.775  20.474  0.00  0.00    +0.000 A 
ATOM     14  C   UNL     1       0.931   3.674  19.697  0.00  0.00    +0.000 A 
ATOM     15  C   UNL     1       1.309   3.621  18.361  0.00  0.00    +0.000 A 
ATOM     16  C   UNL     1       2.064   4.662  17.816  0.00  0.00    +0.000 A 
ATOM     17  C   UNL     1       2.437   5.756  18.608  0.00  0.00    +0.000 A 
ATOM     18 CL   UNL     1       3.373   7.012  17.872  0.00  0.00    +0.000 Cl
ENDBRANCH   8  12
BRANCH   1  20
ATOM     19  C   UNL     1      -2.000  11.648  23.103  0.00  0.00    +0.000 C 
ATOM     20  O   UNL     1      -0.603  11.395  22.991  0.00  0.00    +0.000 OA
ENDBRANCH   1  20
TORSDOF 2
ENDMDL
MODEL 2
REMARK VINA RESULT:      -6.6      1.646      1.870
REMARK  Name = 
REMARK  3 active torsions:
REMARK  status: ('A' for Active; 'I' for Inactive)
REMARK    1  A    between atoms: C_1  and  O_2
REMARK    2  A    between atoms: O_2  and  C_3
REMARK    3  A    between atoms: N_10  and  C_11
REMARK                            x       y       z     vdW  Elec       q    Type
REMARK                         _______ _______ _______ _____ _____    ______ ____
ROOT
ATOM      1  C   UNL     1       0.612  10.717  20.476  0.00  0.00    +0.000 C 
ATOM      2  C   UNL     1       0.450  11.391  19.091  0.00  0.00    +0.000 C 
ATOM      3  C   UNL     1       1.694  11.181  18.216  0.00  0.00    +0.000 C 
ATOM      4  C   UNL     1       1.913   9.693  17.908  0.00  0.00    +0.000 C 
ATOM      5  C   UNL     1       1.711   8.859  19.126  0.00  0.00    +0.000 A 
ATOM      6  N   UNL     1       2.137   7.557  19.150  0.00  0.00    +0.000 NA
ATOM      7  C   UNL     1       1.922   7.016  20.331  0.00  0.00    +0.000 A 
ATOM      8  N   UNL     1       2.255   5.742  20.659  0.00  0.00    +0.000 N 
ATOM      9  S   UNL     1       1.174   8.086  21.472  0.00  0.00    +0.000 S 
ATOM     10  C   UNL     1       1.107   9.310  20.282  0.00  0.00    +0.000 A 
ATOM     11  H   UNL     1       2.406   5.485  21.620  0.00  0.00    +0.000 HD
ENDROOT
BRANCH   8  12
ATOM     12  C   UNL     1       2.378   4.692  19.716  0.00  0.00    +0.000 A 
ATOM     13  C   UNL     1       1.256   3.922  19.364  0.00  0.00    +0.000 A 
ATOM     14  C   UNL     1       1.317   2.933  18.384  0.00  0.00    +0.000 A 
ATOM     15  C   UNL     1       2.508   2.705  17.706  0.00  0.00    +0.000 A 
ATOM     16  C   UNL     1       3.641   3.452  18.032  0.00  0.00    +0.000 A 
ATOM     17  C   UNL     1       3.581   4.430  19.035  0.00  0.00    +0.000 A 
ATOM     18 CL   UNL     1       5.022   5.319  19.391  0.00  0.00    +0.000 Cl
ENDBRANCH   8  12
BRANCH   1  20
ATOM     19  C   UNL     1      -0.683  11.604  22.262  0.00  0.00    +0.000 C 
ATOM     20  O   UNL     1      -0.632  10.681  21.179  0.00  0.00    +0.000 OA
ENDBRANCH   1  20
TORSDOF 2
ENDMDL
MODEL 3
REMARK VINA RESULT:      -6.5      1.622      2.045
REMARK  Name = 
REMARK  3 active torsions:
REMARK  status: ('A' for Active; 'I' for Inactive)
REMARK    1  A    between atoms: C_1  and  O_2
REMARK    2  A    between atoms: O_2  and  C_3
REMARK    3  A    between atoms: N_10  and  C_11
REMARK                            x       y       z     vdW  Elec       q    Type
REMARK                         _______ _______ _______ _____ _____    ______ ____
ROOT
ATOM      1  C   UNL     1      -0.024  10.814  21.026  0.00  0.00    +0.000 C 
ATOM      2  C   UNL     1      -0.551  11.574  19.784  0.00  0.00    +0.000 C 
ATOM      3  C   UNL     1       0.546  11.743  18.722  0.00  0.00    +0.000 C 
ATOM      4  C   UNL     1       1.015  10.385  18.185  0.00  0.00    +0.000 C 
ATOM      5  C   UNL     1       1.196   9.404  19.292  0.00  0.00    +0.000 A 
ATOM      6  N   UNL     1       1.881   8.237  19.077  0.00  0.00    +0.000 NA
ATOM      7  C   UNL     1       1.983   7.541  20.190  0.00  0.00    +0.000 A 
ATOM      8  N   UNL     1       2.623   6.349  20.288  0.00  0.00    +0.000 N 
ATOM      9  S   UNL     1       1.231   8.289  21.561  0.00  0.00    +0.000 S 
ATOM     10  C   UNL     1       0.713   9.584  20.572  0.00  0.00    +0.000 A 
ATOM     11  H   UNL     1       2.982   6.034  21.174  0.00  0.00    +0.000 HD
ENDROOT
BRANCH   8  12
ATOM     12  C   UNL     1       2.803   5.458  19.202  0.00  0.00    +0.000 A 
ATOM     13  C   UNL     1       3.820   5.689  18.260  0.00  0.00    +0.000 A 
ATOM     14  C   UNL     1       4.083   4.797  17.223  0.00  0.00    +0.000 A 
ATOM     15  C   UNL     1       3.343   3.625  17.116  0.00  0.00    +0.000 A 
ATOM     16  C   UNL     1       2.325   3.365  18.036  0.00  0.00    +0.000 A 
ATOM     17  C   UNL     1       2.050   4.278  19.063  0.00  0.00    +0.000 A 
ATOM     18 CL   UNL     1       0.774   3.897  20.169  0.00  0.00    +0.000 Cl
ENDBRANCH   8  12
BRANCH   1  20
ATOM     19  C   UNL     1      -1.184  11.221  23.061  0.00  0.00    +0.000 C 
ATOM     20  O   UNL     1      -1.098  10.424  21.884  0.00  0.00    +0.000 OA
ENDBRANCH   1  20
TORSDOF 2
ENDMDL
MODEL 4
REMARK VINA RESULT:      -6.4      3.112      7.018
REMARK  Name = 
REMARK  3 active torsions:
REMARK  status: ('A' for Active; 'I' for Inactive)
REMARK    1  A    between atoms: C_1  and  O_2
REMARK    2  A    between atoms: O_2  and  C_3
REMARK    3  A    between atoms: N_10  and  C_11
REMARK                            x       y       z     vdW  Elec       q    Type
REMARK                         _______ _______ _______ _____ _____    ______ ____
ROOT
ATOM      1  C   UNL     1       3.016   3.427  18.477  0.00  0.00    +0.000 C 
ATOM      2  C   UNL     1       1.999   2.323  18.857  0.00  0.00    +0.000 C 
ATOM      3  C   UNL     1       1.724   2.310  20.368  0.00  0.00    +0.000 C 
ATOM      4  C   UNL     1       1.072   3.622  20.825  0.00  0.00    +0.000 C 
ATOM      5  C   UNL     1       1.740   4.798  20.201  0.00  0.00    +0.000 A 
ATOM      6  N   UNL     1       1.516   6.059  20.689  0.00  0.00    +0.000 NA
ATOM      7  C   UNL     1       2.243   6.947  20.043  0.00  0.00    +0.000 A 
ATOM      8  N   UNL     1       2.245   8.275  20.317  0.00  0.00    +0.000 N 
ATOM      9  S   UNL     1       3.236   6.271  18.793  0.00  0.00    +0.000 S 
ATOM     10  C   UNL     1       2.604   4.719  19.128  0.00  0.00    +0.000 A 
ATOM     11  H   UNL     1       3.036   8.847  20.069  0.00  0.00    +0.000 HD
ENDROOT
BRANCH   8  12
ATOM     12  C   UNL     1       1.160   8.959  20.919  0.00  0.00    +0.000 A 
ATOM     13  C   UNL     1       0.997   8.935  22.315  0.00  0.00    +0.000 A 
ATOM     14  C   UNL     1      -0.009   9.657  22.953  0.00  0.00    +0.000 A 
ATOM     15  C   UNL     1      -0.870  10.452  22.205  0.00  0.00    +0.000 A 
ATOM     16  C   UNL     1      -0.735  10.498  20.816  0.00  0.00    +0.000 A 
ATOM     17  C   UNL     1       0.264   9.750  20.177  0.00  0.00    +0.000 A 
ATOM     18 CL   UNL     1       0.377   9.850  18.453  0.00  0.00    +0.000 Cl
ENDBRANCH   8  12
BRANCH   1  20
ATOM     19  C   UNL     1       4.396   3.724  16.563  0.00  0.00    +0.000 C 
ATOM     20  O   UNL     1       3.066   3.614  17.061  0.00  0.00    +0.000 OA
ENDBRANCH   1  20
TORSDOF 2
ENDMDL
MODEL 5
REMARK VINA RESULT:      -6.3      4.476      6.436
REMARK  Name = 
REMARK  3 active torsions:
REMARK  status: ('A' for Active; 'I' for Inactive)
REMARK    1  A    between atoms: C_1  and  O_2
REMARK    2  A    between atoms: O_2  and  C_3
REMARK    3  A    between atoms: N_10  and  C_11
REMARK                            x       y       z     vdW  Elec       q    Type
REMARK                         _______ _______ _______ _____ _____    ______ ____
ROOT
ATOM      1  C   UNL     1       2.187   4.785  21.058  0.00  0.00    +0.000 C 
ATOM      2  C   UNL     1       1.155   5.884  20.700  0.00  0.00    +0.000 C 
ATOM      3  C   UNL     1       1.847   7.187  20.274  0.00  0.00    +0.000 C 
ATOM      4  C   UNL     1       2.671   6.986  18.995  0.00  0.00    +0.000 C 
ATOM      5  C   UNL     1       3.447   5.716  19.051  0.00  0.00    +0.000 A 
ATOM      6  N   UNL     1       4.461   5.485  18.159  0.00  0.00    +0.000 NA
ATOM      7  C   UNL     1       5.058   4.340  18.414  0.00  0.00    +0.000 A 
ATOM      8  N   UNL     1       6.110   3.854  17.708  0.00  0.00    +0.000 N 
ATOM      9  S   UNL     1       4.393   3.483  19.766  0.00  0.00    +0.000 S 
ATOM     10  C   UNL     1       3.220   4.710  19.968  0.00  0.00    +0.000 A 
ATOM     11  H   UNL     1       6.744   3.193  18.126  0.00  0.00    +0.000 HD
ENDROOT
BRANCH   8  12
ATOM     12  C   UNL     1       6.377   4.191  16.358  0.00  0.00    +0.000 A 
ATOM     13  C   UNL     1       5.925   3.360  15.319  0.00  0.00    +0.000 A 
ATOM     14  C   UNL     1       6.097   3.694  13.978  0.00  0.00    +0.000 A 
ATOM     15  C   UNL     1       6.709   4.895  13.638  0.00  0.00    +0.000 A 
ATOM     16  C   UNL     1       7.170   5.744  14.647  0.00  0.00    +0.000 A 
ATOM     17  C   UNL     1       7.015   5.391  15.995  0.00  0.00    +0.000 A 
ATOM     18 CL   UNL     1       7.610   6.486  17.195  0.00  0.00    +0.000 Cl
ENDBRANCH   8  12
BRANCH   1  20
ATOM     19  C   UNL     1       0.714   3.192  20.087  0.00  0.00    +0.000 C 
ATOM     20  O   UNL     1       1.555   3.511  21.191  0.00  0.00    +0.000 OA
ENDBRANCH   1  20
TORSDOF 2
ENDMDL
MODEL 6
REMARK VINA RESULT:      -6.2      4.252      7.424
REMARK  Name = 
REMARK  3 active torsions:
REMARK  status: ('A' for Active; 'I' for Inactive)
REMARK    1  A    between atoms: C_1  and  O_2
REMARK    2  A    between atoms: O_2  and  C_3
REMARK    3  A    between atoms: N_10  and  C_11
REMARK                            x       y       z     vdW  Elec       q    Type
REMARK                         _______ _______ _______ _____ _____    ______ ____
ROOT
ATOM      1  C   UNL     1       6.392   4.467  17.593  0.00  0.00    +0.000 C 
ATOM      2  C   UNL     1       7.073   5.018  16.316  0.00  0.00    +0.000 C 
ATOM      3  C   UNL     1       6.043   5.334  15.222  0.00  0.00    +0.000 C 
ATOM      4  C   UNL     1       5.082   6.445  15.667  0.00  0.00    +0.000 C 
ATOM      5  C   UNL     1       4.634   6.233  17.072  0.00  0.00    +0.000 A 
ATOM      6  N   UNL     1       3.562   6.928  17.567  0.00  0.00    +0.000 NA
ATOM      7  C   UNL     1       3.290   6.555  18.800  0.00  0.00    +0.000 A 
ATOM      8  N   UNL     1       2.272   7.057  19.542  0.00  0.00    +0.000 N 
ATOM      9  S   UNL     1       4.350   5.329  19.416  0.00  0.00    +0.000 S 
ATOM     10  C   UNL     1       5.233   5.356  17.952  0.00  0.00    +0.000 A 
ATOM     11  H   UNL     1       1.883   6.524  20.303  0.00  0.00    +0.000 HD
ENDROOT
BRANCH   8  12
ATOM     12  C   UNL     1       1.711   8.343  19.346  0.00  0.00    +0.000 A 
ATOM     13  C   UNL     1       1.636   8.891  18.053  0.00  0.00    +0.000 A 
ATOM     14  C   UNL     1       1.022  10.116  17.805  0.00  0.00    +0.000 A 
ATOM     15  C   UNL     1       0.437  10.820  18.851  0.00  0.00    +0.000 A 
ATOM     16  C   UNL     1       0.493  10.303  20.147  0.00  0.00    +0.000 A 
ATOM     17  C   UNL     1       1.134   9.081  20.395  0.00  0.00    +0.000 A 
ATOM     18 CL   UNL     1       1.170   8.497  22.024  0.00  0.00    +0.000 Cl
ENDBRANCH   8  12
BRANCH   1  20
ATOM     19  C   UNL     1       7.893   5.698  18.966  0.00  0.00    +0.000 C 
ATOM     20  O   UNL     1       7.308   4.429  18.689  0.00  0.00    +0.000 OA
ENDBRANCH   1  20
TORSDOF 2
ENDMDL
MODEL 7
REMARK VINA RESULT:      -6.1      6.047      7.502
REMARK  Name = 
REMARK  3 active torsions:
REMARK  status: ('A' for Active; 'I' for Inactive)
REMARK    1  A    between atoms: C_1  and  O_2
REMARK    2  A    between atoms: O_2  and  C_3
REMARK    3  A    between atoms: N_10  and  C_11
REMARK                            x       y       z     vdW  Elec       q    Type
REMARK                         _______ _______ _______ _____ _____    ______ ____
ROOT
ATOM      1  C   UNL     1       1.563   2.178  19.482  0.00  0.00    +0.000 C 
ATOM      2  C   UNL     1       0.822   2.873  20.651  0.00  0.00    +0.000 C 
ATOM      3  C   UNL     1       1.778   3.197  21.808  0.00  0.00    +0.000 C 
ATOM      4  C   UNL     1       2.857   4.199  21.374  0.00  0.00    +0.000 C 
ATOM      5  C   UNL     1       3.404   3.849  20.033  0.00  0.00    +0.000 A 
ATOM      6  N   UNL     1       4.564   4.426  19.588  0.00  0.00    +0.000 NA
ATOM      7  C   UNL     1       4.908   3.941  18.413  0.00  0.00    +0.000 A 
ATOM      8  N   UNL     1       6.021   4.311  17.731  0.00  0.00    +0.000 N 
ATOM      9  S   UNL     1       3.811   2.751  17.793  0.00  0.00    +0.000 S 
ATOM     10  C   UNL     1       2.814   2.952  19.166  0.00  0.00    +0.000 A 
ATOM     11  H   UNL     1       6.430   3.695  17.048  0.00  0.00    +0.000 HD
ENDROOT
BRANCH   8  12
ATOM     12  C   UNL     1       6.662   5.565  17.887  0.00  0.00    +0.000 A 
ATOM     13  C   UNL     1       7.695   5.719  18.828  0.00  0.00    +0.000 A 
ATOM     14  C   UNL     1       8.404   6.911  18.957  0.00  0.00    +0.000 A 
ATOM     15  C   UNL     1       8.112   7.983  18.123  0.00  0.00    +0.000 A 
ATOM     16  C   UNL     1       7.091   7.863  17.178  0.00  0.00    +0.000 A 
ATOM     17  C   UNL     1       6.365   6.669  17.068  0.00  0.00    +0.000 A 
ATOM     18 CL   UNL     1       5.111   6.587  15.877  0.00  0.00    +0.000 Cl
ENDBRANCH   8  12
BRANCH   1  20
ATOM     19  C   UNL     1       0.477   3.409  17.761  0.00  0.00    +0.000 C 
ATOM     20  O   UNL     1       0.742   2.123  18.314  0.00  0.00    +0.000 OA
ENDBRANCH   1  20
TORSDOF 2
ENDMDL
MODEL 8
REMARK VINA RESULT:      -6.1      3.375      7.031
REMARK  Name = 
REMARK  3 active torsions:
REMARK  status: ('A' for Active; 'I' for Inactive)
REMARK    1  A    between atoms: C_1  and  O_2
REMARK    2  A    between atoms: O_2  and  C_3
REMARK    3  A    between atoms: N_10  and  C_11
REMARK                            x       y       z     vdW  Elec       q    Type
REMARK                         _______ _______ _______ _____ _____    ______ ____
ROOT
ATOM      1  C   UNL     1       3.655   3.184  19.274  0.00  0.00    +0.000 C 
ATOM      2  C   UNL     1       2.579   2.214  19.822  0.00  0.00    +0.000 C 
ATOM      3  C   UNL     1       1.985   2.723  21.144  0.00  0.00    +0.000 C 
ATOM      4  C   UNL     1       1.252   4.057  20.948  0.00  0.00    +0.000 C 
ATOM      5  C   UNL     1       2.040   4.979  20.083  0.00  0.00    +0.000 A 
ATOM      6  N   UNL     1       1.719   6.309  20.018  0.00  0.00    +0.000 NA
ATOM      7  C   UNL     1       2.568   6.960  19.251  0.00  0.00    +0.000 A 
ATOM      8  N   UNL     1       2.514   8.294  19.011  0.00  0.00    +0.000 N 
ATOM      9  S   UNL     1       3.806   5.959  18.562  0.00  0.00    +0.000 S 
ATOM     10  C   UNL     1       3.114   4.587  19.310  0.00  0.00    +0.000 A 
ATOM     11  H   UNL     1       3.340   8.798  18.735  0.00  0.00    +0.000 HD
ENDROOT
BRANCH   8  12
ATOM     12  C   UNL     1       1.325   9.061  19.090  0.00  0.00    +0.000 A 
ATOM     13  C   UNL     1       0.613   9.383  17.922  0.00  0.00    +0.000 A 
ATOM     14  C   UNL     1      -0.600  10.067  17.961  0.00  0.00    +0.000 A 
ATOM     15  C   UNL     1      -1.151  10.427  19.185  0.00  0.00    +0.000 A 
ATOM     16  C   UNL     1      -0.468  10.122  20.365  0.00  0.00    +0.000 A 
ATOM     17  C   UNL     1       0.764   9.455  20.318  0.00  0.00    +0.000 A 
ATOM     18 CL   UNL     1       1.558   9.108  21.816  0.00  0.00    +0.000 Cl
ENDBRANCH   8  12
BRANCH   1  20
ATOM     19  C   UNL     1       2.872   2.618  17.102  0.00  0.00    +0.000 C 
ATOM     20  O   UNL     1       4.007   2.854  17.930  0.00  0.00    +0.000 OA
ENDBRANCH   1  20
TORSDOF 2
ENDMDL
MODEL 9
REMARK VINA RESULT:      -6.1      3.567      7.332
REMARK  Name = 
REMARK  3 active torsions:
REMARK  status: ('A' for Active; 'I' for Inactive)
REMARK    1  A    between atoms: C_1  and  O_2
REMARK    2  A    between atoms: O_2  and  C_3
REMARK    3  A    between atoms: N_10  and  C_11
REMARK                            x       y       z     vdW  Elec       q    Type
REMARK                         _______ _______ _______ _____ _____    ______ ____
ROOT
ATOM      1  C   UNL     1       4.146   3.814  17.220  0.00  0.00    +0.000 C 
ATOM      2  C   UNL     1       3.112   2.663  17.250  0.00  0.00    +0.000 C 
ATOM      3  C   UNL     1       2.351   2.626  18.584  0.00  0.00    +0.000 C 
ATOM      4  C   UNL     1       1.526   3.903  18.789  0.00  0.00    +0.000 C 
ATOM      5  C   UNL     1       2.310   5.113  18.413  0.00  0.00    +0.000 A 
ATOM      6  N   UNL     1       1.880   6.359  18.789  0.00  0.00    +0.000 NA
ATOM      7  C   UNL     1       2.740   7.283  18.414  0.00  0.00    +0.000 A 
ATOM      8  N   UNL     1       2.591   8.609  18.662  0.00  0.00    +0.000 N 
ATOM      9  S   UNL     1       4.121   6.663  17.570  0.00  0.00    +0.000 S 
ATOM     10  C   UNL     1       3.483   5.081  17.688  0.00  0.00    +0.000 A 
ATOM     11  H   UNL     1       3.393   9.217  18.686  0.00  0.00    +0.000 HD
ENDROOT
BRANCH   8  12
ATOM     12  C   UNL     1       1.338   9.238  18.864  0.00  0.00    +0.000 A 
ATOM     13  C   UNL     1       0.569   9.652  17.763  0.00  0.00    +0.000 A 
ATOM     14  C   UNL     1      -0.702  10.202  17.914  0.00  0.00    +0.000 A 
ATOM     15  C   UNL     1      -1.253  10.329  19.184  0.00  0.00    +0.000 A 
ATOM     16  C   UNL     1      -0.515   9.928  20.299  0.00  0.00    +0.000 A 
ATOM     17  C   UNL     1       0.773   9.397  20.142  0.00  0.00    +0.000 A 
ATOM     18 CL   UNL     1       1.635   8.920  21.566  0.00  0.00    +0.000 Cl
ENDBRANCH   8  12
BRANCH   1  20
ATOM     19  C   UNL     1       6.076   3.941  15.836  0.00  0.00    +0.000 C 
ATOM     20  O   UNL     1       4.654   4.014  15.900  0.00  0.00    +0.000 OA
ENDBRANCH   1  20
TORSDOF 2
ENDMDL
