MODEL 1
REMARK VINA RESULT:      -9.3      0.000      0.000
REMARK  Name = 
REMARK  3 active torsions:
REMARK  status: ('A' for Active; 'I' for Inactive)
REMARK    1  A    between atoms: C_7  and  C_8
REMARK    2  A    between atoms: N_13  and  C_14
REMARK    3  A    between atoms: C_17  and  C_18
REMARK                            x       y       z     vdW  Elec       q    Type
REMARK                         _______ _______ _______ _____ _____    ______ ____
ROOT
ATOM      1  C   UNL     1      -1.198  11.458  22.597  0.00  0.00    +0.000 A 
ATOM      2  C   UNL     1      -0.765  10.349  23.358  0.00  0.00    +0.000 A 
ATOM      3  C   UNL     1       0.062   9.335  22.835  0.00  0.00    +0.000 A 
ATOM      4  C   UNL     1       0.442   9.413  21.484  0.00  0.00    +0.000 A 
ATOM      5  C   UNL     1       1.194   8.642  20.552  0.00  0.00    +0.000 A 
ATOM      6  N   UNL     1       1.872   7.521  20.904  0.00  0.00    +0.000 N 
ATOM      7  N   UNL     1       1.148   9.195  19.332  0.00  0.00    +0.000 NA
ATOM      8  O   UNL     1       0.420  10.362  19.463  0.00  0.00    +0.000 OA
ATOM      9  C   UNL     1      -0.010  10.487  20.743  0.00  0.00    +0.000 A 
ATOM     10  C   UNL     1      -0.790  11.527  21.248  0.00  0.00    +0.000 A 
ATOM     11  H   UNL     1       2.099   7.378  21.882  0.00  0.00    +0.000 HD
ENDROOT
BRANCH   1  18
ATOM     12  F   UNL     1      -0.317  14.174  23.102  0.00  0.00    +0.000 F 
ATOM     13  C   UNL     1      -1.568  13.827  23.442  0.00  0.00    +0.000 A 
ATOM     14  C   UNL     1      -2.359  14.815  24.033  0.00  0.00    +0.000 A 
ATOM     15  C   UNL     1      -3.675  14.535  24.381  0.00  0.00    +0.000 A 
ATOM     16  C   UNL     1      -4.191  13.267  24.136  0.00  0.00    +0.000 A 
ATOM     17  C   UNL     1      -3.385  12.276  23.557  0.00  0.00    +0.000 A 
ATOM     18  C   UNL     1      -2.047  12.526  23.194  0.00  0.00    +0.000 A 
ENDBRANCH   1  18
BRANCH   6  19
ATOM     19  C   UNL     1       2.095   6.357  20.141  0.00  0.00    +0.000 A 
ATOM     20  C   UNL     1       1.454   5.166  20.504  0.00  0.00    +0.000 A 
ATOM     21  C   UNL     1       1.638   3.993  19.763  0.00  0.00    +0.000 A 
ATOM     22  C   UNL     1       2.467   3.988  18.633  0.00  0.00    +0.000 A 
ATOM     23  C   UNL     1       3.141   5.168  18.290  0.00  0.00    +0.000 A 
ATOM     24  C   UNL     1       2.972   6.331  19.049  0.00  0.00    +0.000 A 
BRANCH  22  25
ATOM     25  C   UNL     1       2.629   2.752  17.786  0.00  0.00    +0.000 C 
ATOM     26  F   UNL     1       2.594   3.001  16.446  0.00  0.00    +0.000 F 
ATOM     27  F   UNL     1       3.816   2.120  18.013  0.00  0.00    +0.000 F 
ATOM     28  F   UNL     1       1.662   1.822  18.017  0.00  0.00    +0.000 F 
ENDBRANCH  22  25
ENDBRANCH   6  19
TORSDOF 3
ENDMDL
MODEL 2
REMARK VINA RESULT:      -9.0      0.439      1.198
REMARK  Name = 
REMARK  3 active torsions:
REMARK  status: ('A' for Active; 'I' for Inactive)
REMARK    1  A    between atoms: C_7  and  C_8
REMARK    2  A    between atoms: N_13  and  C_14
REMARK    3  A    between atoms: C_17  and  C_18
REMARK                            x       y       z     vdW  Elec       q    Type
REMARK                         _______ _______ _______ _____ _____    ______ ____
ROOT
ATOM      1  C   UNL     1      -1.075  11.370  22.551  0.00  0.00    +0.000 A 
ATOM      2  C   UNL     1      -0.780  10.245  23.354  0.00  0.00    +0.000 A 
ATOM      3  C   UNL     1       0.009   9.167  22.905  0.00  0.00    +0.000 A 
ATOM      4  C   UNL     1       0.492   9.197  21.586  0.00  0.00    +0.000 A 
ATOM      5  C   UNL     1       1.254   8.361  20.721  0.00  0.00    +0.000 A 
ATOM      6  N   UNL     1       1.822   7.200  21.134  0.00  0.00    +0.000 N 
ATOM      7  N   UNL     1       1.338   8.896  19.495  0.00  0.00    +0.000 NA
ATOM      8  O   UNL     1       0.687  10.114  19.559  0.00  0.00    +0.000 OA
ATOM      9  C   UNL     1       0.174  10.289  20.802  0.00  0.00    +0.000 A 
ATOM     10  C   UNL     1      -0.565  11.388  21.236  0.00  0.00    +0.000 A 
ATOM     11  H   UNL     1       1.966   7.057  22.128  0.00  0.00    +0.000 HD
ENDROOT
BRANCH   1  18
ATOM     12  F   UNL     1      -0.128  14.099  22.797  0.00  0.00    +0.000 F 
ATOM     13  C   UNL     1      -1.377  13.810  23.194  0.00  0.00    +0.000 A 
ATOM     14  C   UNL     1      -2.134  14.863  23.715  0.00  0.00    +0.000 A 
ATOM     15  C   UNL     1      -3.446  14.643  24.116  0.00  0.00    +0.000 A 
ATOM     16  C   UNL     1      -3.993  13.371  23.994  0.00  0.00    +0.000 A 
ATOM     17  C   UNL     1      -3.222  12.316  23.486  0.00  0.00    +0.000 A 
ATOM     18  C   UNL     1      -1.888  12.504  23.072  0.00  0.00    +0.000 A 
ENDBRANCH   1  18
BRANCH   6  19
ATOM     19  C   UNL     1       2.018   6.011  20.402  0.00  0.00    +0.000 A 
ATOM     20  C   UNL     1       3.157   5.882  19.597  0.00  0.00    +0.000 A 
ATOM     21  C   UNL     1       3.394   4.713  18.866  0.00  0.00    +0.000 A 
ATOM     22  C   UNL     1       2.495   3.640  18.929  0.00  0.00    +0.000 A 
ATOM     23  C   UNL     1       1.334   3.781  19.702  0.00  0.00    +0.000 A 
ATOM     24  C   UNL     1       1.091   4.962  20.411  0.00  0.00    +0.000 A 
BRANCH  22  25
ATOM     25  C   UNL     1       2.763   2.349  18.198  0.00  0.00    +0.000 C 
ATOM     26  F   UNL     1       4.058   1.931  18.288  0.00  0.00    +0.000 F 
ATOM     27  F   UNL     1       2.010   1.318  18.675  0.00  0.00    +0.000 F 
ATOM     28  F   UNL     1       2.488   2.428  16.867  0.00  0.00    +0.000 F 
ENDBRANCH  22  25
ENDBRANCH   6  19
TORSDOF 3
ENDMDL
MODEL 3
REMARK VINA RESULT:      -8.7      0.644      1.191
REMARK  Name = 
REMARK  3 active torsions:
REMARK  status: ('A' for Active; 'I' for Inactive)
REMARK    1  A    between atoms: C_7  and  C_8
REMARK    2  A    between atoms: N_13  and  C_14
REMARK    3  A    between atoms: C_17  and  C_18
REMARK                            x       y       z     vdW  Elec       q    Type
REMARK                         _______ _______ _______ _____ _____    ______ ____
ROOT
ATOM      1  C   UNL     1      -1.510  11.615  22.313  0.00  0.00    +0.000 A 
ATOM      2  C   UNL     1      -0.958  10.592  23.117  0.00  0.00    +0.000 A 
ATOM      3  C   UNL     1      -0.056   9.629  22.623  0.00  0.00    +0.000 A 
ATOM      4  C   UNL     1       0.279   9.666  21.259  0.00  0.00    +0.000 A 
ATOM      5  C   UNL     1       1.074   8.915  20.346  0.00  0.00    +0.000 A 
ATOM      6  N   UNL     1       1.860   7.880  20.736  0.00  0.00    +0.000 N 
ATOM      7  N   UNL     1       0.947   9.394  19.100  0.00  0.00    +0.000 NA
ATOM      8  O   UNL     1       0.119  10.497  19.192  0.00  0.00    +0.000 OA
ATOM      9  C   UNL     1      -0.287  10.653  20.477  0.00  0.00    +0.000 A 
ATOM     10  C   UNL     1      -1.145  11.645  20.950  0.00  0.00    +0.000 A 
ATOM     11  H   UNL     1       2.124   7.812  21.712  0.00  0.00    +0.000 HD
ENDROOT
BRANCH   1  18
ATOM     12  F   UNL     1      -0.668  14.022  23.693  0.00  0.00    +0.000 F 
ATOM     13  C   UNL     1      -1.981  13.778  23.562  0.00  0.00    +0.000 A 
ATOM     14  C   UNL     1      -2.856  14.713  24.120  0.00  0.00    +0.000 A 
ATOM     15  C   UNL     1      -4.229  14.541  23.993  0.00  0.00    +0.000 A 
ATOM     16  C   UNL     1      -4.719  13.433  23.310  0.00  0.00    +0.000 A 
ATOM     17  C   UNL     1      -3.834  12.490  22.767  0.00  0.00    +0.000 A 
ATOM     18  C   UNL     1      -2.436  12.634  22.879  0.00  0.00    +0.000 A 
ENDBRANCH   1  18
BRANCH   6  19
ATOM     19  C   UNL     1       2.168   6.700  20.027  0.00  0.00    +0.000 A 
ATOM     20  C   UNL     1       2.896   6.789  18.834  0.00  0.00    +0.000 A 
ATOM     21  C   UNL     1       3.234   5.640  18.110  0.00  0.00    +0.000 A 
ATOM     22  C   UNL     1       2.854   4.372  18.569  0.00  0.00    +0.000 A 
ATOM     23  C   UNL     1       2.092   4.283  19.742  0.00  0.00    +0.000 A 
ATOM     24  C   UNL     1       1.737   5.437  20.448  0.00  0.00    +0.000 A 
BRANCH  22  25
ATOM     25  C   UNL     1       3.262   3.118  17.837  0.00  0.00    +0.000 C 
ATOM     26  F   UNL     1       2.249   2.550  17.123  0.00  0.00    +0.000 F 
ATOM     27  F   UNL     1       4.263   3.345  16.940  0.00  0.00    +0.000 F 
ATOM     28  F   UNL     1       3.722   2.145  18.671  0.00  0.00    +0.000 F 
ENDBRANCH  22  25
ENDBRANCH   6  19
TORSDOF 3
ENDMDL
MODEL 4
REMARK VINA RESULT:      -8.7      1.035      1.471
REMARK  Name = 
REMARK  3 active torsions:
REMARK  status: ('A' for Active; 'I' for Inactive)
REMARK    1  A    between atoms: C_7  and  C_8
REMARK    2  A    between atoms: N_13  and  C_14
REMARK    3  A    between atoms: C_17  and  C_18
REMARK                            x       y       z     vdW  Elec       q    Type
REMARK                         _______ _______ _______ _____ _____    ______ ____
ROOT
ATOM      1  C   UNL     1      -1.084  11.616  22.238  0.00  0.00    +0.000 A 
ATOM      2  C   UNL     1      -0.784  10.530  23.091  0.00  0.00    +0.000 A 
ATOM      3  C   UNL     1       0.022   9.443  22.696  0.00  0.00    +0.000 A 
ATOM      4  C   UNL     1       0.516   9.423  21.380  0.00  0.00    +0.000 A 
ATOM      5  C   UNL     1       1.296   8.559  20.558  0.00  0.00    +0.000 A 
ATOM      6  N   UNL     1       1.874   7.424  21.027  0.00  0.00    +0.000 N 
ATOM      7  N   UNL     1       1.385   9.042  19.311  0.00  0.00    +0.000 NA
ATOM      8  O   UNL     1       0.720  10.254  19.317  0.00  0.00    +0.000 OA
ATOM      9  C   UNL     1       0.193  10.476  20.548  0.00  0.00    +0.000 A 
ATOM     10  C   UNL     1      -0.562  11.584  20.928  0.00  0.00    +0.000 A 
ATOM     11  H   UNL     1       2.010   7.325  22.026  0.00  0.00    +0.000 HD
ENDROOT
BRANCH   1  18
ATOM     12  F   UNL     1      -3.814  12.119  21.400  0.00  0.00    +0.000 F 
ATOM     13  C   UNL     1      -3.230  12.978  22.250  0.00  0.00    +0.000 A 
ATOM     14  C   UNL     1      -3.992  14.074  22.664  0.00  0.00    +0.000 A 
ATOM     15  C   UNL     1      -3.463  14.985  23.569  0.00  0.00    +0.000 A 
ATOM     16  C   UNL     1      -2.173  14.797  24.054  0.00  0.00    +0.000 A 
ATOM     17  C   UNL     1      -1.409  13.704  23.620  0.00  0.00    +0.000 A 
ATOM     18  C   UNL     1      -1.915  12.762  22.702  0.00  0.00    +0.000 A 
ENDBRANCH   1  18
BRANCH   6  19
ATOM     19  C   UNL     1       2.090   6.207  20.347  0.00  0.00    +0.000 A 
ATOM     20  C   UNL     1       1.283   5.103  20.648  0.00  0.00    +0.000 A 
ATOM     21  C   UNL     1       1.457   3.883  19.985  0.00  0.00    +0.000 A 
ATOM     22  C   UNL     1       2.441   3.742  18.998  0.00  0.00    +0.000 A 
ATOM     23  C   UNL     1       3.276   4.834  18.723  0.00  0.00    +0.000 A 
ATOM     24  C   UNL     1       3.114   6.044  19.406  0.00  0.00    +0.000 A 
BRANCH  22  25
ATOM     25  C   UNL     1       2.602   2.455  18.229  0.00  0.00    +0.000 C 
ATOM     26  F   UNL     1       3.861   1.935  18.295  0.00  0.00    +0.000 F 
ATOM     27  F   UNL     1       1.773   1.474  18.683  0.00  0.00    +0.000 F 
ATOM     28  F   UNL     1       2.325   2.594  16.903  0.00  0.00    +0.000 F 
ENDBRANCH  22  25
ENDBRANCH   6  19
TORSDOF 3
ENDMDL
MODEL 5
REMARK VINA RESULT:      -8.7      0.974      1.751
REMARK  Name = 
REMARK  3 active torsions:
REMARK  status: ('A' for Active; 'I' for Inactive)
REMARK    1  A    between atoms: C_7  and  C_8
REMARK    2  A    between atoms: N_13  and  C_14
REMARK    3  A    between atoms: C_17  and  C_18
REMARK                            x       y       z     vdW  Elec       q    Type
REMARK                         _______ _______ _______ _____ _____    ______ ____
ROOT
ATOM      1  C   UNL     1      -1.208  11.751  22.403  0.00  0.00    +0.000 A 
ATOM      2  C   UNL     1      -0.934  10.615  23.197  0.00  0.00    +0.000 A 
ATOM      3  C   UNL     1      -0.132   9.545  22.755  0.00  0.00    +0.000 A 
ATOM      4  C   UNL     1       0.388   9.594  21.450  0.00  0.00    +0.000 A 
ATOM      5  C   UNL     1       1.175   8.771  20.594  0.00  0.00    +0.000 A 
ATOM      6  N   UNL     1       1.733   7.605  21.007  0.00  0.00    +0.000 N 
ATOM      7  N   UNL     1       1.293   9.325  19.379  0.00  0.00    +0.000 NA
ATOM      8  O   UNL     1       0.639  10.541  19.443  0.00  0.00    +0.000 OA
ATOM      9  C   UNL     1       0.091  10.697  20.674  0.00  0.00    +0.000 A 
ATOM     10  C   UNL     1      -0.661  11.789  21.103  0.00  0.00    +0.000 A 
ATOM     11  H   UNL     1       1.849   7.447  22.001  0.00  0.00    +0.000 HD
ENDROOT
BRANCH   1  18
ATOM     12  F   UNL     1      -4.004  12.169  21.757  0.00  0.00    +0.000 F 
ATOM     13  C   UNL     1      -3.386  13.052  22.558  0.00  0.00    +0.000 A 
ATOM     14  C   UNL     1      -4.148  14.129  23.017  0.00  0.00    +0.000 A 
ATOM     15  C   UNL     1      -3.583  15.064  23.876  0.00  0.00    +0.000 A 
ATOM     16  C   UNL     1      -2.257  14.916  24.269  0.00  0.00    +0.000 A 
ATOM     17  C   UNL     1      -1.494  13.842  23.790  0.00  0.00    +0.000 A 
ATOM     18  C   UNL     1      -2.036  12.877  22.917  0.00  0.00    +0.000 A 
ENDBRANCH   1  18
BRANCH   6  19
ATOM     19  C   UNL     1       1.951   6.427  20.263  0.00  0.00    +0.000 A 
ATOM     20  C   UNL     1       2.811   6.465  19.158  0.00  0.00    +0.000 A 
ATOM     21  C   UNL     1       3.063   5.314  18.402  0.00  0.00    +0.000 A 
ATOM     22  C   UNL     1       2.463   4.094  18.741  0.00  0.00    +0.000 A 
ATOM     23  C   UNL     1       1.572   4.062  19.822  0.00  0.00    +0.000 A 
ATOM     24  C   UNL     1       1.304   5.222  20.558  0.00  0.00    +0.000 A 
BRANCH  22  25
ATOM     25  C   UNL     1       2.770   2.830  17.979  0.00  0.00    +0.000 C 
ATOM     26  F   UNL     1       2.093   1.739  18.436  0.00  0.00    +0.000 F 
ATOM     27  F   UNL     1       2.454   2.934  16.657  0.00  0.00    +0.000 F 
ATOM     28  F   UNL     1       4.090   2.495  18.022  0.00  0.00    +0.000 F 
ENDBRANCH  22  25
ENDBRANCH   6  19
TORSDOF 3
ENDMDL
MODEL 6
REMARK VINA RESULT:      -8.6      2.567     10.041
REMARK  Name = 
REMARK  3 active torsions:
REMARK  status: ('A' for Active; 'I' for Inactive)
REMARK    1  A    between atoms: C_7  and  C_8
REMARK    2  A    between atoms: N_13  and  C_14
REMARK    3  A    between atoms: C_17  and  C_18
REMARK                            x       y       z     vdW  Elec       q    Type
REMARK                         _______ _______ _______ _____ _____    ______ ____
ROOT
ATOM      1  C   UNL     1       2.569   7.361  18.488  0.00  0.00    +0.000 A 
ATOM      2  C   UNL     1       2.051   8.504  17.839  0.00  0.00    +0.000 A 
ATOM      3  C   UNL     1       1.322   9.505  18.511  0.00  0.00    +0.000 A 
ATOM      4  C   UNL     1       1.068   9.338  19.883  0.00  0.00    +0.000 A 
ATOM      5  C   UNL     1       0.377  10.028  20.920  0.00  0.00    +0.000 A 
ATOM      6  N   UNL     1      -0.198  11.243  20.738  0.00  0.00    +0.000 N 
ATOM      7  N   UNL     1       0.410   9.325  22.061  0.00  0.00    +0.000 NA
ATOM      8  O   UNL     1       1.172   8.202  21.802  0.00  0.00    +0.000 OA
ATOM      9  C   UNL     1       1.556   8.204  20.501  0.00  0.00    +0.000 A 
ATOM     10  C   UNL     1       2.318   7.223  19.870  0.00  0.00    +0.000 A 
ATOM     11  H   UNL     1       0.105  11.811  19.956  0.00  0.00    +0.000 HD
ENDROOT
BRANCH   1  18
ATOM     12  F   UNL     1       1.872   4.553  18.303  0.00  0.00    +0.000 F 
ATOM     13  C   UNL     1       2.994   4.980  17.705  0.00  0.00    +0.000 A 
ATOM     14  C   UNL     1       3.760   4.021  17.038  0.00  0.00    +0.000 A 
ATOM     15  C   UNL     1       4.918   4.399  16.369  0.00  0.00    +0.000 A 
ATOM     16  C   UNL     1       5.304   5.735  16.373  0.00  0.00    +0.000 A 
ATOM     17  C   UNL     1       4.540   6.689  17.059  0.00  0.00    +0.000 A 
ATOM     18  C   UNL     1       3.361   6.339  17.749  0.00  0.00    +0.000 A 
ENDBRANCH   1  18
BRANCH   6  19
ATOM     19  C   UNL     1      -1.372  11.753  21.331  0.00  0.00    +0.000 A 
ATOM     20  C   UNL     1      -2.351  12.337  20.517  0.00  0.00    +0.000 A 
ATOM     21  C   UNL     1      -3.535  12.842  21.065  0.00  0.00    +0.000 A 
ATOM     22  C   UNL     1      -3.769  12.768  22.445  0.00  0.00    +0.000 A 
ATOM     23  C   UNL     1      -2.775  12.220  23.266  0.00  0.00    +0.000 A 
ATOM     24  C   UNL     1      -1.582  11.739  22.714  0.00  0.00    +0.000 A 
BRANCH  22  25
ATOM     25  C   UNL     1      -5.066  13.249  23.047  0.00  0.00    +0.000 C 
ATOM     26  F   UNL     1      -5.319  14.567  22.811  0.00  0.00    +0.000 F 
ATOM     27  F   UNL     1      -6.145  12.573  22.561  0.00  0.00    +0.000 F 
ATOM     28  F   UNL     1      -5.108  13.096  24.400  0.00  0.00    +0.000 F 
ENDBRANCH  22  25
ENDBRANCH   6  19
TORSDOF 3
ENDMDL
MODEL 7
REMARK VINA RESULT:      -8.6      0.848      1.163
REMARK  Name = 
REMARK  3 active torsions:
REMARK  status: ('A' for Active; 'I' for Inactive)
REMARK    1  A    between atoms: C_7  and  C_8
REMARK    2  A    between atoms: N_13  and  C_14
REMARK    3  A    between atoms: C_17  and  C_18
REMARK                            x       y       z     vdW  Elec       q    Type
REMARK                         _______ _______ _______ _____ _____    ______ ____
ROOT
ATOM      1  C   UNL     1      -1.731  11.843  22.385  0.00  0.00    +0.000 A 
ATOM      2  C   UNL     1      -1.231  10.780  23.170  0.00  0.00    +0.000 A 
ATOM      3  C   UNL     1      -0.304   9.836  22.683  0.00  0.00    +0.000 A 
ATOM      4  C   UNL     1       0.112   9.938  21.345  0.00  0.00    +0.000 A 
ATOM      5  C   UNL     1       0.957   9.228  20.444  0.00  0.00    +0.000 A 
ATOM      6  N   UNL     1       1.716   8.171  20.828  0.00  0.00    +0.000 N 
ATOM      7  N   UNL     1       0.904   9.768  19.218  0.00  0.00    +0.000 NA
ATOM      8  O   UNL     1       0.076  10.870  19.315  0.00  0.00    +0.000 OA
ATOM      9  C   UNL     1      -0.405  10.965  20.580  0.00  0.00    +0.000 A 
ATOM     10  C   UNL     1      -1.286  11.938  21.050  0.00  0.00    +0.000 A 
ATOM     11  H   UNL     1       1.922   8.054  21.814  0.00  0.00    +0.000 HD
ENDROOT
BRANCH   1  18
ATOM     12  F   UNL     1      -0.989  14.045  24.119  0.00  0.00    +0.000 F 
ATOM     13  C   UNL     1      -2.283  13.880  23.802  0.00  0.00    +0.000 A 
ATOM     14  C   UNL     1      -3.190  14.790  24.351  0.00  0.00    +0.000 A 
ATOM     15  C   UNL     1      -4.541  14.699  24.040  0.00  0.00    +0.000 A 
ATOM     16  C   UNL     1      -4.977  13.695  23.182  0.00  0.00    +0.000 A 
ATOM     17  C   UNL     1      -4.063  12.775  22.649  0.00  0.00    +0.000 A 
ATOM     18  C   UNL     1      -2.687  12.839  22.945  0.00  0.00    +0.000 A 
ENDBRANCH   1  18
BRANCH   6  19
ATOM     19  C   UNL     1       2.062   7.026  20.082  0.00  0.00    +0.000 A 
ATOM     20  C   UNL     1       1.837   5.757  20.632  0.00  0.00    +0.000 A 
ATOM     21  C   UNL     1       2.153   4.596  19.917  0.00  0.00    +0.000 A 
ATOM     22  C   UNL     1       2.699   4.680  18.629  0.00  0.00    +0.000 A 
ATOM     23  C   UNL     1       2.962   5.947  18.093  0.00  0.00    +0.000 A 
ATOM     24  C   UNL     1       2.666   7.104  18.822  0.00  0.00    +0.000 A 
BRANCH  22  25
ATOM     25  C   UNL     1       2.988   3.442  17.819  0.00  0.00    +0.000 C 
ATOM     26  F   UNL     1       3.511   2.419  18.554  0.00  0.00    +0.000 F 
ATOM     27  F   UNL     1       1.869   2.936  17.228  0.00  0.00    +0.000 F 
ATOM     28  F   UNL     1       3.874   3.666  16.809  0.00  0.00    +0.000 F 
ENDBRANCH  22  25
ENDBRANCH   6  19
TORSDOF 3
ENDMDL
MODEL 8
REMARK VINA RESULT:      -8.5      2.529     10.047
REMARK  Name = 
REMARK  3 active torsions:
REMARK  status: ('A' for Active; 'I' for Inactive)
REMARK    1  A    between atoms: C_7  and  C_8
REMARK    2  A    between atoms: N_13  and  C_14
REMARK    3  A    between atoms: C_17  and  C_18
REMARK                            x       y       z     vdW  Elec       q    Type
REMARK                         _______ _______ _______ _____ _____    ______ ____
ROOT
ATOM      1  C   UNL     1       2.514   7.417  18.523  0.00  0.00    +0.000 A 
ATOM      2  C   UNL     1       1.979   8.547  17.864  0.00  0.00    +0.000 A 
ATOM      3  C   UNL     1       1.246   9.549  18.531  0.00  0.00    +0.000 A 
ATOM      4  C   UNL     1       1.005   9.396  19.907  0.00  0.00    +0.000 A 
ATOM      5  C   UNL     1       0.316  10.090  20.943  0.00  0.00    +0.000 A 
ATOM      6  N   UNL     1      -0.273  11.297  20.752  0.00  0.00    +0.000 N 
ATOM      7  N   UNL     1       0.366   9.401  22.092  0.00  0.00    +0.000 NA
ATOM      8  O   UNL     1       1.138   8.282  21.839  0.00  0.00    +0.000 OA
ATOM      9  C   UNL     1       1.510   8.274  20.534  0.00  0.00    +0.000 A 
ATOM     10  C   UNL     1       2.277   7.293  19.908  0.00  0.00    +0.000 A 
ATOM     11  H   UNL     1       0.018  11.859  19.960  0.00  0.00    +0.000 HD
ENDROOT
BRANCH   1  18
ATOM     12  F   UNL     1       1.815   4.609  18.333  0.00  0.00    +0.000 F 
ATOM     13  C   UNL     1       2.942   5.036  17.742  0.00  0.00    +0.000 A 
ATOM     14  C   UNL     1       3.711   4.077  17.079  0.00  0.00    +0.000 A 
ATOM     15  C   UNL     1       4.873   4.453  16.418  0.00  0.00    +0.000 A 
ATOM     16  C   UNL     1       5.261   5.789  16.424  0.00  0.00    +0.000 A 
ATOM     17  C   UNL     1       4.493   6.743  17.106  0.00  0.00    +0.000 A 
ATOM     18  C   UNL     1       3.310   6.395  17.788  0.00  0.00    +0.000 A 
ENDBRANCH   1  18
BRANCH   6  19
ATOM     19  C   UNL     1      -1.446  11.803  21.349  0.00  0.00    +0.000 A 
ATOM     20  C   UNL     1      -1.607  11.701  22.736  0.00  0.00    +0.000 A 
ATOM     21  C   UNL     1      -2.750  12.204  23.367  0.00  0.00    +0.000 A 
ATOM     22  C   UNL     1      -3.760  12.826  22.621  0.00  0.00    +0.000 A 
ATOM     23  C   UNL     1      -3.620  12.894  21.229  0.00  0.00    +0.000 A 
ATOM     24  C   UNL     1      -2.486  12.368  20.601  0.00  0.00    +0.000 A 
BRANCH  22  25
ATOM     25  C   UNL     1      -4.970  13.429  23.289  0.00  0.00    +0.000 C 
ATOM     26  F   UNL     1      -5.936  13.825  22.412  0.00  0.00    +0.000 F 
ATOM     27  F   UNL     1      -5.579  12.558  24.141  0.00  0.00    +0.000 F 
ATOM     28  F   UNL     1      -4.669  14.530  24.033  0.00  0.00    +0.000 F 
ENDBRANCH  22  25
ENDBRANCH   6  19
TORSDOF 3
ENDMDL
MODEL 9
REMARK VINA RESULT:      -8.5      1.079      1.373
REMARK  Name = 
REMARK  3 active torsions:
REMARK  status: ('A' for Active; 'I' for Inactive)
REMARK    1  A    between atoms: C_7  and  C_8
REMARK    2  A    between atoms: N_13  and  C_14
REMARK    3  A    between atoms: C_17  and  C_18
REMARK                            x       y       z     vdW  Elec       q    Type
REMARK                         _______ _______ _______ _____ _____    ______ ____
ROOT
ATOM      1  C   UNL     1      -0.968  11.521  22.129  0.00  0.00    +0.000 A 
ATOM      2  C   UNL     1      -0.648  10.468  23.015  0.00  0.00    +0.000 A 
ATOM      3  C   UNL     1       0.148   9.367  22.643  0.00  0.00    +0.000 A 
ATOM      4  C   UNL     1       0.612   9.296  21.318  0.00  0.00    +0.000 A 
ATOM      5  C   UNL     1       1.372   8.400  20.512  0.00  0.00    +0.000 A 
ATOM      6  N   UNL     1       1.961   7.283  21.009  0.00  0.00    +0.000 N 
ATOM      7  N   UNL     1       1.432   8.836  19.245  0.00  0.00    +0.000 NA
ATOM      8  O   UNL     1       0.767  10.048  19.221  0.00  0.00    +0.000 OA
ATOM      9  C   UNL     1       0.270  10.316  20.454  0.00  0.00    +0.000 A 
ATOM     10  C   UNL     1      -0.477  11.439  20.809  0.00  0.00    +0.000 A 
ATOM     11  H   UNL     1       2.120   7.222  22.008  0.00  0.00    +0.000 HD
ENDROOT
BRANCH   1  18
ATOM     12  F   UNL     1      -3.197  11.362  23.976  0.00  0.00    +0.000 F 
ATOM     13  C   UNL     1      -2.876  12.555  23.452  0.00  0.00    +0.000 A 
ATOM     14  C   UNL     1      -3.661  13.646  23.835  0.00  0.00    +0.000 A 
ATOM     15  C   UNL     1      -3.366  14.916  23.357  0.00  0.00    +0.000 A 
ATOM     16  C   UNL     1      -2.287  15.089  22.497  0.00  0.00    +0.000 A 
ATOM     17  C   UNL     1      -1.514  13.987  22.104  0.00  0.00    +0.000 A 
ATOM     18  C   UNL     1      -1.787  12.684  22.569  0.00  0.00    +0.000 A 
ENDBRANCH   1  18
BRANCH   6  19
ATOM     19  C   UNL     1       2.160   6.042  20.371  0.00  0.00    +0.000 A 
ATOM     20  C   UNL     1       1.193   5.038  20.509  0.00  0.00    +0.000 A 
ATOM     21  C   UNL     1       1.348   3.798  19.880  0.00  0.00    +0.000 A 
ATOM     22  C   UNL     1       2.476   3.536  19.091  0.00  0.00    +0.000 A 
ATOM     23  C   UNL     1       3.464   4.523  18.983  0.00  0.00    +0.000 A 
ATOM     24  C   UNL     1       3.315   5.753  19.634  0.00  0.00    +0.000 A 
BRANCH  22  25
ATOM     25  C   UNL     1       2.631   2.229  18.354  0.00  0.00    +0.000 C 
ATOM     26  F   UNL     1       2.145   2.260  17.081  0.00  0.00    +0.000 F 
ATOM     27  F   UNL     1       3.935   1.849  18.243  0.00  0.00    +0.000 F 
ATOM     28  F   UNL     1       1.993   1.196  18.971  0.00  0.00    +0.000 F 
ENDBRANCH  22  25
ENDBRANCH   6  19
TORSDOF 3
ENDMDL
