MODEL 1
REMARK VINA RESULT:      -7.6      0.000      0.000
REMARK  Name = 
REMARK  2 active torsions:
REMARK  status: ('A' for Active; 'I' for Inactive)
REMARK    1  A    between atoms: C_1  and  C_2
REMARK    2  A    between atoms: C_12  and  C_13
REMARK                            x       y       z     vdW  Elec       q    Type
REMARK                         _______ _______ _______ _____ _____    ______ ____
ROOT
ATOM      1  C   UNL     1       8.442   5.887  19.643  0.00  0.00    +0.000 C 
ATOM      2  C   UNL     1       7.218   5.773  18.785  0.00  0.00    +0.000 A 
ATOM      3  C   UNL     1       7.160   6.309  17.504  0.00  0.00    +0.000 A 
ATOM      4  C   UNL     1       5.964   6.224  16.809  0.00  0.00    +0.000 A 
ATOM      5  N   UNL     1       4.836   5.659  17.302  0.00  0.00    +0.000 NA
ATOM      6  C   UNL     1       4.913   5.093  18.523  0.00  0.00    +0.000 A 
ATOM      7  N   UNL     1       3.770   4.464  19.058  0.00  0.00    +0.000 N 
ATOM      8  C   UNL     1       3.862   3.185  19.600  0.00  0.00    +0.000 C 
ATOM      9  O   UNL     1       4.891   2.547  19.791  0.00  0.00    +0.000 OA
ATOM     10  C   UNL     1       2.506   2.590  19.900  0.00  0.00    +0.000 C 
ATOM     11  S   UNL     1       1.276   3.864  19.584  0.00  0.00    +0.000 S 
ATOM     12  C   UNL     1       2.451   4.913  18.670  0.00  0.00    +0.000 C 
ATOM     13  C   UNL     1       6.083   5.133  19.285  0.00  0.00    +0.000 A 
ENDROOT
BRANCH  12  14
ATOM     14  C   UNL     1       2.192   6.391  18.930  0.00  0.00    +0.000 A 
ATOM     15  C   UNL     1       2.154   7.345  17.895  0.00  0.00    +0.000 A 
ATOM     16  C   UNL     1       1.804   8.675  18.158  0.00  0.00    +0.000 A 
ATOM     17  C   UNL     1       1.494   9.064  19.459  0.00  0.00    +0.000 A 
ATOM     18 CL   UNL     1       0.993  10.681  19.773  0.00  0.00    +0.000 Cl
ATOM     19  C   UNL     1       1.566   8.148  20.503  0.00  0.00    +0.000 A 
ATOM     20  C   UNL     1       1.916   6.821  20.240  0.00  0.00    +0.000 A 
ENDBRANCH  12  14
TORSDOF 1
ENDMDL
MODEL 2
REMARK VINA RESULT:      -7.1      0.334      1.125
REMARK  Name = 
REMARK  2 active torsions:
REMARK  status: ('A' for Active; 'I' for Inactive)
REMARK    1  A    between atoms: C_1  and  C_2
REMARK    2  A    between atoms: C_12  and  C_13
REMARK                            x       y       z     vdW  Elec       q    Type
REMARK                         _______ _______ _______ _____ _____    ______ ____
ROOT
ATOM      1  C   UNL     1       8.261   6.001  19.330  0.00  0.00    +0.000 C 
ATOM      2  C   UNL     1       6.997   5.776  18.557  0.00  0.00    +0.000 A 
ATOM      3  C   UNL     1       6.847   6.201  17.242  0.00  0.00    +0.000 A 
ATOM      4  C   UNL     1       5.619   6.018  16.627  0.00  0.00    +0.000 A 
ATOM      5  N   UNL     1       4.542   5.460  17.229  0.00  0.00    +0.000 NA
ATOM      6  C   UNL     1       4.707   5.002  18.486  0.00  0.00    +0.000 A 
ATOM      7  N   UNL     1       3.621   4.382  19.136  0.00  0.00    +0.000 N 
ATOM      8  C   UNL     1       3.790   3.156  19.775  0.00  0.00    +0.000 C 
ATOM      9  O   UNL     1       4.851   2.571  19.956  0.00  0.00    +0.000 OA
ATOM     10  C   UNL     1       2.475   2.544  20.200  0.00  0.00    +0.000 C 
ATOM     11  S   UNL     1       1.183   3.746  19.854  0.00  0.00    +0.000 S 
ATOM     12  C   UNL     1       2.266   4.753  18.790  0.00  0.00    +0.000 C 
ATOM     13  C   UNL     1       5.915   5.143  19.173  0.00  0.00    +0.000 A 
ENDROOT
BRANCH  12  14
ATOM     14  C   UNL     1       1.967   6.239  18.943  0.00  0.00    +0.000 A 
ATOM     15  C   UNL     1       1.811   6.852  20.202  0.00  0.00    +0.000 A 
ATOM     16  C   UNL     1       1.645   8.238  20.308  0.00  0.00    +0.000 A 
ATOM     17  C   UNL     1       1.631   9.024  19.158  0.00  0.00    +0.000 A 
ATOM     18 CL   UNL     1       1.502  10.735  19.291  0.00  0.00    +0.000 Cl
ATOM     19  C   UNL     1       1.741   8.435  17.903  0.00  0.00    +0.000 A 
ATOM     20  C   UNL     1       1.905   7.051  17.797  0.00  0.00    +0.000 A 
ENDBRANCH  12  14
TORSDOF 1
ENDMDL
MODEL 3
REMARK VINA RESULT:      -6.4      2.346      4.338
REMARK  Name = 
REMARK  2 active torsions:
REMARK  status: ('A' for Active; 'I' for Inactive)
REMARK    1  A    between atoms: C_1  and  C_2
REMARK    2  A    between atoms: C_12  and  C_13
REMARK                            x       y       z     vdW  Elec       q    Type
REMARK                         _______ _______ _______ _____ _____    ______ ____
ROOT
ATOM      1  C   UNL     1       0.300   1.837  18.936  0.00  0.00    +0.000 C 
ATOM      2  C   UNL     1       1.269   2.868  19.433  0.00  0.00    +0.000 A 
ATOM      3  C   UNL     1       1.435   3.138  20.786  0.00  0.00    +0.000 A 
ATOM      4  C   UNL     1       2.297   4.159  21.153  0.00  0.00    +0.000 A 
ATOM      5  N   UNL     1       2.986   4.925  20.275  0.00  0.00    +0.000 NA
ATOM      6  C   UNL     1       2.863   4.625  18.967  0.00  0.00    +0.000 A 
ATOM      7  N   UNL     1       3.591   5.377  18.021  0.00  0.00    +0.000 N 
ATOM      8  C   UNL     1       4.334   4.736  17.035  0.00  0.00    +0.000 C 
ATOM      9  O   UNL     1       4.341   3.534  16.796  0.00  0.00    +0.000 OA
ATOM     10  C   UNL     1       5.225   5.690  16.275  0.00  0.00    +0.000 C 
ATOM     11  S   UNL     1       4.847   7.353  16.847  0.00  0.00    +0.000 S 
ATOM     12  C   UNL     1       3.939   6.751  18.308  0.00  0.00    +0.000 C 
ATOM     13  C   UNL     1       2.018   3.609  18.516  0.00  0.00    +0.000 A 
ENDROOT
BRANCH  12  14
ATOM     14  C   UNL     1       2.748   7.646  18.626  0.00  0.00    +0.000 A 
ATOM     15  C   UNL     1       2.182   7.721  19.913  0.00  0.00    +0.000 A 
ATOM     16  C   UNL     1       1.159   8.634  20.194  0.00  0.00    +0.000 A 
ATOM     17  C   UNL     1       0.690   9.479  19.191  0.00  0.00    +0.000 A 
ATOM     18 CL   UNL     1      -0.516  10.653  19.553  0.00  0.00    +0.000 Cl
ATOM     19  C   UNL     1       1.205   9.393  17.902  0.00  0.00    +0.000 A 
ATOM     20  C   UNL     1       2.225   8.480  17.621  0.00  0.00    +0.000 A 
ENDBRANCH  12  14
TORSDOF 1
ENDMDL
MODEL 4
REMARK VINA RESULT:      -6.0      9.028     10.490
REMARK  Name = 
REMARK  2 active torsions:
REMARK  status: ('A' for Active; 'I' for Inactive)
REMARK    1  A    between atoms: C_1  and  C_2
REMARK    2  A    between atoms: C_12  and  C_13
REMARK                            x       y       z     vdW  Elec       q    Type
REMARK                         _______ _______ _______ _____ _____    ______ ____
ROOT
ATOM      1  C   UNL     1       8.749   9.567  18.220  0.00  0.00    +0.000 C 
ATOM      2  C   UNL     1       9.209  10.781  18.970  0.00  0.00    +0.000 A 
ATOM      3  C   UNL     1       9.335  10.792  20.354  0.00  0.00    +0.000 A 
ATOM      4  C   UNL     1       9.695  11.979  20.973  0.00  0.00    +0.000 A 
ATOM      5  N   UNL     1       9.923  13.140  20.315  0.00  0.00    +0.000 NA
ATOM      6  C   UNL     1       9.852  13.111  18.970  0.00  0.00    +0.000 A 
ATOM      7  N   UNL     1      10.117  14.292  18.245  0.00  0.00    +0.000 N 
ATOM      8  C   UNL     1      10.995  14.271  17.165  0.00  0.00    +0.000 C 
ATOM      9  O   UNL     1      11.504  13.277  16.660  0.00  0.00    +0.000 OA
ATOM     10  C   UNL     1      11.332  15.659  16.673  0.00  0.00    +0.000 C 
ATOM     11  S   UNL     1      10.314  16.821  17.593  0.00  0.00    +0.000 S 
ATOM     12  C   UNL     1       9.857  15.581  18.848  0.00  0.00    +0.000 C 
ATOM     13  C   UNL     1       9.500  11.954  18.271  0.00  0.00    +0.000 A 
ENDROOT
BRANCH  12  14
ATOM     14  C   UNL     1       8.421  15.773  19.319  0.00  0.00    +0.000 A 
ATOM     15  C   UNL     1       8.104  16.173  20.632  0.00  0.00    +0.000 A 
ATOM     16  C   UNL     1       6.781  16.445  20.997  0.00  0.00    +0.000 A 
ATOM     17  C   UNL     1       5.762  16.318  20.056  0.00  0.00    +0.000 A 
ATOM     18 CL   UNL     1       4.145  16.723  20.484  0.00  0.00    +0.000 Cl
ATOM     19  C   UNL     1       6.047  15.884  18.766  0.00  0.00    +0.000 A 
ATOM     20  C   UNL     1       7.368  15.610  18.402  0.00  0.00    +0.000 A 
ENDBRANCH  12  14
TORSDOF 1
ENDMDL
MODEL 5
REMARK VINA RESULT:      -5.9      2.369      4.209
REMARK  Name = 
REMARK  2 active torsions:
REMARK  status: ('A' for Active; 'I' for Inactive)
REMARK    1  A    between atoms: C_1  and  C_2
REMARK    2  A    between atoms: C_12  and  C_13
REMARK                            x       y       z     vdW  Elec       q    Type
REMARK                         _______ _______ _______ _____ _____    ______ ____
ROOT
ATOM      1  C   UNL     1       0.200   1.985  18.918  0.00  0.00    +0.000 C 
ATOM      2  C   UNL     1       1.219   2.971  19.405  0.00  0.00    +0.000 A 
ATOM      3  C   UNL     1       1.396   3.247  20.755  0.00  0.00    +0.000 A 
ATOM      4  C   UNL     1       2.308   4.227  21.113  0.00  0.00    +0.000 A 
ATOM      5  N   UNL     1       3.035   4.949  20.227  0.00  0.00    +0.000 NA
ATOM      6  C   UNL     1       2.899   4.642  18.922  0.00  0.00    +0.000 A 
ATOM      7  N   UNL     1       3.664   5.346  17.970  0.00  0.00    +0.000 N 
ATOM      8  C   UNL     1       4.375   4.658  16.991  0.00  0.00    +0.000 C 
ATOM      9  O   UNL     1       4.323   3.455  16.765  0.00  0.00    +0.000 OA
ATOM     10  C   UNL     1       5.314   5.559  16.223  0.00  0.00    +0.000 C 
ATOM     11  S   UNL     1       5.018   7.244  16.776  0.00  0.00    +0.000 S 
ATOM     12  C   UNL     1       4.081   6.705  18.242  0.00  0.00    +0.000 C 
ATOM     13  C   UNL     1       2.004   3.664  18.481  0.00  0.00    +0.000 A 
ENDROOT
BRANCH  12  14
ATOM     14  C   UNL     1       2.935   7.661  18.549  0.00  0.00    +0.000 A 
ATOM     15  C   UNL     1       2.353   8.483  17.565  0.00  0.00    +0.000 A 
ATOM     16  C   UNL     1       1.231   9.267  17.859  0.00  0.00    +0.000 A 
ATOM     17  C   UNL     1       0.682   9.240  19.139  0.00  0.00    +0.000 A 
ATOM     18 CL   UNL     1      -0.740  10.146  19.481  0.00  0.00    +0.000 Cl
ATOM     19  C   UNL     1       1.266   8.467  20.137  0.00  0.00    +0.000 A 
ATOM     20  C   UNL     1       2.387   7.686  19.844  0.00  0.00    +0.000 A 
ENDBRANCH  12  14
TORSDOF 1
ENDMDL
MODEL 6
REMARK VINA RESULT:      -5.9      9.077     10.496
REMARK  Name = 
REMARK  2 active torsions:
REMARK  status: ('A' for Active; 'I' for Inactive)
REMARK    1  A    between atoms: C_1  and  C_2
REMARK    2  A    between atoms: C_12  and  C_13
REMARK                            x       y       z     vdW  Elec       q    Type
REMARK                         _______ _______ _______ _____ _____    ______ ____
ROOT
ATOM      1  C   UNL     1       8.659   9.659  18.250  0.00  0.00    +0.000 C 
ATOM      2  C   UNL     1       9.209  10.833  19.003  0.00  0.00    +0.000 A 
ATOM      3  C   UNL     1       9.452  10.788  20.371  0.00  0.00    +0.000 A 
ATOM      4  C   UNL     1       9.890  11.942  21.000  0.00  0.00    +0.000 A 
ATOM      5  N   UNL     1      10.088  13.124  20.370  0.00  0.00    +0.000 NA
ATOM      6  C   UNL     1       9.902  13.149  19.035  0.00  0.00    +0.000 A 
ATOM      7  N   UNL     1      10.132  14.352  18.335  0.00  0.00    +0.000 N 
ATOM      8  C   UNL     1      10.913  14.356  17.184  0.00  0.00    +0.000 C 
ATOM      9  O   UNL     1      11.355  13.373  16.599  0.00  0.00    +0.000 OA
ATOM     10  C   UNL     1      11.240  15.756  16.716  0.00  0.00    +0.000 C 
ATOM     11  S   UNL     1      10.330  16.900  17.764  0.00  0.00    +0.000 S 
ATOM     12  C   UNL     1       9.954  15.621  19.005  0.00  0.00    +0.000 C 
ATOM     13  C   UNL     1       9.466  12.027  18.326  0.00  0.00    +0.000 A 
ENDROOT
BRANCH  12  14
ATOM     14  C   UNL     1       8.568  15.822  19.605  0.00  0.00    +0.000 A 
ATOM     15  C   UNL     1       7.387  15.599  18.871  0.00  0.00    +0.000 A 
ATOM     16  C   UNL     1       6.133  15.688  19.486  0.00  0.00    +0.000 A 
ATOM     17  C   UNL     1       6.047  16.004  20.840  0.00  0.00    +0.000 A 
ATOM     18 CL   UNL     1       4.511  16.041  21.615  0.00  0.00    +0.000 Cl
ATOM     19  C   UNL     1       7.198  16.269  21.575  0.00  0.00    +0.000 A 
ATOM     20  C   UNL     1       8.449  16.182  20.960  0.00  0.00    +0.000 A 
ENDBRANCH  12  14
TORSDOF 1
ENDMDL
MODEL 7
REMARK VINA RESULT:      -5.9      6.563      9.082
REMARK  Name = 
REMARK  2 active torsions:
REMARK  status: ('A' for Active; 'I' for Inactive)
REMARK    1  A    between atoms: C_1  and  C_2
REMARK    2  A    between atoms: C_12  and  C_13
REMARK                            x       y       z     vdW  Elec       q    Type
REMARK                         _______ _______ _______ _____ _____    ______ ____
ROOT
ATOM      1  C   UNL     1       1.491   8.212  21.292  0.00  0.00    +0.000 C 
ATOM      2  C   UNL     1       0.648   9.347  21.791  0.00  0.00    +0.000 A 
ATOM      3  C   UNL     1      -0.229   9.204  22.859  0.00  0.00    +0.000 A 
ATOM      4  C   UNL     1      -1.025  10.284  23.207  0.00  0.00    +0.000 A 
ATOM      5  N   UNL     1      -1.014  11.475  22.563  0.00  0.00    +0.000 NA
ATOM      6  C   UNL     1      -0.124  11.626  21.562  0.00  0.00    +0.000 A 
ATOM      7  N   UNL     1      -0.056  12.864  20.888  0.00  0.00    +0.000 N 
ATOM      8  C   UNL     1       1.171  13.486  20.683  0.00  0.00    +0.000 C 
ATOM      9  O   UNL     1       2.276  13.012  20.921  0.00  0.00    +0.000 OA
ATOM     10  C   UNL     1       1.021  14.897  20.165  0.00  0.00    +0.000 C 
ATOM     11  S   UNL     1      -0.728  15.173  19.851  0.00  0.00    +0.000 S 
ATOM     12  C   UNL     1      -1.233  13.700  20.798  0.00  0.00    +0.000 C 
ATOM     13  C   UNL     1       0.716  10.588  21.154  0.00  0.00    +0.000 A 
ENDROOT
BRANCH  12  14
ATOM     14  C   UNL     1      -2.438  13.019  20.162  0.00  0.00    +0.000 A 
ATOM     15  C   UNL     1      -3.756  13.252  20.600  0.00  0.00    +0.000 A 
ATOM     16  C   UNL     1      -4.846  12.694  19.921  0.00  0.00    +0.000 A 
ATOM     17  C   UNL     1      -4.628  11.896  18.800  0.00  0.00    +0.000 A 
ATOM     18 CL   UNL     1      -5.969  11.270  17.922  0.00  0.00    +0.000 Cl
ATOM     19  C   UNL     1      -3.334  11.619  18.375  0.00  0.00    +0.000 A 
ATOM     20  C   UNL     1      -2.246  12.175  19.054  0.00  0.00    +0.000 A 
ENDBRANCH  12  14
TORSDOF 1
ENDMDL
MODEL 8
REMARK VINA RESULT:      -5.8      6.602      9.038
REMARK  Name = 
REMARK  2 active torsions:
REMARK  status: ('A' for Active; 'I' for Inactive)
REMARK    1  A    between atoms: C_1  and  C_2
REMARK    2  A    between atoms: C_12  and  C_13
REMARK                            x       y       z     vdW  Elec       q    Type
REMARK                         _______ _______ _______ _____ _____    ______ ____
ROOT
ATOM      1  C   UNL     1       1.486   8.258  21.406  0.00  0.00    +0.000 C 
ATOM      2  C   UNL     1       0.643   9.414  21.854  0.00  0.00    +0.000 A 
ATOM      3  C   UNL     1      -0.286   9.298  22.881  0.00  0.00    +0.000 A 
ATOM      4  C   UNL     1      -1.076  10.397  23.180  0.00  0.00    +0.000 A 
ATOM      5  N   UNL     1      -1.012  11.581  22.527  0.00  0.00    +0.000 NA
ATOM      6  C   UNL     1      -0.073  11.705  21.568  0.00  0.00    +0.000 A 
ATOM      7  N   UNL     1       0.050  12.934  20.887  0.00  0.00    +0.000 N 
ATOM      8  C   UNL     1       1.298  13.531  20.735  0.00  0.00    +0.000 C 
ATOM      9  O   UNL     1       2.381  13.038  21.029  0.00  0.00    +0.000 OA
ATOM     10  C   UNL     1       1.200  14.940  20.197  0.00  0.00    +0.000 C 
ATOM     11  S   UNL     1      -0.527  15.245  19.799  0.00  0.00    +0.000 S 
ATOM     12  C   UNL     1      -1.104  13.792  20.734  0.00  0.00    +0.000 C 
ATOM     13  C   UNL     1       0.765  10.647  21.209  0.00  0.00    +0.000 A 
ENDROOT
BRANCH  12  14
ATOM     14  C   UNL     1      -2.291  13.128  20.047  0.00  0.00    +0.000 A 
ATOM     15  C   UNL     1      -2.142  12.287  18.927  0.00  0.00    +0.000 A 
ATOM     16  C   UNL     1      -3.242  11.607  18.391  0.00  0.00    +0.000 A 
ATOM     17  C   UNL     1      -4.501  11.764  18.965  0.00  0.00    +0.000 A 
ATOM     18 CL   UNL     1      -5.839  10.872  18.353  0.00  0.00    +0.000 Cl
ATOM     19  C   UNL     1      -4.678  12.622  20.046  0.00  0.00    +0.000 A 
ATOM     20  C   UNL     1      -3.580  13.301  20.580  0.00  0.00    +0.000 A 
ENDBRANCH  12  14
TORSDOF 1
ENDMDL
MODEL 9
REMARK VINA RESULT:      -5.7      5.792      8.106
REMARK  Name = 
REMARK  2 active torsions:
REMARK  status: ('A' for Active; 'I' for Inactive)
REMARK    1  A    between atoms: C_1  and  C_2
REMARK    2  A    between atoms: C_12  and  C_13
REMARK                            x       y       z     vdW  Elec       q    Type
REMARK                         _______ _______ _______ _____ _____    ______ ____
ROOT
ATOM      1  C   UNL     1       2.403   8.024  17.734  0.00  0.00    +0.000 C 
ATOM      2  C   UNL     1       1.790   8.931  18.757  0.00  0.00    +0.000 A 
ATOM      3  C   UNL     1       1.341   8.463  19.987  0.00  0.00    +0.000 A 
ATOM      4  C   UNL     1       0.718   9.358  20.844  0.00  0.00    +0.000 A 
ATOM      5  N   UNL     1       0.506  10.663  20.556  0.00  0.00    +0.000 NA
ATOM      6  C   UNL     1       0.989  11.124  19.386  0.00  0.00    +0.000 A 
ATOM      7  N   UNL     1       0.819  12.487  19.064  0.00  0.00    +0.000 N 
ATOM      8  C   UNL     1       1.899  13.243  18.619  0.00  0.00    +0.000 C 
ATOM      9  O   UNL     1       3.017  12.824  18.342  0.00  0.00    +0.000 OA
ATOM     10  C   UNL     1       1.580  14.719  18.556  0.00  0.00    +0.000 C 
ATOM     11  S   UNL     1      -0.169  14.908  18.934  0.00  0.00    +0.000 S 
ATOM     12  C   UNL     1      -0.313  13.216  19.592  0.00  0.00    +0.000 C 
ATOM     13  C   UNL     1       1.633  10.288  18.470  0.00  0.00    +0.000 A 
ENDROOT
BRANCH  12  14
ATOM     14  C   UNL     1      -1.665  12.603  19.251  0.00  0.00    +0.000 A 
ATOM     15  C   UNL     1      -2.782  12.716  20.102  0.00  0.00    +0.000 A 
ATOM     16  C   UNL     1      -4.036  12.236  19.706  0.00  0.00    +0.000 A 
ATOM     17  C   UNL     1      -4.185  11.635  18.459  0.00  0.00    +0.000 A 
ATOM     18 CL   UNL     1      -5.740  11.110  17.941  0.00  0.00    +0.000 Cl
ATOM     19  C   UNL     1      -3.087  11.475  17.620  0.00  0.00    +0.000 A 
ATOM     20  C   UNL     1      -1.835  11.953  18.016  0.00  0.00    +0.000 A 
ENDBRANCH  12  14
TORSDOF 1
ENDMDL
