MODEL 1
REMARK VINA RESULT:      -7.1      0.000      0.000
REMARK  Name = 
REMARK  15 active torsions:
REMARK  status: ('A' for Active; 'I' for Inactive)
REMARK    1  A    between atoms: C_1  and  C_2
REMARK    2  A    between atoms: C_2  and  C_3
REMARK    3  A    between atoms: C_3  and  C_4
REMARK    4  A    between atoms: C_4  and  C_5
REMARK    5  A    between atoms: C_5  and  C_6
REMARK    6  A    between atoms: C_6  and  C_7
REMARK    7  A    between atoms: C_7  and  O_8
REMARK    8  A    between atoms: O_8  and  C_9
REMARK    9  A    between atoms: C_9  and  C_11
REMARK   10  A    between atoms: C_14  and  C_15
REMARK   11  A    between atoms: C_15  and  N_16
REMARK   12  A    between atoms: C_15  and  C_17
REMARK   13  A    between atoms: C_15  and  C_32
REMARK   14  A    between atoms: C_17  and  C_18
REMARK   15  A    between atoms: C_32  and  O_34
REMARK                            x       y       z     vdW  Elec       q    Type
REMARK                         _______ _______ _______ _____ _____    ______ ____
ROOT
ATOM      1  C   UNL     1       5.209   4.117  16.498  0.00  0.00    +0.000 C 
ENDROOT
BRANCH   1   5
ATOM      2  C   UNL     1       6.972   6.050  17.045  0.00  0.00    +0.000 C 
ATOM      3  F   UNL     1       6.300   6.896  16.167  0.00  0.00    +0.000 F 
ATOM      4  C   UNL     1       7.714   4.919  16.343  0.00  0.00    +0.000 C 
ATOM      5  C   UNL     1       6.470   4.623  17.148  0.00  0.00    +0.000 C 
BRANCH   2   6
ATOM      6  C   UNL     1       7.668   6.738  18.174  0.00  0.00    +0.000 C 
ATOM      7  O   UNL     1       7.888   6.193  19.239  0.00  0.00    +0.000 OA
BRANCH   6   8
ATOM      8  O   UNL     1       7.810   8.064  17.919  0.00  0.00    +0.000 OA
BRANCH   8   9
ATOM      9  C   UNL     1       8.773   8.687  18.761  0.00  0.00    +0.000 C 
BRANCH   9  10
ATOM     10  C   UNL     1       8.868  10.141  18.376  0.00  0.00    +0.000 C 
BRANCH  10  11
ATOM     11  C   UNL     1       9.434  10.947  19.529  0.00  0.00    +0.000 C 
BRANCH  11  12
ATOM     12  C   UNL     1      10.858  11.365  19.216  0.00  0.00    +0.000 C 
BRANCH  12  13
ATOM     13  C   UNL     1      10.988  11.730  17.746  0.00  0.00    +0.000 C 
BRANCH  13  15
ATOM     14  C   UNL     1      10.339  14.134  17.606  0.00  0.00    +0.000 C 
ATOM     15  C   UNL     1      11.496  13.156  17.591  0.00  0.00    +0.000 C 
ENDBRANCH  13  15
ENDBRANCH  12  13
ENDBRANCH  11  12
ENDBRANCH  10  11
ENDBRANCH   9  10
ENDBRANCH   8   9
ENDBRANCH   6   8
ENDBRANCH   2   6
ENDBRANCH   1   5
BRANCH   1  16
ATOM     16  N   UNL     1       5.061   2.629  16.689  0.00  0.00    +0.000 NA
ATOM     17  H   UNL     1       4.118   2.438  17.035  0.00  0.00    +0.000 HD
ATOM     18  H   UNL     1       5.651   2.370  17.495  0.00  0.00    +0.000 HD
ENDBRANCH   1  16
BRANCH   1  19
ATOM     19  C   UNL     1       5.282   4.300  14.946  0.00  0.00    +0.000 C 
ATOM     20  O   UNL     1       4.881   5.265  14.318  0.00  0.00    +0.000 OA
BRANCH  19  21
ATOM     21  O   UNL     1       5.949   3.259  14.368  0.00  0.00    +0.000 OA
ATOM     22  H   UNL     1       5.350   2.476  14.454  0.00  0.00    +0.000 HD
ENDBRANCH  19  21
ENDBRANCH   1  19
BRANCH   1  23
ATOM     23  C   UNL     1       3.917   4.729  17.135  0.00  0.00    +0.000 C 
BRANCH  23  24
ATOM     24  C   UNL     1       3.959   5.416  18.542  0.00  0.00    +0.000 C 
ATOM     25  C   UNL     1       3.534   4.481  19.650  0.00  0.00    +0.000 A 
ATOM     26  C   UNL     1       4.105   3.203  19.787  0.00  0.00    +0.000 A 
ATOM     27  C   UNL     1       3.567   2.277  20.683  0.00  0.00    +0.000 A 
ATOM     28  C   UNL     1       2.504   2.640  21.505  0.00  0.00    +0.000 A 
ATOM     29  C   UNL     1       1.994   3.934  21.447  0.00  0.00    +0.000 A 
ATOM     30  C   UNL     1       2.496   4.844  20.513  0.00  0.00    +0.000 A 
ATOM     31  O   UNL     1       1.853   6.053  20.471  0.00  0.00    +0.000 OA
ATOM     32  C   UNL     1       2.179   6.938  19.477  0.00  0.00    +0.000 A 
ATOM     33  C   UNL     1       1.366   8.071  19.391  0.00  0.00    +0.000 A 
ATOM     34  C   UNL     1       1.608   9.033  18.414  0.00  0.00    +0.000 A 
ATOM     35  C   UNL     1       2.712   8.902  17.577  0.00  0.00    +0.000 A 
ATOM     36  C   UNL     1       3.529   7.772  17.669  0.00  0.00    +0.000 A 
ATOM     37  C   UNL     1       3.224   6.740  18.572  0.00  0.00    +0.000 A 
ENDBRANCH  23  24
ENDBRANCH   1  23
TORSDOF 14
ENDMDL
MODEL 2
REMARK VINA RESULT:      -7.0      3.448      7.017
REMARK  Name = 
REMARK  15 active torsions:
REMARK  status: ('A' for Active; 'I' for Inactive)
REMARK    1  A    between atoms: C_1  and  C_2
REMARK    2  A    between atoms: C_2  and  C_3
REMARK    3  A    between atoms: C_3  and  C_4
REMARK    4  A    between atoms: C_4  and  C_5
REMARK    5  A    between atoms: C_5  and  C_6
REMARK    6  A    between atoms: C_6  and  C_7
REMARK    7  A    between atoms: C_7  and  O_8
REMARK    8  A    between atoms: O_8  and  C_9
REMARK    9  A    between atoms: C_9  and  C_11
REMARK   10  A    between atoms: C_14  and  C_15
REMARK   11  A    between atoms: C_15  and  N_16
REMARK   12  A    between atoms: C_15  and  C_17
REMARK   13  A    between atoms: C_15  and  C_32
REMARK   14  A    between atoms: C_17  and  C_18
REMARK   15  A    between atoms: C_32  and  O_34
REMARK                            x       y       z     vdW  Elec       q    Type
REMARK                         _______ _______ _______ _____ _____    ______ ____
ROOT
ATOM      1  C   UNL     1       3.509   2.772  17.616  0.00  0.00    +0.000 C 
ENDROOT
BRANCH   1   5
ATOM      2  C   UNL     1       1.909   4.210  19.202  0.00  0.00    +0.000 C 
ATOM      3  F   UNL     1       1.428   3.032  19.766  0.00  0.00    +0.000 F 
ATOM      4  C   UNL     1       1.457   4.419  17.762  0.00  0.00    +0.000 C 
ATOM      5  C   UNL     1       2.897   4.075  18.061  0.00  0.00    +0.000 C 
BRANCH   2   6
ATOM      6  C   UNL     1       1.892   5.397  20.111  0.00  0.00    +0.000 C 
ATOM      7  O   UNL     1       1.052   5.546  20.979  0.00  0.00    +0.000 OA
BRANCH   6   8
ATOM      8  O   UNL     1       2.777   6.338  19.696  0.00  0.00    +0.000 OA
BRANCH   8   9
ATOM      9  C   UNL     1       2.177   7.614  19.510  0.00  0.00    +0.000 C 
BRANCH   9  10
ATOM     10  C   UNL     1       2.454   8.066  18.099  0.00  0.00    +0.000 C 
BRANCH  10  11
ATOM     11  C   UNL     1       1.971   9.491  17.907  0.00  0.00    +0.000 C 
BRANCH  11  12
ATOM     12  C   UNL     1       0.457   9.536  17.979  0.00  0.00    +0.000 C 
BRANCH  12  13
ATOM     13  C   UNL     1       0.004  10.778  18.731  0.00  0.00    +0.000 C 
BRANCH  13  15
ATOM     14  C   UNL     1       0.300  11.848  20.964  0.00  0.00    +0.000 C 
ATOM     15  C   UNL     1       0.053  10.543  20.233  0.00  0.00    +0.000 C 
ENDBRANCH  13  15
ENDBRANCH  12  13
ENDBRANCH  11  12
ENDBRANCH  10  11
ENDBRANCH   9  10
ENDBRANCH   8   9
ENDBRANCH   6   8
ENDBRANCH   2   6
ENDBRANCH   1   5
BRANCH   1  16
ATOM     16  N   UNL     1       2.479   1.886  16.963  0.00  0.00    +0.000 NA
ATOM     17  H   UNL     1       2.688   1.827  15.965  0.00  0.00    +0.000 HD
ATOM     18  H   UNL     1       1.587   2.405  16.975  0.00  0.00    +0.000 HD
ENDBRANCH   1  16
BRANCH   1  19
ATOM     19  C   UNL     1       3.998   1.948  18.852  0.00  0.00    +0.000 C 
ATOM     20  O   UNL     1       4.632   2.383  19.798  0.00  0.00    +0.000 OA
BRANCH  19  21
ATOM     21  O   UNL     1       3.541   0.664  18.788  0.00  0.00    +0.000 OA
ATOM     22  H   UNL     1       3.846   0.314  17.914  0.00  0.00    +0.000 HD
ENDBRANCH  19  21
ENDBRANCH   1  19
BRANCH   1  23
ATOM     23  C   UNL     1       4.612   2.968  16.524  0.00  0.00    +0.000 C 
BRANCH  23  24
ATOM     24  C   UNL     1       5.034   4.401  16.050  0.00  0.00    +0.000 C 
ATOM     25  C   UNL     1       5.643   4.390  14.667  0.00  0.00    +0.000 A 
ATOM     26  C   UNL     1       4.997   3.761  13.588  0.00  0.00    +0.000 A 
ATOM     27  C   UNL     1       5.658   3.584  12.371  0.00  0.00    +0.000 A 
ATOM     28  C   UNL     1       6.938   4.099  12.191  0.00  0.00    +0.000 A 
ATOM     29  C   UNL     1       7.548   4.809  13.221  0.00  0.00    +0.000 A 
ATOM     30  C   UNL     1       6.911   4.940  14.456  0.00  0.00    +0.000 A 
ATOM     31  O   UNL     1       7.644   5.568  15.429  0.00  0.00    +0.000 OA
ATOM     32  C   UNL     1       7.155   5.593  16.709  0.00  0.00    +0.000 A 
ATOM     33  C   UNL     1       8.030   6.092  17.677  0.00  0.00    +0.000 A 
ATOM     34  C   UNL     1       7.634   6.160  19.010  0.00  0.00    +0.000 A 
ATOM     35  C   UNL     1       6.335   5.805  19.362  0.00  0.00    +0.000 A 
ATOM     36  C   UNL     1       5.458   5.312  18.391  0.00  0.00    +0.000 A 
ATOM     37  C   UNL     1       5.886   5.131  17.065  0.00  0.00    +0.000 A 
ENDBRANCH  23  24
ENDBRANCH   1  23
TORSDOF 14
ENDMDL
MODEL 3
REMARK VINA RESULT:      -6.8      4.929      8.825
REMARK  Name = 
REMARK  15 active torsions:
REMARK  status: ('A' for Active; 'I' for Inactive)
REMARK    1  A    between atoms: C_1  and  C_2
REMARK    2  A    between atoms: C_2  and  C_3
REMARK    3  A    between atoms: C_3  and  C_4
REMARK    4  A    between atoms: C_4  and  C_5
REMARK    5  A    between atoms: C_5  and  C_6
REMARK    6  A    between atoms: C_6  and  C_7
REMARK    7  A    between atoms: C_7  and  O_8
REMARK    8  A    between atoms: O_8  and  C_9
REMARK    9  A    between atoms: C_9  and  C_11
REMARK   10  A    between atoms: C_14  and  C_15
REMARK   11  A    between atoms: C_15  and  N_16
REMARK   12  A    between atoms: C_15  and  C_17
REMARK   13  A    between atoms: C_15  and  C_32
REMARK   14  A    between atoms: C_17  and  C_18
REMARK   15  A    between atoms: C_32  and  O_34
REMARK                            x       y       z     vdW  Elec       q    Type
REMARK                         _______ _______ _______ _____ _____    ______ ____
ROOT
ATOM      1  C   UNL     1       0.963  11.091  19.111  0.00  0.00    +0.000 C 
ENDROOT
BRANCH   1   5
ATOM      2  C   UNL     1       2.066   8.711  18.601  0.00  0.00    +0.000 C 
ATOM      3  F   UNL     1       3.224   9.353  18.171  0.00  0.00    +0.000 F 
ATOM      4  C   UNL     1       0.887   8.897  17.653  0.00  0.00    +0.000 C 
ATOM      5  C   UNL     1       0.897   9.590  18.996  0.00  0.00    +0.000 C 
BRANCH   2   6
ATOM      6  C   UNL     1       2.279   7.350  19.182  0.00  0.00    +0.000 C 
ATOM      7  O   UNL     1       1.870   7.036  20.283  0.00  0.00    +0.000 OA
BRANCH   6   8
ATOM      8  O   UNL     1       3.143   6.630  18.423  0.00  0.00    +0.000 OA
BRANCH   8   9
ATOM      9  C   UNL     1       2.583   5.406  17.961  0.00  0.00    +0.000 C 
BRANCH   9  10
ATOM     10  C   UNL     1       3.708   4.512  17.507  0.00  0.00    +0.000 C 
BRANCH  10  11
ATOM     11  C   UNL     1       4.706   5.309  16.689  0.00  0.00    +0.000 C 
BRANCH  11  12
ATOM     12  C   UNL     1       5.713   4.373  16.049  0.00  0.00    +0.000 C 
BRANCH  12  13
ATOM     13  C   UNL     1       6.014   4.818  14.627  0.00  0.00    +0.000 C 
BRANCH  13  15
ATOM     14  C   UNL     1       6.709   3.924  12.405  0.00  0.00    +0.000 C 
ATOM     15  C   UNL     1       5.917   3.642  13.666  0.00  0.00    +0.000 C 
ENDBRANCH  13  15
ENDBRANCH  12  13
ENDBRANCH  11  12
ENDBRANCH  10  11
ENDBRANCH   9  10
ENDBRANCH   8   9
ENDBRANCH   6   8
ENDBRANCH   2   6
ENDBRANCH   1   5
BRANCH   1  16
ATOM     16  N   UNL     1       2.013  11.659  18.190  0.00  0.00    +0.000 NA
ATOM     17  H   UNL     1       2.300  10.928  17.536  0.00  0.00    +0.000 HD
ATOM     18  H   UNL     1       2.864  11.799  18.757  0.00  0.00    +0.000 HD
ENDBRANCH   1  16
BRANCH   1  19
ATOM     19  C   UNL     1       1.439  11.509  20.541  0.00  0.00    +0.000 C 
ATOM     20  O   UNL     1       1.940  12.579  20.845  0.00  0.00    +0.000 OA
BRANCH  19  21
ATOM     21  O   UNL     1       1.138  10.541  21.453  0.00  0.00    +0.000 OA
ATOM     22  H   UNL     1       1.055  11.007  22.322  0.00  0.00    +0.000 HD
ENDBRANCH  19  21
ENDBRANCH   1  19
BRANCH   1  23
ATOM     23  C   UNL     1      -0.368  11.786  18.671  0.00  0.00    +0.000 C 
BRANCH  23  24
ATOM     24  C   UNL     1      -1.761  11.181  19.054  0.00  0.00    +0.000 C 
ATOM     25  C   UNL     1      -2.604  10.866  17.840  0.00  0.00    +0.000 A 
ATOM     26  C   UNL     1      -2.093  10.107  16.772  0.00  0.00    +0.000 A 
ATOM     27  C   UNL     1      -2.805   9.994  15.577  0.00  0.00    +0.000 A 
ATOM     28  C   UNL     1      -4.066  10.571  15.460  0.00  0.00    +0.000 A 
ATOM     29  C   UNL     1      -4.623  11.242  16.545  0.00  0.00    +0.000 A 
ATOM     30  C   UNL     1      -3.889  11.402  17.722  0.00  0.00    +0.000 A 
ATOM     31  O   UNL     1      -4.491  12.166  18.688  0.00  0.00    +0.000 OA
ATOM     32  C   UNL     1      -3.773  12.503  19.804  0.00  0.00    +0.000 A 
ATOM     33  C   UNL     1      -4.385  13.423  20.658  0.00  0.00    +0.000 A 
ATOM     34  C   UNL     1      -3.740  13.837  21.821  0.00  0.00    +0.000 A 
ATOM     35  C   UNL     1      -2.519  13.268  22.170  0.00  0.00    +0.000 A 
ATOM     36  C   UNL     1      -1.910  12.342  21.318  0.00  0.00    +0.000 A 
ATOM     37  C   UNL     1      -2.498  12.007  20.087  0.00  0.00    +0.000 A 
ENDBRANCH  23  24
ENDBRANCH   1  23
TORSDOF 14
ENDMDL
MODEL 4
REMARK VINA RESULT:      -6.7      6.418      9.945
REMARK  Name = 
REMARK  15 active torsions:
REMARK  status: ('A' for Active; 'I' for Inactive)
REMARK    1  A    between atoms: C_1  and  C_2
REMARK    2  A    between atoms: C_2  and  C_3
REMARK    3  A    between atoms: C_3  and  C_4
REMARK    4  A    between atoms: C_4  and  C_5
REMARK    5  A    between atoms: C_5  and  C_6
REMARK    6  A    between atoms: C_6  and  C_7
REMARK    7  A    between atoms: C_7  and  O_8
REMARK    8  A    between atoms: O_8  and  C_9
REMARK    9  A    between atoms: C_9  and  C_11
REMARK   10  A    between atoms: C_14  and  C_15
REMARK   11  A    between atoms: C_15  and  N_16
REMARK   12  A    between atoms: C_15  and  C_17
REMARK   13  A    between atoms: C_15  and  C_32
REMARK   14  A    between atoms: C_17  and  C_18
REMARK   15  A    between atoms: C_32  and  O_34
REMARK                            x       y       z     vdW  Elec       q    Type
REMARK                         _______ _______ _______ _____ _____    ______ ____
ROOT
ATOM      1  C   UNL     1      -0.728  12.521  19.154  0.00  0.00    +0.000 C 
ENDROOT
BRANCH   1   5
ATOM      2  C   UNL     1       0.522  10.170  18.920  0.00  0.00    +0.000 C 
ATOM      3  F   UNL     1      -0.691   9.570  18.596  0.00  0.00    +0.000 F 
ATOM      4  C   UNL     1       0.607  10.607  20.378  0.00  0.00    +0.000 C 
ATOM      5  C   UNL     1       0.488  11.642  19.283  0.00  0.00    +0.000 C 
BRANCH   2   6
ATOM      6  C   UNL     1       1.727   9.520  18.321  0.00  0.00    +0.000 C 
ATOM      7  O   UNL     1       2.208   9.878  17.263  0.00  0.00    +0.000 OA
BRANCH   6   8
ATOM      8  O   UNL     1       2.050   8.386  18.995  0.00  0.00    +0.000 OA
BRANCH   8   9
ATOM      9  C   UNL     1       2.211   7.262  18.137  0.00  0.00    +0.000 C 
BRANCH   9  10
ATOM     10  C   UNL     1       3.641   6.799  18.228  0.00  0.00    +0.000 C 
BRANCH  10  11
ATOM     11  C   UNL     1       3.866   5.625  17.295  0.00  0.00    +0.000 C 
BRANCH  11  12
ATOM     12  C   UNL     1       4.972   5.952  16.310  0.00  0.00    +0.000 C 
BRANCH  12  13
ATOM     13  C   UNL     1       6.198   5.100  16.594  0.00  0.00    +0.000 C 
BRANCH  13  15
ATOM     14  C   UNL     1       5.972   4.167  14.293  0.00  0.00    +0.000 C 
ATOM     15  C   UNL     1       6.930   4.766  15.303  0.00  0.00    +0.000 C 
ENDBRANCH  13  15
ENDBRANCH  12  13
ENDBRANCH  11  12
ENDBRANCH  10  11
ENDBRANCH   9  10
ENDBRANCH   8   9
ENDBRANCH   6   8
ENDBRANCH   2   6
ENDBRANCH   1   5
BRANCH   1  16
ATOM     16  N   UNL     1      -1.195  12.593  17.722  0.00  0.00    +0.000 NA
ATOM     17  H   UNL     1      -1.380  13.571  17.490  0.00  0.00    +0.000 HD
ATOM     18  H   UNL     1      -2.137  12.174  17.692  0.00  0.00    +0.000 HD
ENDBRANCH   1  16
BRANCH   1  19
ATOM     19  C   UNL     1      -0.375  14.000  19.518  0.00  0.00    +0.000 C 
ATOM     20  O   UNL     1       0.260  14.366  20.494  0.00  0.00    +0.000 OA
BRANCH  19  21
ATOM     21  O   UNL     1      -0.796  14.853  18.541  0.00  0.00    +0.000 OA
ATOM     22  H   UNL     1      -1.781  14.895  18.628  0.00  0.00    +0.000 HD
ENDBRANCH  19  21
ENDBRANCH   1  19
BRANCH   1  23
ATOM     23  C   UNL     1      -1.959  11.963  19.944  0.00  0.00    +0.000 C 
BRANCH  23  24
ATOM     24  C   UNL     1      -3.224  12.851  20.200  0.00  0.00    +0.000 C 
ATOM     25  C   UNL     1      -3.406  13.182  21.663  0.00  0.00    +0.000 A 
ATOM     26  C   UNL     1      -2.353  13.716  22.427  0.00  0.00    +0.000 A 
ATOM     27  C   UNL     1      -2.470  13.829  23.814  0.00  0.00    +0.000 A 
ATOM     28  C   UNL     1      -3.662  13.484  24.444  0.00  0.00    +0.000 A 
ATOM     29  C   UNL     1      -4.743  13.046  23.685  0.00  0.00    +0.000 A 
ATOM     30  C   UNL     1      -4.610  12.881  22.304  0.00  0.00    +0.000 A 
ATOM     31  O   UNL     1      -5.702  12.348  21.671  0.00  0.00    +0.000 OA
ATOM     32  C   UNL     1      -5.595  12.006  20.349  0.00  0.00    +0.000 A 
ATOM     33  C   UNL     1      -6.683  11.310  19.817  0.00  0.00    +0.000 A 
ATOM     34  C   UNL     1      -6.677  10.913  18.483  0.00  0.00    +0.000 A 
ATOM     35  C   UNL     1      -5.617  11.282  17.660  0.00  0.00    +0.000 A 
ATOM     36  C   UNL     1      -4.532  11.985  18.190  0.00  0.00    +0.000 A 
ATOM     37  C   UNL     1      -4.476  12.288  19.561  0.00  0.00    +0.000 A 
ENDBRANCH  23  24
ENDBRANCH   1  23
TORSDOF 14
ENDMDL
MODEL 5
REMARK VINA RESULT:      -6.7      4.799      9.167
REMARK  Name = 
REMARK  15 active torsions:
REMARK  status: ('A' for Active; 'I' for Inactive)
REMARK    1  A    between atoms: C_1  and  C_2
REMARK    2  A    between atoms: C_2  and  C_3
REMARK    3  A    between atoms: C_3  and  C_4
REMARK    4  A    between atoms: C_4  and  C_5
REMARK    5  A    between atoms: C_5  and  C_6
REMARK    6  A    between atoms: C_6  and  C_7
REMARK    7  A    between atoms: C_7  and  O_8
REMARK    8  A    between atoms: O_8  and  C_9
REMARK    9  A    between atoms: C_9  and  C_11
REMARK   10  A    between atoms: C_14  and  C_15
REMARK   11  A    between atoms: C_15  and  N_16
REMARK   12  A    between atoms: C_15  and  C_17
REMARK   13  A    between atoms: C_15  and  C_32
REMARK   14  A    between atoms: C_17  and  C_18
REMARK   15  A    between atoms: C_32  and  O_34
REMARK                            x       y       z     vdW  Elec       q    Type
REMARK                         _______ _______ _______ _____ _____    ______ ____
ROOT
ATOM      1  C   UNL     1       0.678   9.803  20.135  0.00  0.00    +0.000 C 
ENDROOT
BRANCH   1   5
ATOM      2  C   UNL     1       2.252   8.975  18.139  0.00  0.00    +0.000 C 
ATOM      3  F   UNL     1       2.818  10.245  18.074  0.00  0.00    +0.000 F 
ATOM      4  C   UNL     1       0.809   8.932  17.651  0.00  0.00    +0.000 C 
ATOM      5  C   UNL     1       1.115   8.776  19.122  0.00  0.00    +0.000 C 
BRANCH   2   6
ATOM      6  C   UNL     1       3.157   7.860  17.724  0.00  0.00    +0.000 C 
ATOM      7  O   UNL     1       3.759   7.863  16.667  0.00  0.00    +0.000 OA
BRANCH   6   8
ATOM      8  O   UNL     1       3.034   6.799  18.562  0.00  0.00    +0.000 OA
BRANCH   8   9
ATOM      9  C   UNL     1       2.890   5.564  17.871  0.00  0.00    +0.000 C 
BRANCH   9  10
ATOM     10  C   UNL     1       3.937   4.609  18.385  0.00  0.00    +0.000 C 
BRANCH  10  11
ATOM     11  C   UNL     1       3.956   3.354  17.534  0.00  0.00    +0.000 C 
BRANCH  11  12
ATOM     12  C   UNL     1       2.564   2.758  17.462  0.00  0.00    +0.000 C 
BRANCH  12  13
ATOM     13  C   UNL     1       2.192   2.127  18.794  0.00  0.00    +0.000 C 
BRANCH  13  15
ATOM     14  C   UNL     1       0.881   3.601  20.319  0.00  0.00    +0.000 C 
ATOM     15  C   UNL     1       0.797   2.560  19.222  0.00  0.00    +0.000 C 
ENDBRANCH  13  15
ENDBRANCH  12  13
ENDBRANCH  11  12
ENDBRANCH  10  11
ENDBRANCH   9  10
ENDBRANCH   8   9
ENDBRANCH   6   8
ENDBRANCH   2   6
ENDBRANCH   1   5
BRANCH   1  16
ATOM     16  N   UNL     1       1.303  11.145  19.849  0.00  0.00    +0.000 NA
ATOM     17  H   UNL     1       0.792  11.584  19.082  0.00  0.00    +0.000 HD
ATOM     18  H   UNL     1       2.227  10.961  19.427  0.00  0.00    +0.000 HD
ENDBRANCH   1  16
BRANCH   1  19
ATOM     19  C   UNL     1       1.208   9.427  21.558  0.00  0.00    +0.000 C 
ATOM     20  O   UNL     1       1.063  10.087  22.573  0.00  0.00    +0.000 OA
BRANCH  19  21
ATOM     21  O   UNL     1       1.791   8.194  21.546  0.00  0.00    +0.000 OA
ATOM     22  H   UNL     1       2.104   8.053  20.618  0.00  0.00    +0.000 HD
ENDBRANCH  19  21
ENDBRANCH   1  19
BRANCH   1  23
ATOM     23  C   UNL     1      -0.863  10.067  20.095  0.00  0.00    +0.000 C 
BRANCH  23  24
ATOM     24  C   UNL     1      -1.433  11.467  19.684  0.00  0.00    +0.000 C 
ATOM     25  C   UNL     1      -2.008  12.220  20.860  0.00  0.00    +0.000 A 
ATOM     26  C   UNL     1      -1.275  12.394  22.047  0.00  0.00    +0.000 A 
ATOM     27  C   UNL     1      -1.886  12.912  23.190  0.00  0.00    +0.000 A 
ATOM     28  C   UNL     1      -3.212  13.332  23.142  0.00  0.00    +0.000 A 
ATOM     29  C   UNL     1      -3.919  13.254  21.946  0.00  0.00    +0.000 A 
ATOM     30  C   UNL     1      -3.325  12.687  20.816  0.00  0.00    +0.000 A 
ATOM     31  O   UNL     1      -4.144  12.566  19.723  0.00  0.00    +0.000 OA
ATOM     32  C   UNL     1      -3.687  11.876  18.632  0.00  0.00    +0.000 A 
ATOM     33  C   UNL     1      -4.632  11.643  17.630  0.00  0.00    +0.000 A 
ATOM     34  C   UNL     1      -4.274  10.948  16.477  0.00  0.00    +0.000 A 
ATOM     35  C   UNL     1      -2.951  10.558  16.291  0.00  0.00    +0.000 A 
ATOM     36  C   UNL     1      -2.004  10.798  17.292  0.00  0.00    +0.000 A 
ATOM     37  C   UNL     1      -2.382  11.394  18.507  0.00  0.00    +0.000 A 
ENDBRANCH  23  24
ENDBRANCH   1  23
TORSDOF 14
ENDMDL
MODEL 6
REMARK VINA RESULT:      -6.7      3.411      7.264
REMARK  Name = 
REMARK  15 active torsions:
REMARK  status: ('A' for Active; 'I' for Inactive)
REMARK    1  A    between atoms: C_1  and  C_2
REMARK    2  A    between atoms: C_2  and  C_3
REMARK    3  A    between atoms: C_3  and  C_4
REMARK    4  A    between atoms: C_4  and  C_5
REMARK    5  A    between atoms: C_5  and  C_6
REMARK    6  A    between atoms: C_6  and  C_7
REMARK    7  A    between atoms: C_7  and  O_8
REMARK    8  A    between atoms: O_8  and  C_9
REMARK    9  A    between atoms: C_9  and  C_11
REMARK   10  A    between atoms: C_14  and  C_15
REMARK   11  A    between atoms: C_15  and  N_16
REMARK   12  A    between atoms: C_15  and  C_17
REMARK   13  A    between atoms: C_15  and  C_32
REMARK   14  A    between atoms: C_17  and  C_18
REMARK   15  A    between atoms: C_32  and  O_34
REMARK                            x       y       z     vdW  Elec       q    Type
REMARK                         _______ _______ _______ _____ _____    ______ ____
ROOT
ATOM      1  C   UNL     1       3.162   2.923  17.827  0.00  0.00    +0.000 C 
ENDROOT
BRANCH   1   5
ATOM      2  C   UNL     1       2.411   5.062  19.243  0.00  0.00    +0.000 C 
ATOM      3  F   UNL     1       2.987   4.499  20.378  0.00  0.00    +0.000 F 
ATOM      4  C   UNL     1       1.153   4.337  18.781  0.00  0.00    +0.000 C 
ATOM      5  C   UNL     1       2.427   4.230  17.976  0.00  0.00    +0.000 C 
BRANCH   2   6
ATOM      6  C   UNL     1       2.396   6.557  19.220  0.00  0.00    +0.000 C 
ATOM      7  O   UNL     1       2.034   7.224  20.171  0.00  0.00    +0.000 OA
BRANCH   6   8
ATOM      8  O   UNL     1       2.626   7.024  17.966  0.00  0.00    +0.000 OA
BRANCH   8   9
ATOM      9  C   UNL     1       2.677   8.445  17.908  0.00  0.00    +0.000 C 
BRANCH   9  10
ATOM     10  C   UNL     1       1.289   8.958  17.626  0.00  0.00    +0.000 C 
BRANCH  10  11
ATOM     11  C   UNL     1       1.052  10.254  18.377  0.00  0.00    +0.000 C 
BRANCH  11  12
ATOM     12  C   UNL     1      -0.226  10.154  19.188  0.00  0.00    +0.000 C 
BRANCH  12  13
ATOM     13  C   UNL     1      -1.339  10.938  18.512  0.00  0.00    +0.000 C 
BRANCH  13  15
ATOM     14  C   UNL     1      -2.345  10.112  16.386  0.00  0.00    +0.000 C 
ATOM     15  C   UNL     1      -2.361   9.994  17.896  0.00  0.00    +0.000 C 
ENDBRANCH  13  15
ENDBRANCH  12  13
ENDBRANCH  11  12
ENDBRANCH  10  11
ENDBRANCH   9  10
ENDBRANCH   8   9
ENDBRANCH   6   8
ENDBRANCH   2   6
ENDBRANCH   1   5
BRANCH   1  16
ATOM     16  N   UNL     1       2.312   1.903  17.114  0.00  0.00    +0.000 NA
ATOM     17  H   UNL     1       2.605   0.970  17.413  0.00  0.00    +0.000 HD
ATOM     18  H   UNL     1       2.595   1.918  16.122  0.00  0.00    +0.000 HD
ENDBRANCH   1  16
BRANCH   1  19
ATOM     19  C   UNL     1       3.433   2.286  19.230  0.00  0.00    +0.000 C 
ATOM     20  O   UNL     1       2.591   1.827  19.983  0.00  0.00    +0.000 OA
BRANCH  19  21
ATOM     21  O   UNL     1       4.772   2.221  19.481  0.00  0.00    +0.000 OA
ATOM     22  H   UNL     1       5.200   2.808  18.809  0.00  0.00    +0.000 HD
ENDBRANCH  19  21
ENDBRANCH   1  19
BRANCH   1  23
ATOM     23  C   UNL     1       4.448   3.054  16.946  0.00  0.00    +0.000 C 
BRANCH  23  24
ATOM     24  C   UNL     1       4.956   4.455  16.461  0.00  0.00    +0.000 C 
ATOM     25  C   UNL     1       5.471   4.418  15.041  0.00  0.00    +0.000 A 
ATOM     26  C   UNL     1       4.705   3.864  14.000  0.00  0.00    +0.000 A 
ATOM     27  C   UNL     1       5.267   3.654  12.739  0.00  0.00    +0.000 A 
ATOM     28  C   UNL     1       6.572   4.064  12.481  0.00  0.00    +0.000 A 
ATOM     29  C   UNL     1       7.306   4.703  13.476  0.00  0.00    +0.000 A 
ATOM     30  C   UNL     1       6.764   4.865  14.753  0.00  0.00    +0.000 A 
ATOM     31  O   UNL     1       7.609   5.412  15.683  0.00  0.00    +0.000 OA
ATOM     32  C   UNL     1       7.209   5.455  16.992  0.00  0.00    +0.000 A 
ATOM     33  C   UNL     1       8.184   5.862  17.905  0.00  0.00    +0.000 A 
ATOM     34  C   UNL     1       7.884   5.939  19.263  0.00  0.00    +0.000 A 
ATOM     35  C   UNL     1       6.586   5.687  19.696  0.00  0.00    +0.000 A 
ATOM     36  C   UNL     1       5.609   5.286  18.780  0.00  0.00    +0.000 A 
ATOM     37  C   UNL     1       5.932   5.093  17.427  0.00  0.00    +0.000 A 
ENDBRANCH  23  24
ENDBRANCH   1  23
TORSDOF 14
ENDMDL
MODEL 7
REMARK VINA RESULT:      -6.6      6.933     10.802
REMARK  Name = 
REMARK  15 active torsions:
REMARK  status: ('A' for Active; 'I' for Inactive)
REMARK    1  A    between atoms: C_1  and  C_2
REMARK    2  A    between atoms: C_2  and  C_3
REMARK    3  A    between atoms: C_3  and  C_4
REMARK    4  A    between atoms: C_4  and  C_5
REMARK    5  A    between atoms: C_5  and  C_6
REMARK    6  A    between atoms: C_6  and  C_7
REMARK    7  A    between atoms: C_7  and  O_8
REMARK    8  A    between atoms: O_8  and  C_9
REMARK    9  A    between atoms: C_9  and  C_11
REMARK   10  A    between atoms: C_14  and  C_15
REMARK   11  A    between atoms: C_15  and  N_16
REMARK   12  A    between atoms: C_15  and  C_17
REMARK   13  A    between atoms: C_15  and  C_32
REMARK   14  A    between atoms: C_17  and  C_18
REMARK   15  A    between atoms: C_32  and  O_34
REMARK                            x       y       z     vdW  Elec       q    Type
REMARK                         _______ _______ _______ _____ _____    ______ ____
ROOT
ATOM      1  C   UNL     1      -2.640  11.322  17.415  0.00  0.00    +0.000 C 
ENDROOT
BRANCH   1   5
ATOM      2  C   UNL     1      -5.060  11.177  18.540  0.00  0.00    +0.000 C 
ATOM      3  F   UNL     1      -5.030   9.792  18.399  0.00  0.00    +0.000 F 
ATOM      4  C   UNL     1      -5.200  11.915  17.215  0.00  0.00    +0.000 C 
ATOM      5  C   UNL     1      -3.892  11.954  17.969  0.00  0.00    +0.000 C 
BRANCH   2   6
ATOM      6  C   UNL     1      -5.865  11.674  19.698  0.00  0.00    +0.000 C 
ATOM      7  O   UNL     1      -6.563  10.943  20.374  0.00  0.00    +0.000 OA
BRANCH   6   8
ATOM      8  O   UNL     1      -5.868  13.031  19.737  0.00  0.00    +0.000 OA
BRANCH   8   9
ATOM      9  C   UNL     1      -5.746  13.545  21.058  0.00  0.00    +0.000 C 
BRANCH   9  10
ATOM     10  C   UNL     1      -5.441  15.018  20.967  0.00  0.00    +0.000 C 
BRANCH  10  11
ATOM     11  C   UNL     1      -3.956  15.227  20.745  0.00  0.00    +0.000 C 
BRANCH  11  12
ATOM     12  C   UNL     1      -3.364  16.000  21.909  0.00  0.00    +0.000 C 
BRANCH  12  13
ATOM     13  C   UNL     1      -1.919  16.369  21.614  0.00  0.00    +0.000 C 
BRANCH  13  15
ATOM     14  C   UNL     1      -0.499  16.662  19.585  0.00  0.00    +0.000 C 
ATOM     15  C   UNL     1      -1.462  15.740  20.306  0.00  0.00    +0.000 C 
ENDBRANCH  13  15
ENDBRANCH  12  13
ENDBRANCH  11  12
ENDBRANCH  10  11
ENDBRANCH   9  10
ENDBRANCH   8   9
ENDBRANCH   6   8
ENDBRANCH   2   6
ENDBRANCH   1   5
BRANCH   1  16
ATOM     16  N   UNL     1      -1.591  12.365  17.126  0.00  0.00    +0.000 NA
ATOM     17  H   UNL     1      -1.321  12.290  16.143  0.00  0.00    +0.000 HD
ATOM     18  H   UNL     1      -0.732  12.070  17.616  0.00  0.00    +0.000 HD
ENDBRANCH   1  16
BRANCH   1  19
ATOM     19  C   UNL     1      -2.927  10.669  16.024  0.00  0.00    +0.000 C 
ATOM     20  O   UNL     1      -3.094   9.480  15.812  0.00  0.00    +0.000 OA
BRANCH  19  21
ATOM     21  O   UNL     1      -3.061  11.624  15.059  0.00  0.00    +0.000 OA
ATOM     22  H   UNL     1      -2.161  11.731  14.661  0.00  0.00    +0.000 HD
ENDBRANCH  19  21
ENDBRANCH   1  19
BRANCH   1  23
ATOM     23  C   UNL     1      -1.960  10.347  18.432  0.00  0.00    +0.000 C 
BRANCH  23  24
ATOM     24  C   UNL     1      -0.705  10.788  19.258  0.00  0.00    +0.000 C 
ATOM     25  C   UNL     1       0.425   9.788  19.163  0.00  0.00    +0.000 A 
ATOM     26  C   UNL     1       0.882   9.318  17.920  0.00  0.00    +0.000 A 
ATOM     27  C   UNL     1       1.781   8.252  17.851  0.00  0.00    +0.000 A 
ATOM     28  C   UNL     1       2.293   7.695  19.019  0.00  0.00    +0.000 A 
ATOM     29  C   UNL     1       1.922   8.218  20.254  0.00  0.00    +0.000 A 
ATOM     30  C   UNL     1       0.981   9.248  20.326  0.00  0.00    +0.000 A 
ATOM     31  O   UNL     1       0.612   9.616  21.594  0.00  0.00    +0.000 OA
ATOM     32  C   UNL     1      -0.420  10.503  21.747  0.00  0.00    +0.000 A 
ATOM     33  C   UNL     1      -0.856  10.697  23.060  0.00  0.00    +0.000 A 
ATOM     34  C   UNL     1      -1.901  11.577  23.329  0.00  0.00    +0.000 A 
ATOM     35  C   UNL     1      -2.456  12.323  22.294  0.00  0.00    +0.000 A 
ATOM     36  C   UNL     1      -2.015  12.134  20.981  0.00  0.00    +0.000 A 
ATOM     37  C   UNL     1      -1.042  11.164  20.686  0.00  0.00    +0.000 A 
ENDBRANCH  23  24
ENDBRANCH   1  23
TORSDOF 14
ENDMDL
MODEL 8
REMARK VINA RESULT:      -6.6      0.853      1.319
REMARK  Name = 
REMARK  15 active torsions:
REMARK  status: ('A' for Active; 'I' for Inactive)
REMARK    1  A    between atoms: C_1  and  C_2
REMARK    2  A    between atoms: C_2  and  C_3
REMARK    3  A    between atoms: C_3  and  C_4
REMARK    4  A    between atoms: C_4  and  C_5
REMARK    5  A    between atoms: C_5  and  C_6
REMARK    6  A    between atoms: C_6  and  C_7
REMARK    7  A    between atoms: C_7  and  O_8
REMARK    8  A    between atoms: O_8  and  C_9
REMARK    9  A    between atoms: C_9  and  C_11
REMARK   10  A    between atoms: C_14  and  C_15
REMARK   11  A    between atoms: C_15  and  N_16
REMARK   12  A    between atoms: C_15  and  C_17
REMARK   13  A    between atoms: C_15  and  C_32
REMARK   14  A    between atoms: C_17  and  C_18
REMARK   15  A    between atoms: C_32  and  O_34
REMARK                            x       y       z     vdW  Elec       q    Type
REMARK                         _______ _______ _______ _____ _____    ______ ____
ROOT
ATOM      1  C   UNL     1       5.241   4.165  16.417  0.00  0.00    +0.000 C 
ENDROOT
BRANCH   1   5
ATOM      2  C   UNL     1       7.075   5.808  17.456  0.00  0.00    +0.000 C 
ATOM      3  F   UNL     1       6.494   6.871  16.770  0.00  0.00    +0.000 F 
ATOM      4  C   UNL     1       7.790   4.820  16.543  0.00  0.00    +0.000 C 
ATOM      5  C   UNL     1       6.493   4.430  17.212  0.00  0.00    +0.000 C 
BRANCH   2   6
ATOM      6  C   UNL     1       7.749   6.179  18.738  0.00  0.00    +0.000 C 
ATOM      7  O   UNL     1       8.061   5.355  19.577  0.00  0.00    +0.000 OA
BRANCH   6   8
ATOM      8  O   UNL     1       7.757   7.526  18.909  0.00  0.00    +0.000 OA
BRANCH   8   9
ATOM      9  C   UNL     1       8.265   8.221  17.776  0.00  0.00    +0.000 C 
BRANCH   9  10
ATOM     10  C   UNL     1       8.237   9.698  18.076  0.00  0.00    +0.000 C 
BRANCH  10  11
ATOM     11  C   UNL     1       9.280  10.034  19.124  0.00  0.00    +0.000 C 
BRANCH  11  12
ATOM     12  C   UNL     1      10.202  11.119  18.604  0.00  0.00    +0.000 C 
BRANCH  12  13
ATOM     13  C   UNL     1      10.232  12.292  19.572  0.00  0.00    +0.000 C 
BRANCH  13  15
ATOM     14  C   UNL     1       9.101  12.776  21.741  0.00  0.00    +0.000 C 
ATOM     15  C   UNL     1      10.007  11.814  20.999  0.00  0.00    +0.000 C 
ENDBRANCH  13  15
ENDBRANCH  12  13
ENDBRANCH  11  12
ENDBRANCH  10  11
ENDBRANCH   9  10
ENDBRANCH   8   9
ENDBRANCH   6   8
ENDBRANCH   2   6
ENDBRANCH   1   5
BRANCH   1  16
ATOM     16  N   UNL     1       4.978   2.685  16.300  0.00  0.00    +0.000 NA
ATOM     17  H   UNL     1       5.696   2.274  15.700  0.00  0.00    +0.000 HD
ATOM     18  H   UNL     1       4.123   2.577  15.732  0.00  0.00    +0.000 HD
ENDBRANCH   1  16
BRANCH   1  19
ATOM     19  C   UNL     1       5.422   4.641  14.938  0.00  0.00    +0.000 C 
ATOM     20  O   UNL     1       5.720   3.935  13.990  0.00  0.00    +0.000 OA
BRANCH  19  21
ATOM     21  O   UNL     1       5.111   5.963  14.814  0.00  0.00    +0.000 OA
ATOM     22  H   UNL     1       4.137   5.995  14.640  0.00  0.00    +0.000 HD
ENDBRANCH  19  21
ENDBRANCH   1  19
BRANCH   1  23
ATOM     23  C   UNL     1       3.960   4.742  17.104  0.00  0.00    +0.000 C 
BRANCH  23  24
ATOM     24  C   UNL     1       4.033   5.407  18.521  0.00  0.00    +0.000 C 
ATOM     25  C   UNL     1       3.636   4.452  19.623  0.00  0.00    +0.000 A 
ATOM     26  C   UNL     1       4.213   3.174  19.725  0.00  0.00    +0.000 A 
ATOM     27  C   UNL     1       3.699   2.232  20.619  0.00  0.00    +0.000 A 
ATOM     28  C   UNL     1       2.655   2.578  21.472  0.00  0.00    +0.000 A 
ATOM     29  C   UNL     1       2.141   3.871  21.446  0.00  0.00    +0.000 A 
ATOM     30  C   UNL     1       2.619   4.798  20.516  0.00  0.00    +0.000 A 
ATOM     31  O   UNL     1       1.972   6.006  20.509  0.00  0.00    +0.000 OA
ATOM     32  C   UNL     1       2.272   6.908  19.523  0.00  0.00    +0.000 A 
ATOM     33  C   UNL     1       1.455   8.040  19.474  0.00  0.00    +0.000 A 
ATOM     34  C   UNL     1       1.671   9.019  18.508  0.00  0.00    +0.000 A 
ATOM     35  C   UNL     1       2.755   8.905  17.643  0.00  0.00    +0.000 A 
ATOM     36  C   UNL     1       3.577   7.775  17.697  0.00  0.00    +0.000 A 
ATOM     37  C   UNL     1       3.296   6.728  18.590  0.00  0.00    +0.000 A 
ENDBRANCH  23  24
ENDBRANCH   1  23
TORSDOF 14
ENDMDL
MODEL 9
REMARK VINA RESULT:      -6.6      5.840     10.126
REMARK  Name = 
REMARK  15 active torsions:
REMARK  status: ('A' for Active; 'I' for Inactive)
REMARK    1  A    between atoms: C_1  and  C_2
REMARK    2  A    between atoms: C_2  and  C_3
REMARK    3  A    between atoms: C_3  and  C_4
REMARK    4  A    between atoms: C_4  and  C_5
REMARK    5  A    between atoms: C_5  and  C_6
REMARK    6  A    between atoms: C_6  and  C_7
REMARK    7  A    between atoms: C_7  and  O_8
REMARK    8  A    between atoms: O_8  and  C_9
REMARK    9  A    between atoms: C_9  and  C_11
REMARK   10  A    between atoms: C_14  and  C_15
REMARK   11  A    between atoms: C_15  and  N_16
REMARK   12  A    between atoms: C_15  and  C_17
REMARK   13  A    between atoms: C_15  and  C_32
REMARK   14  A    between atoms: C_17  and  C_18
REMARK   15  A    between atoms: C_32  and  O_34
REMARK                            x       y       z     vdW  Elec       q    Type
REMARK                         _______ _______ _______ _____ _____    ______ ____
ROOT
ATOM      1  C   UNL     1       0.141  12.345  19.318  0.00  0.00    +0.000 C 
ENDROOT
BRANCH   1   5
ATOM      2  C   UNL     1       1.195   9.929  18.877  0.00  0.00    +0.000 C 
ATOM      3  F   UNL     1       2.257  10.528  18.205  0.00  0.00    +0.000 F 
ATOM      4  C   UNL     1      -0.124  10.014  18.119  0.00  0.00    +0.000 C 
ATOM      5  C   UNL     1       0.086  10.840  19.366  0.00  0.00    +0.000 C 
BRANCH   2   6
ATOM      6  C   UNL     1       1.524   8.635  19.550  0.00  0.00    +0.000 C 
ATOM      7  O   UNL     1       0.985   8.275  20.579  0.00  0.00    +0.000 OA
BRANCH   6   8
ATOM      8  O   UNL     1       2.616   8.061  18.985  0.00  0.00    +0.000 OA
BRANCH   8   9
ATOM      9  C   UNL     1       2.281   7.074  18.016  0.00  0.00    +0.000 C 
BRANCH   9  10
ATOM     10  C   UNL     1       2.316   5.724  18.684  0.00  0.00    +0.000 C 
BRANCH  10  11
ATOM     11  C   UNL     1       1.758   4.668  17.750  0.00  0.00    +0.000 C 
BRANCH  11  12
ATOM     12  C   UNL     1       1.796   3.310  18.424  0.00  0.00    +0.000 C 
BRANCH  12  13
ATOM     13  C   UNL     1       2.593   2.327  17.580  0.00  0.00    +0.000 C 
BRANCH  13  15
ATOM     14  C   UNL     1       3.953   2.334  19.670  0.00  0.00    +0.000 C 
ATOM     15  C   UNL     1       3.551   1.528  18.451  0.00  0.00    +0.000 C 
ENDBRANCH  13  15
ENDBRANCH  12  13
ENDBRANCH  11  12
ENDBRANCH  10  11
ENDBRANCH   9  10
ENDBRANCH   8   9
ENDBRANCH   6   8
ENDBRANCH   2   6
ENDBRANCH   1   5
BRANCH   1  16
ATOM     16  N   UNL     1       0.415  12.833  17.918  0.00  0.00    +0.000 NA
ATOM     17  H   UNL     1       1.244  13.430  17.939  0.00  0.00    +0.000 HD
ATOM     18  H   UNL     1      -0.336  13.501  17.681  0.00  0.00    +0.000 HD
ENDBRANCH   1  16
BRANCH   1  19
ATOM     19  C   UNL     1       1.352  12.875  20.154  0.00  0.00    +0.000 C 
ATOM     20  O   UNL     1       1.574  12.630  21.328  0.00  0.00    +0.000 OA
BRANCH  19  21
ATOM     21  O   UNL     1       2.204  13.593  19.368  0.00  0.00    +0.000 OA
ATOM     22  H   UNL     1       1.764  13.658  18.484  0.00  0.00    +0.000 HD
ENDBRANCH  19  21
ENDBRANCH   1  19
BRANCH   1  23
ATOM     23  C   UNL     1      -1.222  13.008  19.709  0.00  0.00    +0.000 C 
BRANCH  23  24
ATOM     24  C   UNL     1      -2.417  12.145  20.240  0.00  0.00    +0.000 C 
ATOM     25  C   UNL     1      -3.502  11.970  19.204  0.00  0.00    +0.000 A 
ATOM     26  C   UNL     1      -3.207  11.527  17.903  0.00  0.00    +0.000 A 
ATOM     27  C   UNL     1      -4.180  11.562  16.902  0.00  0.00    +0.000 A 
ATOM     28  C   UNL     1      -5.477  11.965  17.205  0.00  0.00    +0.000 A 
ATOM     29  C   UNL     1      -5.805  12.313  18.512  0.00  0.00    +0.000 A 
ATOM     30  C   UNL     1      -4.820  12.331  19.502  0.00  0.00    +0.000 A 
ATOM     31  O   UNL     1      -5.229  12.787  20.728  0.00  0.00    +0.000 OA
ATOM     32  C   UNL     1      -4.289  12.986  21.704  0.00  0.00    +0.000 A 
ATOM     33  C   UNL     1      -4.750  13.616  22.863  0.00  0.00    +0.000 A 
ATOM     34  C   UNL     1      -3.877  13.869  23.917  0.00  0.00    +0.000 A 
ATOM     35  C   UNL     1      -2.562  13.420  23.845  0.00  0.00    +0.000 A 
ATOM     36  C   UNL     1      -2.103  12.784  22.688  0.00  0.00    +0.000 A 
ATOM     37  C   UNL     1      -2.946  12.629  21.574  0.00  0.00    +0.000 A 
ENDBRANCH  23  24
ENDBRANCH   1  23
TORSDOF 14
ENDMDL
