MODEL 1
REMARK VINA RESULT:      -7.1      0.000      0.000
REMARK  Name = 
REMARK  2 active torsions:
REMARK  status: ('A' for Active; 'I' for Inactive)
REMARK    1  A    between atoms: C_1  and  C_2
REMARK    2  A    between atoms: C_12  and  C_13
REMARK                            x       y       z     vdW  Elec       q    Type
REMARK                         _______ _______ _______ _____ _____    ______ ____
ROOT
ATOM      1  C   UNL     1       1.880   8.057  17.796  0.00  0.00    +0.000 C 
ATOM      2  C   UNL     1       3.317   7.650  17.794  0.00  0.00    +0.000 C 
ATOM      3  C   UNL     1       3.838   6.409  17.852  0.00  0.00    +0.000 C 
ATOM      4  C   UNL     1       3.129   5.127  17.987  0.00  0.00    +0.000 A 
ATOM      5  C   UNL     1       1.778   4.809  18.008  0.00  0.00    +0.000 A 
ATOM      6  C   UNL     1       1.385   3.471  18.156  0.00  0.00    +0.000 A 
ATOM      7  C   UNL     1       2.336   2.449  18.279  0.00  0.00    +0.000 A 
ATOM      8  C   UNL     1       3.692   2.757  18.263  0.00  0.00    +0.000 A 
ATOM      9  C   UNL     1       4.047   4.090  18.123  0.00  0.00    +0.000 A 
ATOM     10  C   UNL     1       5.392   4.637  18.086  0.00  0.00    +0.000 C 
ATOM     11  O   UNL     1       6.398   3.947  18.188  0.00  0.00    +0.000 OA
ATOM     12  C   UNL     1       5.348   6.131  17.863  0.00  0.00    +0.000 C 
ENDROOT
BRANCH  12  13
ATOM     13  C   UNL     1       6.094   6.559  16.596  0.00  0.00    +0.000 C 
ATOM     14  N   UNL     1       7.444   6.734  16.716  0.00  0.00    +0.000 N 
ATOM     15  O   UNL     1       5.548   6.834  15.529  0.00  0.00    +0.000 OA
ATOM     16  H   UNL     1       7.955   6.446  17.550  0.00  0.00    +0.000 HD
ATOM     17  H   UNL     1       7.972   6.995  15.895  0.00  0.00    +0.000 HD
ENDBRANCH  12  13
TORSDOF 1
ENDMDL
MODEL 2
REMARK VINA RESULT:      -7.1      2.912      4.362
REMARK  Name = 
REMARK  2 active torsions:
REMARK  status: ('A' for Active; 'I' for Inactive)
REMARK    1  A    between atoms: C_1  and  C_2
REMARK    2  A    between atoms: C_12  and  C_13
REMARK                            x       y       z     vdW  Elec       q    Type
REMARK                         _______ _______ _______ _____ _____    ______ ____
ROOT
ATOM      1  C   UNL     1       5.658   5.056  15.443  0.00  0.00    +0.000 C 
ATOM      2  C   UNL     1       5.230   4.122  16.527  0.00  0.00    +0.000 C 
ATOM      3  C   UNL     1       4.399   4.359  17.560  0.00  0.00    +0.000 C 
ATOM      4  C   UNL     1       3.731   5.619  17.924  0.00  0.00    +0.000 A 
ATOM      5  C   UNL     1       3.686   6.860  17.303  0.00  0.00    +0.000 A 
ATOM      6  C   UNL     1       2.957   7.902  17.896  0.00  0.00    +0.000 A 
ATOM      7  C   UNL     1       2.271   7.708  19.102  0.00  0.00    +0.000 A 
ATOM      8  C   UNL     1       2.313   6.469  19.733  0.00  0.00    +0.000 A 
ATOM      9  C   UNL     1       3.049   5.463  19.126  0.00  0.00    +0.000 A 
ATOM     10  C   UNL     1       3.234   4.105  19.607  0.00  0.00    +0.000 C 
ATOM     11  O   UNL     1       2.745   3.692  20.650  0.00  0.00    +0.000 OA
ATOM     12  C   UNL     1       4.058   3.305  18.624  0.00  0.00    +0.000 C 
ENDROOT
BRANCH  12  13
ATOM     13  C   UNL     1       3.315   2.073  18.100  0.00  0.00    +0.000 C 
ATOM     14  N   UNL     1       3.917   0.865  18.317  0.00  0.00    +0.000 N 
ATOM     15  O   UNL     1       2.283   2.117  17.434  0.00  0.00    +0.000 OA
ATOM     16  H   UNL     1       4.727   0.765  18.927  0.00  0.00    +0.000 HD
ATOM     17  H   UNL     1       3.445   0.028  18.003  0.00  0.00    +0.000 HD
ENDBRANCH  12  13
TORSDOF 1
ENDMDL
MODEL 3
REMARK VINA RESULT:      -7.0      1.511      3.632
REMARK  Name = 
REMARK  2 active torsions:
REMARK  status: ('A' for Active; 'I' for Inactive)
REMARK    1  A    between atoms: C_1  and  C_2
REMARK    2  A    between atoms: C_12  and  C_13
REMARK                            x       y       z     vdW  Elec       q    Type
REMARK                         _______ _______ _______ _____ _____    ______ ____
ROOT
ATOM      1  C   UNL     1       3.822   2.793  20.094  0.00  0.00    +0.000 C 
ATOM      2  C   UNL     1       4.597   3.202  18.885  0.00  0.00    +0.000 C 
ATOM      3  C   UNL     1       4.578   4.382  18.235  0.00  0.00    +0.000 C 
ATOM      4  C   UNL     1       3.748   5.565  18.514  0.00  0.00    +0.000 A 
ATOM      5  C   UNL     1       2.841   5.846  19.527  0.00  0.00    +0.000 A 
ATOM      6  C   UNL     1       2.179   7.083  19.537  0.00  0.00    +0.000 A 
ATOM      7  C   UNL     1       2.422   8.039  18.542  0.00  0.00    +0.000 A 
ATOM      8  C   UNL     1       3.325   7.765  17.521  0.00  0.00    +0.000 A 
ATOM      9  C   UNL     1       3.958   6.531  17.535  0.00  0.00    +0.000 A 
ATOM     10  C   UNL     1       4.926   6.035  16.574  0.00  0.00    +0.000 C 
ATOM     11  O   UNL     1       5.295   6.680  15.602  0.00  0.00    +0.000 OA
ATOM     12  C   UNL     1       5.418   4.664  16.981  0.00  0.00    +0.000 C 
ENDROOT
BRANCH  12  13
ATOM     13  C   UNL     1       6.933   4.623  17.194  0.00  0.00    +0.000 C 
ATOM     14  N   UNL     1       7.705   4.619  16.065  0.00  0.00    +0.000 N 
ATOM     15  O   UNL     1       7.477   4.505  18.291  0.00  0.00    +0.000 OA
ATOM     16  H   UNL     1       7.313   4.793  15.141  0.00  0.00    +0.000 HD
ATOM     17  H   UNL     1       8.711   4.613  16.168  0.00  0.00    +0.000 HD
ENDBRANCH  12  13
TORSDOF 1
ENDMDL
MODEL 4
REMARK VINA RESULT:      -6.9      3.000      4.193
REMARK  Name = 
REMARK  2 active torsions:
REMARK  status: ('A' for Active; 'I' for Inactive)
REMARK    1  A    between atoms: C_1  and  C_2
REMARK    2  A    between atoms: C_12  and  C_13
REMARK                            x       y       z     vdW  Elec       q    Type
REMARK                         _______ _______ _______ _____ _____    ______ ____
ROOT
ATOM      1  C   UNL     1       2.594   8.502  17.995  0.00  0.00    +0.000 C 
ATOM      2  C   UNL     1       2.031   7.155  18.310  0.00  0.00    +0.000 C 
ATOM      3  C   UNL     1       2.557   5.943  18.049  0.00  0.00    +0.000 C 
ATOM      4  C   UNL     1       3.803   5.623  17.335  0.00  0.00    +0.000 A 
ATOM      5  C   UNL     1       4.809   6.427  16.815  0.00  0.00    +0.000 A 
ATOM      6  C   UNL     1       5.903   5.832  16.167  0.00  0.00    +0.000 A 
ATOM      7  C   UNL     1       5.997   4.440  16.042  0.00  0.00    +0.000 A 
ATOM      8  C   UNL     1       4.993   3.626  16.557  0.00  0.00    +0.000 A 
ATOM      9  C   UNL     1       3.922   4.245  17.184  0.00  0.00    +0.000 A 
ATOM     10  C   UNL     1       2.769   3.598  17.784  0.00  0.00    +0.000 C 
ATOM     11  O   UNL     1       2.611   2.385  17.791  0.00  0.00    +0.000 OA
ATOM     12  C   UNL     1       1.856   4.626  18.413  0.00  0.00    +0.000 C 
ENDROOT
BRANCH  12  13
ATOM     13  C   UNL     1       1.655   4.394  19.913  0.00  0.00    +0.000 C 
ATOM     14  N   UNL     1       0.660   3.523  20.264  0.00  0.00    +0.000 N 
ATOM     15  O   UNL     1       2.260   4.998  20.796  0.00  0.00    +0.000 OA
ATOM     16  H   UNL     1       0.184   2.940  19.577  0.00  0.00    +0.000 HD
ATOM     17  H   UNL     1       0.512   3.330  21.245  0.00  0.00    +0.000 HD
ENDBRANCH  12  13
TORSDOF 1
ENDMDL
MODEL 5
REMARK VINA RESULT:      -6.9      3.267      4.554
REMARK  Name = 
REMARK  2 active torsions:
REMARK  status: ('A' for Active; 'I' for Inactive)
REMARK    1  A    between atoms: C_1  and  C_2
REMARK    2  A    between atoms: C_12  and  C_13
REMARK                            x       y       z     vdW  Elec       q    Type
REMARK                         _______ _______ _______ _____ _____    ______ ____
ROOT
ATOM      1  C   UNL     1       1.799   7.258  20.522  0.00  0.00    +0.000 C 
ATOM      2  C   UNL     1       1.684   5.769  20.504  0.00  0.00    +0.000 C 
ATOM      3  C   UNL     1       2.298   4.890  19.690  0.00  0.00    +0.000 C 
ATOM      4  C   UNL     1       3.207   5.165  18.567  0.00  0.00    +0.000 A 
ATOM      5  C   UNL     1       3.750   6.347  18.079  0.00  0.00    +0.000 A 
ATOM      6  C   UNL     1       4.602   6.307  16.965  0.00  0.00    +0.000 A 
ATOM      7  C   UNL     1       4.917   5.093  16.341  0.00  0.00    +0.000 A 
ATOM      8  C   UNL     1       4.376   3.905  16.819  0.00  0.00    +0.000 A 
ATOM      9  C   UNL     1       3.531   3.979  17.917  0.00  0.00    +0.000 A 
ATOM     10  C   UNL     1       2.855   2.875  18.574  0.00  0.00    +0.000 C 
ATOM     11  O   UNL     1       2.958   1.712  18.207  0.00  0.00    +0.000 OA
ATOM     12  C   UNL     1       2.072   3.372  19.768  0.00  0.00    +0.000 C 
ENDROOT
BRANCH  12  13
ATOM     13  C   UNL     1       2.518   2.718  21.078  0.00  0.00    +0.000 C 
ATOM     14  N   UNL     1       1.554   2.556  22.034  0.00  0.00    +0.000 N 
ATOM     15  O   UNL     1       3.681   2.421  21.345  0.00  0.00    +0.000 OA
ATOM     16  H   UNL     1       0.566   2.710  21.839  0.00  0.00    +0.000 HD
ATOM     17  H   UNL     1       1.808   2.108  22.905  0.00  0.00    +0.000 HD
ENDBRANCH  12  13
TORSDOF 1
ENDMDL
MODEL 6
REMARK VINA RESULT:      -6.8      1.650      1.655
REMARK  Name = 
REMARK  2 active torsions:
REMARK  status: ('A' for Active; 'I' for Inactive)
REMARK    1  A    between atoms: C_1  and  C_2
REMARK    2  A    between atoms: C_12  and  C_13
REMARK                            x       y       z     vdW  Elec       q    Type
REMARK                         _______ _______ _______ _____ _____    ______ ____
ROOT
ATOM      1  C   UNL     1       1.782   8.455  18.099  0.00  0.00    +0.000 C 
ATOM      2  C   UNL     1       3.091   7.810  17.783  0.00  0.00    +0.000 C 
ATOM      3  C   UNL     1       3.563   6.620  18.202  0.00  0.00    +0.000 C 
ATOM      4  C   UNL     1       2.935   5.661  19.125  0.00  0.00    +0.000 A 
ATOM      5  C   UNL     1       1.694   5.647  19.747  0.00  0.00    +0.000 A 
ATOM      6  C   UNL     1       1.360   4.583  20.598  0.00  0.00    +0.000 A 
ATOM      7  C   UNL     1       2.258   3.531  20.824  0.00  0.00    +0.000 A 
ATOM      8  C   UNL     1       3.505   3.538  20.208  0.00  0.00    +0.000 A 
ATOM      9  C   UNL     1       3.807   4.608  19.380  0.00  0.00    +0.000 A 
ATOM     10  C   UNL     1       5.041   4.822  18.645  0.00  0.00    +0.000 C 
ATOM     11  O   UNL     1       5.989   4.049  18.689  0.00  0.00    +0.000 OA
ATOM     12  C   UNL     1       4.948   6.082  17.814  0.00  0.00    +0.000 C 
ENDROOT
BRANCH  12  13
ATOM     13  C   UNL     1       5.144   5.815  16.319  0.00  0.00    +0.000 C 
ATOM     14  N   UNL     1       5.043   4.512  15.917  0.00  0.00    +0.000 N 
ATOM     15  O   UNL     1       5.466   6.672  15.498  0.00  0.00    +0.000 OA
ATOM     16  H   UNL     1       4.703   3.779  16.537  0.00  0.00    +0.000 HD
ATOM     17  H   UNL     1       5.146   4.302  14.933  0.00  0.00    +0.000 HD
ENDBRANCH  12  13
TORSDOF 1
ENDMDL
MODEL 7
REMARK VINA RESULT:      -6.8      3.014      4.689
REMARK  Name = 
REMARK  2 active torsions:
REMARK  status: ('A' for Active; 'I' for Inactive)
REMARK    1  A    between atoms: C_1  and  C_2
REMARK    2  A    between atoms: C_12  and  C_13
REMARK                            x       y       z     vdW  Elec       q    Type
REMARK                         _______ _______ _______ _____ _____    ______ ____
ROOT
ATOM      1  C   UNL     1       7.865   5.884  19.294  0.00  0.00    +0.000 C 
ATOM      2  C   UNL     1       6.465   5.378  19.406  0.00  0.00    +0.000 C 
ATOM      3  C   UNL     1       5.684   4.852  18.443  0.00  0.00    +0.000 C 
ATOM      4  C   UNL     1       5.984   4.685  17.012  0.00  0.00    +0.000 A 
ATOM      5  C   UNL     1       7.132   4.925  16.270  0.00  0.00    +0.000 A 
ATOM      6  C   UNL     1       7.128   4.672  14.890  0.00  0.00    +0.000 A 
ATOM      7  C   UNL     1       5.984   4.176  14.251  0.00  0.00    +0.000 A 
ATOM      8  C   UNL     1       4.827   3.936  14.985  0.00  0.00    +0.000 A 
ATOM      9  C   UNL     1       4.862   4.204  16.346  0.00  0.00    +0.000 A 
ATOM     10  C   UNL     1       3.778   4.033  17.297  0.00  0.00    +0.000 C 
ATOM     11  O   UNL     1       2.669   3.625  16.981  0.00  0.00    +0.000 OA
ATOM     12  C   UNL     1       4.242   4.384  18.693  0.00  0.00    +0.000 C 
ENDROOT
BRANCH  12  13
ATOM     13  C   UNL     1       4.101   3.215  19.671  0.00  0.00    +0.000 C 
ATOM     14  N   UNL     1       4.998   2.193  19.528  0.00  0.00    +0.000 N 
ATOM     15  O   UNL     1       3.195   3.105  20.495  0.00  0.00    +0.000 OA
ATOM     16  H   UNL     1       5.811   2.268  18.919  0.00  0.00    +0.000 HD
ATOM     17  H   UNL     1       4.948   1.414  20.170  0.00  0.00    +0.000 HD
ENDBRANCH  12  13
TORSDOF 1
ENDMDL
MODEL 8
REMARK VINA RESULT:      -6.6      1.749      2.056
REMARK  Name = 
REMARK  2 active torsions:
REMARK  status: ('A' for Active; 'I' for Inactive)
REMARK    1  A    between atoms: C_1  and  C_2
REMARK    2  A    between atoms: C_12  and  C_13
REMARK                            x       y       z     vdW  Elec       q    Type
REMARK                         _______ _______ _______ _____ _____    ______ ____
ROOT
ATOM      1  C   UNL     1       2.965   7.479  17.611  0.00  0.00    +0.000 C 
ATOM      2  C   UNL     1       4.063   6.638  18.175  0.00  0.00    +0.000 C 
ATOM      3  C   UNL     1       4.025   5.341  18.536  0.00  0.00    +0.000 C 
ATOM      4  C   UNL     1       2.877   4.421  18.521  0.00  0.00    +0.000 A 
ATOM      5  C   UNL     1       1.571   4.572  18.074  0.00  0.00    +0.000 A 
ATOM      6  C   UNL     1       0.672   3.501  18.192  0.00  0.00    +0.000 A 
ATOM      7  C   UNL     1       1.074   2.281  18.751  0.00  0.00    +0.000 A 
ATOM      8  C   UNL     1       2.379   2.121  19.205  0.00  0.00    +0.000 A 
ATOM      9  C   UNL     1       3.240   3.200  19.080  0.00  0.00    +0.000 A 
ATOM     10  C   UNL     1       4.633   3.258  19.489  0.00  0.00    +0.000 C 
ATOM     11  O   UNL     1       5.215   2.320  20.017  0.00  0.00    +0.000 OA
ATOM     12  C   UNL     1       5.233   4.597  19.126  0.00  0.00    +0.000 C 
ENDROOT
BRANCH  12  13
ATOM     13  C   UNL     1       6.435   4.468  18.187  0.00  0.00    +0.000 C 
ATOM     14  N   UNL     1       6.171   4.022  16.922  0.00  0.00    +0.000 N 
ATOM     15  O   UNL     1       7.603   4.650  18.526  0.00  0.00    +0.000 OA
ATOM     16  H   UNL     1       5.220   3.933  16.567  0.00  0.00    +0.000 HD
ATOM     17  H   UNL     1       6.938   3.945  16.268  0.00  0.00    +0.000 HD
ENDBRANCH  12  13
TORSDOF 1
ENDMDL
MODEL 9
REMARK VINA RESULT:      -6.6      1.342      3.578
REMARK  Name = 
REMARK  2 active torsions:
REMARK  status: ('A' for Active; 'I' for Inactive)
REMARK    1  A    between atoms: C_1  and  C_2
REMARK    2  A    between atoms: C_12  and  C_13
REMARK                            x       y       z     vdW  Elec       q    Type
REMARK                         _______ _______ _______ _____ _____    ______ ____
ROOT
ATOM      1  C   UNL     1       3.234   2.286  17.894  0.00  0.00    +0.000 C 
ATOM      2  C   UNL     1       4.459   3.017  17.456  0.00  0.00    +0.000 C 
ATOM      3  C   UNL     1       4.663   4.347  17.384  0.00  0.00    +0.000 C 
ATOM      4  C   UNL     1       3.712   5.433  17.669  0.00  0.00    +0.000 A 
ATOM      5  C   UNL     1       2.411   5.426  18.155  0.00  0.00    +0.000 A 
ATOM      6  C   UNL     1       1.731   6.641  18.326  0.00  0.00    +0.000 A 
ATOM      7  C   UNL     1       2.346   7.861  18.018  0.00  0.00    +0.000 A 
ATOM      8  C   UNL     1       3.648   7.879  17.528  0.00  0.00    +0.000 A 
ATOM      9  C   UNL     1       4.289   6.661  17.362  0.00  0.00    +0.000 A 
ATOM     10  C   UNL     1       5.636   6.444  16.864  0.00  0.00    +0.000 C 
ATOM     11  O   UNL     1       6.375   7.354  16.513  0.00  0.00    +0.000 OA
ATOM     12  C   UNL     1       5.977   4.971  16.892  0.00  0.00    +0.000 C 
ENDROOT
BRANCH  12  13
ATOM     13  C   UNL     1       7.202   4.668  17.759  0.00  0.00    +0.000 C 
ATOM     14  N   UNL     1       7.166   5.134  19.043  0.00  0.00    +0.000 N 
ATOM     15  O   UNL     1       8.225   4.122  17.348  0.00  0.00    +0.000 OA
ATOM     16  H   UNL     1       6.318   5.520  19.456  0.00  0.00    +0.000 HD
ATOM     17  H   UNL     1       7.949   4.934  19.651  0.00  0.00    +0.000 HD
ENDBRANCH  12  13
TORSDOF 1
ENDMDL
