MODEL 1
REMARK VINA RESULT:      -7.9      0.000      0.000
REMARK  Name = 
REMARK  5 active torsions:
REMARK  status: ('A' for Active; 'I' for Inactive)
REMARK    1  A    between atoms: C_1  and  C_2
REMARK    2  A    between atoms: C_4  and  C_5
REMARK    3  A    between atoms: N_6  and  C_7
REMARK    4  A    between atoms: C_7  and  C_8
REMARK    5  A    between atoms: C_11  and  C_12
REMARK                            x       y       z     vdW  Elec       q    Type
REMARK                         _______ _______ _______ _____ _____    ______ ____
ROOT
ATOM      1  C   UNL     1       5.811   5.137  16.122  0.00  0.00    +0.000 A 
ATOM      2  C   UNL     1       5.291   6.369  16.459  0.00  0.00    +0.000 A 
ATOM      3  C   UNL     1       4.060   6.123  17.101  0.00  0.00    +0.000 A 
ATOM      4  C   UNL     1       3.875   4.752  17.115  0.00  0.00    +0.000 A 
ATOM      5  O   UNL     1       4.961   4.145  16.530  0.00  0.00    +0.000 OA
ENDROOT
BRANCH   4   6
ATOM      6  C   UNL     1       2.716   3.992  17.555  0.00  0.00    +0.000 C 
ATOM      7  O   UNL     1       1.610   4.190  17.037  0.00  0.00    +0.000 OA
ATOM      8  N   UNL     1       2.850   3.047  18.586  0.00  0.00    +0.000 N 
ATOM      9  C   UNL     1       1.712   2.171  18.854  0.00  0.00    +0.000 C 
ATOM     10  C   UNL     1       0.756   2.756  19.892  0.00  0.00    +0.000 C 
ATOM     11  C   UNL     1       1.253   2.635  21.330  0.00  0.00    +0.000 C 
ATOM     12  C   UNL     1       2.616   3.273  21.593  0.00  0.00    +0.000 C 
ATOM     13  C   UNL     1       3.761   2.537  20.899  0.00  0.00    +0.000 C 
ATOM     14  C   UNL     1       4.015   3.002  19.464  0.00  0.00    +0.000 C 
ENDBRANCH   4   6
BRANCH   1  15
ATOM     15  C   UNL     1       7.077   4.733  15.454  0.00  0.00    +0.000 C 
BRANCH  15  21
ATOM     16  C   UNL     1       4.943   2.712  11.592  0.00  0.00    +0.000 C 
ATOM     17  C   UNL     1       5.899   3.547  12.359  0.00  0.00    +0.000 A 
ATOM     18  C   UNL     1       6.958   4.332  11.856  0.00  0.00    +0.000 A 
ATOM     19  C   UNL     1       7.556   4.896  12.963  0.00  0.00    +0.000 A 
ATOM     20  C   UNL     1       8.716   5.812  13.068  0.00  0.00    +0.000 C 
ATOM     21  N   UNL     1       6.861   4.413  14.046  0.00  0.00    +0.000 N 
ATOM     22  N   UNL     1       5.820   3.622  13.694  0.00  0.00    +0.000 NA
ENDBRANCH  15  21
ENDBRANCH   1  15
TORSDOF 3
ENDMDL
MODEL 2
REMARK VINA RESULT:      -7.8      3.499      4.703
REMARK  Name = 
REMARK  5 active torsions:
REMARK  status: ('A' for Active; 'I' for Inactive)
REMARK    1  A    between atoms: C_1  and  C_2
REMARK    2  A    between atoms: C_4  and  C_5
REMARK    3  A    between atoms: N_6  and  C_7
REMARK    4  A    between atoms: C_7  and  C_8
REMARK    5  A    between atoms: C_11  and  C_12
REMARK                            x       y       z     vdW  Elec       q    Type
REMARK                         _______ _______ _______ _____ _____    ______ ____
ROOT
ATOM      1  C   UNL     1       4.170   4.438  18.142  0.00  0.00    +0.000 A 
ATOM      2  C   UNL     1       2.989   4.034  17.558  0.00  0.00    +0.000 A 
ATOM      3  C   UNL     1       1.969   4.825  18.127  0.00  0.00    +0.000 A 
ATOM      4  C   UNL     1       2.571   5.667  19.044  0.00  0.00    +0.000 A 
ATOM      5  O   UNL     1       3.927   5.443  19.040  0.00  0.00    +0.000 OA
ENDROOT
BRANCH   4   6
ATOM      6  C   UNL     1       1.949   6.594  19.977  0.00  0.00    +0.000 C 
ATOM      7  O   UNL     1       1.395   6.169  20.997  0.00  0.00    +0.000 OA
ATOM      8  N   UNL     1       1.961   7.972  19.705  0.00  0.00    +0.000 N 
ATOM      9  C   UNL     1       1.507   8.875  20.760  0.00  0.00    +0.000 C 
ATOM     10  C   UNL     1       0.007   9.154  20.685  0.00  0.00    +0.000 C 
ATOM     11  C   UNL     1      -0.385  10.149  19.596  0.00  0.00    +0.000 C 
ATOM     12  C   UNL     1       0.052   9.760  18.185  0.00  0.00    +0.000 C 
ATOM     13  C   UNL     1       1.568   9.807  17.997  0.00  0.00    +0.000 C 
ATOM     14  C   UNL     1       2.280   8.511  18.387  0.00  0.00    +0.000 C 
ENDBRANCH   4   6
BRANCH   1  15
ATOM     15  C   UNL     1       5.581   4.008  17.951  0.00  0.00    +0.000 C 
BRANCH  15  21
ATOM     16  C   UNL     1       6.220   3.603  13.158  0.00  0.00    +0.000 C 
ATOM     17  C   UNL     1       6.320   4.186  14.517  0.00  0.00    +0.000 A 
ATOM     18  C   UNL     1       6.993   5.364  14.905  0.00  0.00    +0.000 A 
ATOM     19  C   UNL     1       6.806   5.464  16.267  0.00  0.00    +0.000 A 
ATOM     20  C   UNL     1       7.276   6.487  17.230  0.00  0.00    +0.000 C 
ATOM     21  N   UNL     1       6.072   4.358  16.622  0.00  0.00    +0.000 N 
ATOM     22  N   UNL     1       5.731   3.589  15.561  0.00  0.00    +0.000 NA
ENDBRANCH  15  21
ENDBRANCH   1  15
TORSDOF 3
ENDMDL
MODEL 3
REMARK VINA RESULT:      -7.5      1.359      1.961
REMARK  Name = 
REMARK  5 active torsions:
REMARK  status: ('A' for Active; 'I' for Inactive)
REMARK    1  A    between atoms: C_1  and  C_2
REMARK    2  A    between atoms: C_4  and  C_5
REMARK    3  A    between atoms: N_6  and  C_7
REMARK    4  A    between atoms: C_7  and  C_8
REMARK    5  A    between atoms: C_11  and  C_12
REMARK                            x       y       z     vdW  Elec       q    Type
REMARK                         _______ _______ _______ _____ _____    ______ ____
ROOT
ATOM      1  C   UNL     1       6.072   5.276  16.034  0.00  0.00    +0.000 A 
ATOM      2  C   UNL     1       5.273   6.322  15.628  0.00  0.00    +0.000 A 
ATOM      3  C   UNL     1       4.414   6.614  16.708  0.00  0.00    +0.000 A 
ATOM      4  C   UNL     1       4.718   5.722  17.721  0.00  0.00    +0.000 A 
ATOM      5  O   UNL     1       5.750   4.912  17.314  0.00  0.00    +0.000 OA
ENDROOT
BRANCH   4   6
ATOM      6  C   UNL     1       4.046   5.527  18.996  0.00  0.00    +0.000 C 
ATOM      7  O   UNL     1       4.644   5.755  20.054  0.00  0.00    +0.000 OA
ATOM      8  N   UNL     1       2.722   5.057  19.023  0.00  0.00    +0.000 N 
ATOM      9  C   UNL     1       2.025   5.069  20.307  0.00  0.00    +0.000 C 
ATOM     10  C   UNL     1       2.210   3.766  21.085  0.00  0.00    +0.000 C 
ATOM     11  C   UNL     1       1.353   2.612  20.573  0.00  0.00    +0.000 C 
ATOM     12  C   UNL     1       1.557   2.266  19.098  0.00  0.00    +0.000 C 
ATOM     13  C   UNL     1       1.049   3.357  18.156  0.00  0.00    +0.000 C 
ATOM     14  C   UNL     1       2.079   4.448  17.863  0.00  0.00    +0.000 C 
ENDBRANCH   4   6
BRANCH   1  15
ATOM     15  C   UNL     1       7.176   4.539  15.362  0.00  0.00    +0.000 C 
BRANCH  15  21
ATOM     16  C   UNL     1       4.859   2.688  11.521  0.00  0.00    +0.000 C 
ATOM     17  C   UNL     1       5.838   3.505  12.279  0.00  0.00    +0.000 A 
ATOM     18  C   UNL     1       6.841   4.351  11.761  0.00  0.00    +0.000 A 
ATOM     19  C   UNL     1       7.492   4.866  12.862  0.00  0.00    +0.000 A 
ATOM     20  C   UNL     1       8.631   5.810  12.952  0.00  0.00    +0.000 C 
ATOM     21  N   UNL     1       6.881   4.298  13.954  0.00  0.00    +0.000 N 
ATOM     22  N   UNL     1       5.842   3.498  13.618  0.00  0.00    +0.000 NA
ENDBRANCH  15  21
ENDBRANCH   1  15
TORSDOF 3
ENDMDL
MODEL 4
REMARK VINA RESULT:      -7.5      3.497      5.275
REMARK  Name = 
REMARK  5 active torsions:
REMARK  status: ('A' for Active; 'I' for Inactive)
REMARK    1  A    between atoms: C_1  and  C_2
REMARK    2  A    between atoms: C_4  and  C_5
REMARK    3  A    between atoms: N_6  and  C_7
REMARK    4  A    between atoms: C_7  and  C_8
REMARK    5  A    between atoms: C_11  and  C_12
REMARK                            x       y       z     vdW  Elec       q    Type
REMARK                         _______ _______ _______ _____ _____    ______ ____
ROOT
ATOM      1  C   UNL     1       3.514   3.853  17.603  0.00  0.00    +0.000 A 
ATOM      2  C   UNL     1       2.230   3.408  17.377  0.00  0.00    +0.000 A 
ATOM      3  C   UNL     1       1.379   4.235  18.140  0.00  0.00    +0.000 A 
ATOM      4  C   UNL     1       2.183   5.140  18.808  0.00  0.00    +0.000 A 
ATOM      5  O   UNL     1       3.495   4.918  18.464  0.00  0.00    +0.000 OA
ENDROOT
BRANCH   4   6
ATOM      6  C   UNL     1       1.810   6.128  19.808  0.00  0.00    +0.000 C 
ATOM      7  O   UNL     1       1.274   5.770  20.864  0.00  0.00    +0.000 OA
ATOM      8  N   UNL     1       2.039   7.492  19.562  0.00  0.00    +0.000 N 
ATOM      9  C   UNL     1       1.836   8.423  20.670  0.00  0.00    +0.000 C 
ATOM     10  C   UNL     1       0.406   8.959  20.728  0.00  0.00    +0.000 C 
ATOM     11  C   UNL     1       0.107  10.042  19.695  0.00  0.00    +0.000 C 
ATOM     12  C   UNL     1       0.355   9.631  18.244  0.00  0.00    +0.000 C 
ATOM     13  C   UNL     1       1.836   9.423  17.929  0.00  0.00    +0.000 C 
ATOM     14  C   UNL     1       2.340   8.012  18.232  0.00  0.00    +0.000 C 
ENDBRANCH   4   6
BRANCH   1  15
ATOM     15  C   UNL     1       4.834   3.412  17.077  0.00  0.00    +0.000 C 
BRANCH  15  21
ATOM     16  C   UNL     1       8.266   5.914  19.424  0.00  0.00    +0.000 C 
ATOM     17  C   UNL     1       7.382   5.500  18.308  0.00  0.00    +0.000 A 
ATOM     18  C   UNL     1       7.308   6.056  17.013  0.00  0.00    +0.000 A 
ATOM     19  C   UNL     1       6.329   5.339  16.360  0.00  0.00    +0.000 A 
ATOM     20  C   UNL     1       5.805   5.461  14.979  0.00  0.00    +0.000 C 
ATOM     21  N   UNL     1       5.859   4.431  17.279  0.00  0.00    +0.000 N 
ATOM     22  N   UNL     1       6.520   4.488  18.460  0.00  0.00    +0.000 NA
ENDBRANCH  15  21
ENDBRANCH   1  15
TORSDOF 3
ENDMDL
MODEL 5
REMARK VINA RESULT:      -7.5      6.251      8.973
REMARK  Name = 
REMARK  5 active torsions:
REMARK  status: ('A' for Active; 'I' for Inactive)
REMARK    1  A    between atoms: C_1  and  C_2
REMARK    2  A    between atoms: C_4  and  C_5
REMARK    3  A    between atoms: N_6  and  C_7
REMARK    4  A    between atoms: C_7  and  C_8
REMARK    5  A    between atoms: C_11  and  C_12
REMARK                            x       y       z     vdW  Elec       q    Type
REMARK                         _______ _______ _______ _____ _____    ______ ____
ROOT
ATOM      1  C   UNL     1       7.977   7.595  18.289  0.00  0.00    +0.000 A 
ATOM      2  C   UNL     1       7.472   8.534  17.416  0.00  0.00    +0.000 A 
ATOM      3  C   UNL     1       8.042   9.771  17.784  0.00  0.00    +0.000 A 
ATOM      4  C   UNL     1       8.858   9.535  18.874  0.00  0.00    +0.000 A 
ATOM      5  O   UNL     1       8.834   8.193  19.174  0.00  0.00    +0.000 OA
ENDROOT
BRANCH   4   6
ATOM      6  C   UNL     1       9.579  10.492  19.699  0.00  0.00    +0.000 C 
ATOM      7  O   UNL     1       9.279  10.634  20.890  0.00  0.00    +0.000 OA
ATOM      8  N   UNL     1      10.602  11.270  19.133  0.00  0.00    +0.000 N 
ATOM      9  C   UNL     1      11.427  12.066  20.039  0.00  0.00    +0.000 C 
ATOM     10  C   UNL     1      10.864  13.468  20.263  0.00  0.00    +0.000 C 
ATOM     11  C   UNL     1      11.117  14.431  19.105  0.00  0.00    +0.000 C 
ATOM     12  C   UNL     1      10.581  13.962  17.753  0.00  0.00    +0.000 C 
ATOM     13  C   UNL     1      11.331  12.749  17.204  0.00  0.00    +0.000 C 
ATOM     14  C   UNL     1      10.779  11.409  17.691  0.00  0.00    +0.000 C 
ENDBRANCH   4   6
BRANCH   1  15
ATOM     15  C   UNL     1       7.778   6.126  18.405  0.00  0.00    +0.000 C 
BRANCH  15  21
ATOM     16  C   UNL     1       6.620   4.376  14.030  0.00  0.00    +0.000 C 
ATOM     17  C   UNL     1       6.429   4.821  15.431  0.00  0.00    +0.000 A 
ATOM     18  C   UNL     1       5.226   4.863  16.168  0.00  0.00    +0.000 A 
ATOM     19  C   UNL     1       5.569   5.364  17.405  0.00  0.00    +0.000 A 
ATOM     20  C   UNL     1       4.734   5.637  18.598  0.00  0.00    +0.000 C 
ATOM     21  N   UNL     1       6.919   5.616  17.342  0.00  0.00    +0.000 N 
ATOM     22  N   UNL     1       7.467   5.250  16.159  0.00  0.00    +0.000 NA
ENDBRANCH  15  21
ENDBRANCH   1  15
TORSDOF 3
ENDMDL
MODEL 6
REMARK VINA RESULT:      -7.5      1.378      2.613
REMARK  Name = 
REMARK  5 active torsions:
REMARK  status: ('A' for Active; 'I' for Inactive)
REMARK    1  A    between atoms: C_1  and  C_2
REMARK    2  A    between atoms: C_4  and  C_5
REMARK    3  A    between atoms: N_6  and  C_7
REMARK    4  A    between atoms: C_7  and  C_8
REMARK    5  A    between atoms: C_11  and  C_12
REMARK                            x       y       z     vdW  Elec       q    Type
REMARK                         _______ _______ _______ _____ _____    ______ ____
ROOT
ATOM      1  C   UNL     1       5.364   4.631  15.844  0.00  0.00    +0.000 A 
ATOM      2  C   UNL     1       5.122   5.972  15.639  0.00  0.00    +0.000 A 
ATOM      3  C   UNL     1       4.584   6.472  16.843  0.00  0.00    +0.000 A 
ATOM      4  C   UNL     1       4.509   5.410  17.726  0.00  0.00    +0.000 A 
ATOM      5  O   UNL     1       5.006   4.282  17.119  0.00  0.00    +0.000 OA
ENDROOT
BRANCH   4   6
ATOM      6  C   UNL     1       3.923   5.370  19.057  0.00  0.00    +0.000 C 
ATOM      7  O   UNL     1       4.597   5.692  20.042  0.00  0.00    +0.000 OA
ATOM      8  N   UNL     1       2.594   4.944  19.222  0.00  0.00    +0.000 N 
ATOM      9  C   UNL     1       1.988   5.111  20.541  0.00  0.00    +0.000 C 
ATOM     10  C   UNL     1       2.198   3.893  21.439  0.00  0.00    +0.000 C 
ATOM     11  C   UNL     1       1.283   2.716  21.112  0.00  0.00    +0.000 C 
ATOM     12  C   UNL     1       1.378   2.211  19.673  0.00  0.00    +0.000 C 
ATOM     13  C   UNL     1       0.830   3.210  18.654  0.00  0.00    +0.000 C 
ATOM     14  C   UNL     1       1.860   4.235  18.178  0.00  0.00    +0.000 C 
ENDBRANCH   4   6
BRANCH   1  15
ATOM     15  C   UNL     1       5.939   3.572  14.972  0.00  0.00    +0.000 C 
BRANCH  15  21
ATOM     16  C   UNL     1       9.102   6.341  12.550  0.00  0.00    +0.000 C 
ATOM     17  C   UNL     1       8.033   5.337  12.766  0.00  0.00    +0.000 A 
ATOM     18  C   UNL     1       7.331   4.598  11.791  0.00  0.00    +0.000 A 
ATOM     19  C   UNL     1       6.435   3.820  12.492  0.00  0.00    +0.000 A 
ATOM     20  C   UNL     1       5.430   2.841  12.015  0.00  0.00    +0.000 C 
ATOM     21  N   UNL     1       6.621   4.142  13.815  0.00  0.00    +0.000 N 
ATOM     22  N   UNL     1       7.622   5.035  14.004  0.00  0.00    +0.000 NA
ENDBRANCH  15  21
ENDBRANCH   1  15
TORSDOF 3
ENDMDL
MODEL 7
REMARK VINA RESULT:      -7.3      2.028      3.090
REMARK  Name = 
REMARK  5 active torsions:
REMARK  status: ('A' for Active; 'I' for Inactive)
REMARK    1  A    between atoms: C_1  and  C_2
REMARK    2  A    between atoms: C_4  and  C_5
REMARK    3  A    between atoms: N_6  and  C_7
REMARK    4  A    between atoms: C_7  and  C_8
REMARK    5  A    between atoms: C_11  and  C_12
REMARK                            x       y       z     vdW  Elec       q    Type
REMARK                         _______ _______ _______ _____ _____    ______ ____
ROOT
ATOM      1  C   UNL     1       4.451   7.378  17.556  0.00  0.00    +0.000 A 
ATOM      2  C   UNL     1       3.375   8.224  17.390  0.00  0.00    +0.000 A 
ATOM      3  C   UNL     1       2.330   7.703  18.182  0.00  0.00    +0.000 A 
ATOM      4  C   UNL     1       2.810   6.555  18.786  0.00  0.00    +0.000 A 
ATOM      5  O   UNL     1       4.120   6.365  18.417  0.00  0.00    +0.000 OA
ENDROOT
BRANCH   4   6
ATOM      6  C   UNL     1       2.096   5.588  19.604  0.00  0.00    +0.000 C 
ATOM      7  O   UNL     1       1.864   5.834  20.794  0.00  0.00    +0.000 OA
ATOM      8  N   UNL     1       1.689   4.365  19.046  0.00  0.00    +0.000 N 
ATOM      9  C   UNL     1       0.805   3.518  19.842  0.00  0.00    +0.000 C 
ATOM     10  C   UNL     1       1.575   2.539  20.728  0.00  0.00    +0.000 C 
ATOM     11  C   UNL     1       2.138   1.335  19.978  0.00  0.00    +0.000 C 
ATOM     12  C   UNL     1       3.063   1.680  18.813  0.00  0.00    +0.000 C 
ATOM     13  C   UNL     1       2.331   2.346  17.648  0.00  0.00    +0.000 C 
ATOM     14  C   UNL     1       2.215   3.865  17.779  0.00  0.00    +0.000 C 
ENDBRANCH   4   6
BRANCH   1  15
ATOM     15  C   UNL     1       5.835   7.398  17.010  0.00  0.00    +0.000 C 
BRANCH  15  21
ATOM     16  C   UNL     1       5.997   3.920  13.630  0.00  0.00    +0.000 C 
ATOM     17  C   UNL     1       6.281   4.613  14.910  0.00  0.00    +0.000 A 
ATOM     18  C   UNL     1       7.062   4.147  15.989  0.00  0.00    +0.000 A 
ATOM     19  C   UNL     1       7.004   5.142  16.941  0.00  0.00    +0.000 A 
ATOM     20  C   UNL     1       7.623   5.226  18.285  0.00  0.00    +0.000 C 
ATOM     21  N   UNL     1       6.192   6.116  16.411  0.00  0.00    +0.000 N 
ATOM     22  N   UNL     1       5.777   5.829  15.155  0.00  0.00    +0.000 NA
ENDBRANCH  15  21
ENDBRANCH   1  15
TORSDOF 3
ENDMDL
MODEL 8
REMARK VINA RESULT:      -7.3      5.169      7.794
REMARK  Name = 
REMARK  5 active torsions:
REMARK  status: ('A' for Active; 'I' for Inactive)
REMARK    1  A    between atoms: C_1  and  C_2
REMARK    2  A    between atoms: C_4  and  C_5
REMARK    3  A    between atoms: N_6  and  C_7
REMARK    4  A    between atoms: C_7  and  C_8
REMARK    5  A    between atoms: C_11  and  C_12
REMARK                            x       y       z     vdW  Elec       q    Type
REMARK                         _______ _______ _______ _____ _____    ______ ____
ROOT
ATOM      1  C   UNL     1       1.484   8.903  19.268  0.00  0.00    +0.000 A 
ATOM      2  C   UNL     1       1.851   9.110  17.955  0.00  0.00    +0.000 A 
ATOM      3  C   UNL     1       2.625   7.994  17.575  0.00  0.00    +0.000 A 
ATOM      4  C   UNL     1       2.708   7.161  18.676  0.00  0.00    +0.000 A 
ATOM      5  O   UNL     1       1.990   7.711  19.712  0.00  0.00    +0.000 OA
ENDROOT
BRANCH   4   6
ATOM      6  C   UNL     1       3.484   5.943  18.842  0.00  0.00    +0.000 C 
ATOM      7  O   UNL     1       4.619   5.859  18.357  0.00  0.00    +0.000 OA
ATOM      8  N   UNL     1       2.933   4.853  19.536  0.00  0.00    +0.000 N 
ATOM      9  C   UNL     1       3.818   3.733  19.851  0.00  0.00    +0.000 C 
ATOM     10  C   UNL     1       3.830   2.671  18.753  0.00  0.00    +0.000 C 
ATOM     11  C   UNL     1       2.601   1.766  18.752  0.00  0.00    +0.000 C 
ATOM     12  C   UNL     1       1.266   2.498  18.629  0.00  0.00    +0.000 C 
ATOM     13  C   UNL     1       0.928   3.333  19.864  0.00  0.00    +0.000 C 
ATOM     14  C   UNL     1       1.508   4.747  19.831  0.00  0.00    +0.000 C 
ENDBRANCH   4   6
BRANCH   1  15
ATOM     15  C   UNL     1       0.658   9.699  20.214  0.00  0.00    +0.000 C 
BRANCH  15  21
ATOM     16  C   UNL     1      -3.094  11.450  17.684  0.00  0.00    +0.000 C 
ATOM     17  C   UNL     1      -1.815  11.454  18.433  0.00  0.00    +0.000 A 
ATOM     18  C   UNL     1      -0.964  12.552  18.684  0.00  0.00    +0.000 A 
ATOM     19  C   UNL     1       0.097  12.040  19.399  0.00  0.00    +0.000 A 
ATOM     20  C   UNL     1       1.302  12.708  19.944  0.00  0.00    +0.000 C 
ATOM     21  N   UNL     1      -0.150  10.693  19.515  0.00  0.00    +0.000 N 
ATOM     22  N   UNL     1      -1.333  10.326  18.968  0.00  0.00    +0.000 NA
ENDBRANCH  15  21
ENDBRANCH   1  15
TORSDOF 3
ENDMDL
MODEL 9
REMARK VINA RESULT:      -7.3      4.024      5.753
REMARK  Name = 
REMARK  5 active torsions:
REMARK  status: ('A' for Active; 'I' for Inactive)
REMARK    1  A    between atoms: C_1  and  C_2
REMARK    2  A    between atoms: C_4  and  C_5
REMARK    3  A    between atoms: N_6  and  C_7
REMARK    4  A    between atoms: C_7  and  C_8
REMARK    5  A    between atoms: C_11  and  C_12
REMARK                            x       y       z     vdW  Elec       q    Type
REMARK                         _______ _______ _______ _____ _____    ______ ____
ROOT
ATOM      1  C   UNL     1       4.329   5.675  17.099  0.00  0.00    +0.000 A 
ATOM      2  C   UNL     1       3.501   4.573  17.147  0.00  0.00    +0.000 A 
ATOM      3  C   UNL     1       2.512   4.857  18.111  0.00  0.00    +0.000 A 
ATOM      4  C   UNL     1       2.787   6.114  18.618  0.00  0.00    +0.000 A 
ATOM      5  O   UNL     1       3.893   6.625  17.983  0.00  0.00    +0.000 OA
ENDROOT
BRANCH   4   6
ATOM      6  C   UNL     1       2.138   6.818  19.714  0.00  0.00    +0.000 C 
ATOM      7  O   UNL     1       1.727   6.191  20.697  0.00  0.00    +0.000 OA
ATOM      8  N   UNL     1       1.961   8.210  19.642  0.00  0.00    +0.000 N 
ATOM      9  C   UNL     1       1.491   8.895  20.843  0.00  0.00    +0.000 C 
ATOM     10  C   UNL     1      -0.033   8.983  20.908  0.00  0.00    +0.000 C 
ATOM     11  C   UNL     1      -0.631  10.056  20.001  0.00  0.00    +0.000 C 
ATOM     12  C   UNL     1      -0.270   9.920  18.523  0.00  0.00    +0.000 C 
ATOM     13  C   UNL     1       1.209  10.189  18.244  0.00  0.00    +0.000 C 
ATOM     14  C   UNL     1       2.101   8.957  18.396  0.00  0.00    +0.000 C 
ENDBRANCH   4   6
BRANCH   1  15
ATOM     15  C   UNL     1       5.527   5.992  16.277  0.00  0.00    +0.000 C 
BRANCH  15  21
ATOM     16  C   UNL     1       8.358   9.521  18.031  0.00  0.00    +0.000 C 
ATOM     17  C   UNL     1       7.797   8.159  17.865  0.00  0.00    +0.000 A 
ATOM     18  C   UNL     1       8.192   6.975  18.523  0.00  0.00    +0.000 A 
ATOM     19  C   UNL     1       7.383   5.982  18.013  0.00  0.00    +0.000 A 
ATOM     20  C   UNL     1       7.329   4.533  18.317  0.00  0.00    +0.000 C 
ATOM     21  N   UNL     1       6.583   6.599  17.081  0.00  0.00    +0.000 N 
ATOM     22  N   UNL     1       6.793   7.935  17.008  0.00  0.00    +0.000 NA
ENDBRANCH  15  21
ENDBRANCH   1  15
TORSDOF 3
ENDMDL
