MODEL 1
REMARK VINA RESULT:      -8.8      0.000      0.000
REMARK  Name = 
REMARK  3 active torsions:
REMARK  status: ('A' for Active; 'I' for Inactive)
REMARK    1  A    between atoms: C_1  and  C_2
REMARK    2  A    between atoms: C_6  and  C_7
REMARK    3  A    between atoms: C_7  and  N_8
REMARK                            x       y       z     vdW  Elec       q    Type
REMARK                         _______ _______ _______ _____ _____    ______ ____
ROOT
ATOM      1  N   UNL     1       5.829   4.659  15.133  0.00  0.00    +0.000 N 
ATOM      2  C   UNL     1       5.290   3.608  15.969  0.00  0.00    +0.000 C 
ATOM      3  C   UNL     1       4.187   3.846  16.982  0.00  0.00    +0.000 A 
ATOM      4  C   UNL     1       3.578   2.631  17.401  0.00  0.00    +0.000 A 
ATOM      5  C   UNL     1       2.542   2.581  18.326  0.00  0.00    +0.000 A 
ATOM      6  C   UNL     1       2.036   3.773  18.805  0.00  0.00    +0.000 A 
ATOM      7  C   UNL     1       2.603   4.995  18.416  0.00  0.00    +0.000 A 
ATOM      8  C   UNL     1       3.753   5.052  17.572  0.00  0.00    +0.000 A 
ATOM      9  C   UNL     1       4.491   6.398  17.470  0.00  0.00    +0.000 C 
ATOM     10  C   UNL     1       3.586   7.598  17.711  0.00  0.00    +0.000 C 
ATOM     11  C   UNL     1       2.361   7.496  18.226  0.00  0.00    +0.000 C 
ATOM     12  C   UNL     1       1.911   6.248  18.903  0.00  0.00    +0.000 C 
ATOM     13  C   UNL     1       5.086   6.696  16.107  0.00  0.00    +0.000 C 
ATOM     14  C   UNL     1       6.223   5.807  15.785  0.00  0.00    +0.000 C 
ATOM     15  O   UNL     1       7.383   6.166  15.970  0.00  0.00    +0.000 OA
ENDROOT
BRANCH   1  16
ATOM     16  C   UNL     1       6.759   4.175  14.112  0.00  0.00    +0.000 C 
BRANCH  16  22
ATOM     17  C   UNL     1       6.197   0.340  11.024  0.00  0.00    +0.000 C 
ATOM     18  C   UNL     1       5.784   1.739  11.375  0.00  0.00    +0.000 A 
ATOM     19  C   UNL     1       4.539   2.245  10.990  0.00  0.00    +0.000 A 
ATOM     20  C   UNL     1       4.091   3.464  11.498  0.00  0.00    +0.000 A 
ATOM     21  C   UNL     1       4.855   4.149  12.444  0.00  0.00    +0.000 A 
ATOM     22  C   UNL     1       6.100   3.646  12.855  0.00  0.00    +0.000 A 
ATOM     23  C   UNL     1       6.583   2.474  12.259  0.00  0.00    +0.000 A 
ENDBRANCH  16  22
ENDBRANCH   1  16
TORSDOF 2
ENDMDL
MODEL 2
REMARK VINA RESULT:      -8.2      0.424      1.441
REMARK  Name = 
REMARK  3 active torsions:
REMARK  status: ('A' for Active; 'I' for Inactive)
REMARK    1  A    between atoms: C_1  and  C_2
REMARK    2  A    between atoms: C_6  and  C_7
REMARK    3  A    between atoms: C_7  and  N_8
REMARK                            x       y       z     vdW  Elec       q    Type
REMARK                         _______ _______ _______ _____ _____    ______ ____
ROOT
ATOM      1  N   UNL     1       5.695   4.652  14.997  0.00  0.00    +0.000 N 
ATOM      2  C   UNL     1       5.204   3.588  15.845  0.00  0.00    +0.000 C 
ATOM      3  C   UNL     1       4.174   3.813  16.936  0.00  0.00    +0.000 A 
ATOM      4  C   UNL     1       3.584   2.594  17.371  0.00  0.00    +0.000 A 
ATOM      5  C   UNL     1       2.612   2.533  18.362  0.00  0.00    +0.000 A 
ATOM      6  C   UNL     1       2.151   3.718  18.899  0.00  0.00    +0.000 A 
ATOM      7  C   UNL     1       2.701   4.943  18.496  0.00  0.00    +0.000 A 
ATOM      8  C   UNL     1       3.792   5.009  17.578  0.00  0.00    +0.000 A 
ATOM      9  C   UNL     1       4.533   6.352  17.454  0.00  0.00    +0.000 C 
ATOM     10  C   UNL     1       3.657   7.553  17.780  0.00  0.00    +0.000 C 
ATOM     11  C   UNL     1       2.469   7.450  18.375  0.00  0.00    +0.000 C 
ATOM     12  C   UNL     1       2.055   6.192  19.055  0.00  0.00    +0.000 C 
ATOM     13  C   UNL     1       5.038   6.674  16.060  0.00  0.00    +0.000 C 
ATOM     14  C   UNL     1       6.142   5.783  15.643  0.00  0.00    +0.000 C 
ATOM     15  O   UNL     1       7.315   6.130  15.758  0.00  0.00    +0.000 OA
ENDROOT
BRANCH   1  16
ATOM     16  C   UNL     1       6.549   4.183  13.905  0.00  0.00    +0.000 C 
BRANCH  16  22
ATOM     17  C   UNL     1       3.151   3.969  10.305  0.00  0.00    +0.000 C 
ATOM     18  C   UNL     1       4.216   3.240  11.069  0.00  0.00    +0.000 A 
ATOM     19  C   UNL     1       4.892   2.150  10.510  0.00  0.00    +0.000 A 
ATOM     20  C   UNL     1       6.013   1.620  11.149  0.00  0.00    +0.000 A 
ATOM     21  C   UNL     1       6.502   2.217  12.311  0.00  0.00    +0.000 A 
ATOM     22  C   UNL     1       5.846   3.323  12.876  0.00  0.00    +0.000 A 
ATOM     23  C   UNL     1       4.664   3.780  12.281  0.00  0.00    +0.000 A 
ENDBRANCH  16  22
ENDBRANCH   1  16
TORSDOF 2
ENDMDL
MODEL 3
REMARK VINA RESULT:      -8.2      4.676      7.626
REMARK  Name = 
REMARK  3 active torsions:
REMARK  status: ('A' for Active; 'I' for Inactive)
REMARK    1  A    between atoms: C_1  and  C_2
REMARK    2  A    between atoms: C_6  and  C_7
REMARK    3  A    between atoms: C_7  and  N_8
REMARK                            x       y       z     vdW  Elec       q    Type
REMARK                         _______ _______ _______ _____ _____    ______ ____
ROOT
ATOM      1  N   UNL     1       1.782   7.837  19.445  0.00  0.00    +0.000 N 
ATOM      2  C   UNL     1       1.639   8.296  20.809  0.00  0.00    +0.000 C 
ATOM      3  C   UNL     1       0.629   9.350  21.221  0.00  0.00    +0.000 A 
ATOM      4  C   UNL     1       0.418   9.364  22.628  0.00  0.00    +0.000 A 
ATOM      5  C   UNL     1      -0.460  10.240  23.254  0.00  0.00    +0.000 A 
ATOM      6  C   UNL     1      -1.212  11.087  22.466  0.00  0.00    +0.000 A 
ATOM      7  C   UNL     1      -1.040  11.104  21.074  0.00  0.00    +0.000 A 
ATOM      8  C   UNL     1      -0.046  10.305  20.432  0.00  0.00    +0.000 A 
ATOM      9  C   UNL     1       0.288  10.632  18.967  0.00  0.00    +0.000 C 
ATOM     10  C   UNL     1      -0.875  11.263  18.213  0.00  0.00    +0.000 C 
ATOM     11  C   UNL     1      -1.964  11.737  18.816  0.00  0.00    +0.000 C 
ATOM     12  C   UNL     1      -1.986  11.982  20.285  0.00  0.00    +0.000 C 
ATOM     13  C   UNL     1       0.630   9.428  18.108  0.00  0.00    +0.000 C 
ATOM     14  C   UNL     1       1.922   8.817  18.488  0.00  0.00    +0.000 C 
ATOM     15  O   UNL     1       2.956   9.090  17.883  0.00  0.00    +0.000 OA
ENDROOT
BRANCH   1  16
ATOM     16  C   UNL     1       2.691   6.698  19.304  0.00  0.00    +0.000 C 
BRANCH  16  22
ATOM     17  C   UNL     1       2.527   2.070  17.541  0.00  0.00    +0.000 C 
ATOM     18  C   UNL     1       1.986   3.053  18.536  0.00  0.00    +0.000 A 
ATOM     19  C   UNL     1       1.415   2.626  19.740  0.00  0.00    +0.000 A 
ATOM     20  C   UNL     1       1.108   3.553  20.736  0.00  0.00    +0.000 A 
ATOM     21  C   UNL     1       1.432   4.899  20.561  0.00  0.00    +0.000 A 
ATOM     22  C   UNL     1       2.022   5.341  19.366  0.00  0.00    +0.000 A 
ATOM     23  C   UNL     1       2.229   4.417  18.335  0.00  0.00    +0.000 A 
ENDBRANCH  16  22
ENDBRANCH   1  16
TORSDOF 2
ENDMDL
MODEL 4
REMARK VINA RESULT:      -8.0      5.082      7.395
REMARK  Name = 
REMARK  3 active torsions:
REMARK  status: ('A' for Active; 'I' for Inactive)
REMARK    1  A    between atoms: C_1  and  C_2
REMARK    2  A    between atoms: C_6  and  C_7
REMARK    3  A    between atoms: C_7  and  N_8
REMARK                            x       y       z     vdW  Elec       q    Type
REMARK                         _______ _______ _______ _____ _____    ______ ____
ROOT
ATOM      1  N   UNL     1       2.145   7.480  19.034  0.00  0.00    +0.000 N 
ATOM      2  C   UNL     1       2.075   7.938  20.404  0.00  0.00    +0.000 C 
ATOM      3  C   UNL     1       1.040   8.936  20.887  0.00  0.00    +0.000 A 
ATOM      4  C   UNL     1       0.930   8.947  22.304  0.00  0.00    +0.000 A 
ATOM      5  C   UNL     1       0.052   9.775  22.991  0.00  0.00    +0.000 A 
ATOM      6  C   UNL     1      -0.802  10.574  22.258  0.00  0.00    +0.000 A 
ATOM      7  C   UNL     1      -0.732  10.593  20.857  0.00  0.00    +0.000 A 
ATOM      8  C   UNL     1       0.257   9.848  20.147  0.00  0.00    +0.000 A 
ATOM      9  C   UNL     1       0.465  10.184  18.660  0.00  0.00    +0.000 C 
ATOM     10  C   UNL     1      -0.783  10.745  17.992  0.00  0.00    +0.000 C 
ATOM     11  C   UNL     1      -1.850  11.161  18.672  0.00  0.00    +0.000 C 
ATOM     12  C   UNL     1      -1.780  11.412  20.138  0.00  0.00    +0.000 C 
ATOM     13  C   UNL     1       0.811   8.997  17.781  0.00  0.00    +0.000 C 
ATOM     14  C   UNL     1       2.160   8.461  18.067  0.00  0.00    +0.000 C 
ATOM     15  O   UNL     1       3.130   8.788  17.389  0.00  0.00    +0.000 OA
ENDROOT
BRANCH   1  16
ATOM     16  C   UNL     1       3.104   6.393  18.829  0.00  0.00    +0.000 C 
BRANCH  16  22
ATOM     17  C   UNL     1       1.574   2.758  21.828  0.00  0.00    +0.000 C 
ATOM     18  C   UNL     1       1.714   3.244  20.416  0.00  0.00    +0.000 A 
ATOM     19  C   UNL     1       0.872   2.776  19.402  0.00  0.00    +0.000 A 
ATOM     20  C   UNL     1       0.880   3.386  18.148  0.00  0.00    +0.000 A 
ATOM     21  C   UNL     1       1.679   4.508  17.923  0.00  0.00    +0.000 A 
ATOM     22  C   UNL     1       2.517   5.001  18.936  0.00  0.00    +0.000 A 
ATOM     23  C   UNL     1       2.576   4.316  20.155  0.00  0.00    +0.000 A 
ENDBRANCH  16  22
ENDBRANCH   1  16
TORSDOF 2
ENDMDL
MODEL 5
REMARK VINA RESULT:      -7.9      4.091      8.500
REMARK  Name = 
REMARK  3 active torsions:
REMARK  status: ('A' for Active; 'I' for Inactive)
REMARK    1  A    between atoms: C_1  and  C_2
REMARK    2  A    between atoms: C_6  and  C_7
REMARK    3  A    between atoms: C_7  and  N_8
REMARK                            x       y       z     vdW  Elec       q    Type
REMARK                         _______ _______ _______ _____ _____    ______ ____
ROOT
ATOM      1  N   UNL     1       1.692   8.314  19.092  0.00  0.00    +0.000 N 
ATOM      2  C   UNL     1       2.832   7.848  18.334  0.00  0.00    +0.000 C 
ATOM      3  C   UNL     1       3.202   6.381  18.221  0.00  0.00    +0.000 A 
ATOM      4  C   UNL     1       4.106   6.140  17.150  0.00  0.00    +0.000 A 
ATOM      5  C   UNL     1       4.596   4.877  16.840  0.00  0.00    +0.000 A 
ATOM      6  C   UNL     1       4.128   3.799  17.563  0.00  0.00    +0.000 A 
ATOM      7  C   UNL     1       3.232   3.989  18.625  0.00  0.00    +0.000 A 
ATOM      8  C   UNL     1       2.827   5.294  19.038  0.00  0.00    +0.000 A 
ATOM      9  C   UNL     1       2.118   5.417  20.398  0.00  0.00    +0.000 C 
ATOM     10  C   UNL     1       1.367   4.155  20.800  0.00  0.00    +0.000 C 
ATOM     11  C   UNL     1       1.531   2.983  20.188  0.00  0.00    +0.000 C 
ATOM     12  C   UNL     1       2.689   2.741  19.284  0.00  0.00    +0.000 C 
ATOM     13  C   UNL     1       1.038   6.482  20.459  0.00  0.00    +0.000 C 
ATOM     14  C   UNL     1       1.595   7.850  20.386  0.00  0.00    +0.000 C 
ATOM     15  O   UNL     1       1.797   8.509  21.403  0.00  0.00    +0.000 OA
ENDROOT
BRANCH   1  16
ATOM     16  C   UNL     1       1.422   9.743  18.923  0.00  0.00    +0.000 C 
BRANCH  16  22
ATOM     17  C   UNL     1      -2.161  12.845  20.371  0.00  0.00    +0.000 C 
ATOM     18  C   UNL     1      -1.790  11.667  19.519  0.00  0.00    +0.000 A 
ATOM     19  C   UNL     1      -2.517  11.348  18.368  0.00  0.00    +0.000 A 
ATOM     20  C   UNL     1      -2.037  10.383  17.482  0.00  0.00    +0.000 A 
ATOM     21  C   UNL     1      -0.798   9.783  17.708  0.00  0.00    +0.000 A 
ATOM     22  C   UNL     1      -0.047  10.105  18.850  0.00  0.00    +0.000 A 
ATOM     23  C   UNL     1      -0.588  10.998  19.782  0.00  0.00    +0.000 A 
ENDBRANCH  16  22
ENDBRANCH   1  16
TORSDOF 2
ENDMDL
MODEL 6
REMARK VINA RESULT:      -7.8      1.025      1.808
REMARK  Name = 
REMARK  3 active torsions:
REMARK  status: ('A' for Active; 'I' for Inactive)
REMARK    1  A    between atoms: C_1  and  C_2
REMARK    2  A    between atoms: C_6  and  C_7
REMARK    3  A    between atoms: C_7  and  N_8
REMARK                            x       y       z     vdW  Elec       q    Type
REMARK                         _______ _______ _______ _____ _____    ______ ____
ROOT
ATOM      1  N   UNL     1       5.138   5.263  15.660  0.00  0.00    +0.000 N 
ATOM      2  C   UNL     1       5.056   3.929  16.213  0.00  0.00    +0.000 C 
ATOM      3  C   UNL     1       4.182   3.583  17.404  0.00  0.00    +0.000 A 
ATOM      4  C   UNL     1       3.978   2.181  17.527  0.00  0.00    +0.000 A 
ATOM      5  C   UNL     1       3.215   1.611  18.538  0.00  0.00    +0.000 A 
ATOM      6  C   UNL     1       2.568   2.451  19.421  0.00  0.00    +0.000 A 
ATOM      7  C   UNL     1       2.737   3.841  19.335  0.00  0.00    +0.000 A 
ATOM      8  C   UNL     1       3.625   4.430  18.386  0.00  0.00    +0.000 A 
ATOM      9  C   UNL     1       3.992   5.911  18.583  0.00  0.00    +0.000 C 
ATOM     10  C   UNL     1       2.912   6.705  19.304  0.00  0.00    +0.000 C 
ATOM     11  C   UNL     1       1.890   6.135  19.941  0.00  0.00    +0.000 C 
ATOM     12  C   UNL     1       1.902   4.684  20.273  0.00  0.00    +0.000 C 
ATOM     13  C   UNL     1       4.183   6.696  17.298  0.00  0.00    +0.000 C 
ATOM     14  C   UNL     1       5.392   6.275  16.559  0.00  0.00    +0.000 C 
ATOM     15  O   UNL     1       6.450   6.891  16.668  0.00  0.00    +0.000 OA
ENDROOT
BRANCH   1  16
ATOM     16  C   UNL     1       5.902   5.333  14.414  0.00  0.00    +0.000 C 
BRANCH  16  22
ATOM     17  C   UNL     1       3.271   3.308  10.736  0.00  0.00    +0.000 C 
ATOM     18  C   UNL     1       4.457   3.184  11.645  0.00  0.00    +0.000 A 
ATOM     19  C   UNL     1       5.572   2.420  11.282  0.00  0.00    +0.000 A 
ATOM     20  C   UNL     1       6.740   2.483  12.041  0.00  0.00    +0.000 A 
ATOM     21  C   UNL     1       6.823   3.359  13.124  0.00  0.00    +0.000 A 
ATOM     22  C   UNL     1       5.719   4.146  13.491  0.00  0.00    +0.000 A 
ATOM     23  C   UNL     1       4.520   3.996  12.784  0.00  0.00    +0.000 A 
ENDBRANCH  16  22
ENDBRANCH   1  16
TORSDOF 2
ENDMDL
MODEL 7
REMARK VINA RESULT:      -7.5      5.400      7.494
REMARK  Name = 
REMARK  3 active torsions:
REMARK  status: ('A' for Active; 'I' for Inactive)
REMARK    1  A    between atoms: C_1  and  C_2
REMARK    2  A    between atoms: C_6  and  C_7
REMARK    3  A    between atoms: C_7  and  N_8
REMARK                            x       y       z     vdW  Elec       q    Type
REMARK                         _______ _______ _______ _____ _____    ______ ____
ROOT
ATOM      1  N   UNL     1       1.745   8.071  18.674  0.00  0.00    +0.000 N 
ATOM      2  C   UNL     1       1.846   8.216  20.109  0.00  0.00    +0.000 C 
ATOM      3  C   UNL     1       0.930   9.120  20.912  0.00  0.00    +0.000 A 
ATOM      4  C   UNL     1       0.968   8.819  22.302  0.00  0.00    +0.000 A 
ATOM      5  C   UNL     1       0.219   9.507  23.248  0.00  0.00    +0.000 A 
ATOM      6  C   UNL     1      -0.655  10.481  22.808  0.00  0.00    +0.000 A 
ATOM      7  C   UNL     1      -0.729  10.807  21.446  0.00  0.00    +0.000 A 
ATOM      8  C   UNL     1       0.133  10.202  20.482  0.00  0.00    +0.000 A 
ATOM      9  C   UNL     1       0.206  10.852  19.090  0.00  0.00    +0.000 C 
ATOM     10  C   UNL     1      -1.067  11.594  18.706  0.00  0.00    +0.000 C 
ATOM     11  C   UNL     1      -2.030  11.888  19.578  0.00  0.00    +0.000 C 
ATOM     12  C   UNL     1      -1.793  11.805  21.046  0.00  0.00    +0.000 C 
ATOM     13  C   UNL     1       0.385   9.878  17.941  0.00  0.00    +0.000 C 
ATOM     14  C   UNL     1       1.720   9.241  17.948  0.00  0.00    +0.000 C 
ATOM     15  O   UNL     1       2.634   9.674  17.250  0.00  0.00    +0.000 OA
ENDROOT
BRANCH   1  16
ATOM     16  C   UNL     1       2.608   7.022  18.130  0.00  0.00    +0.000 C 
BRANCH  16  22
ATOM     17  C   UNL     1       0.699   2.494  18.764  0.00  0.00    +0.000 C 
ATOM     18  C   UNL     1       1.727   3.494  19.202  0.00  0.00    +0.000 A 
ATOM     19  C   UNL     1       2.918   3.089  19.814  0.00  0.00    +0.000 A 
ATOM     20  C   UNL     1       3.944   4.009  20.025  0.00  0.00    +0.000 A 
ATOM     21  C   UNL     1       3.812   5.320  19.566  0.00  0.00    +0.000 A 
ATOM     22  C   UNL     1       2.630   5.739  18.934  0.00  0.00    +0.000 A 
ATOM     23  C   UNL     1       1.568   4.832  18.822  0.00  0.00    +0.000 A 
ENDBRANCH  16  22
ENDBRANCH   1  16
TORSDOF 2
ENDMDL
MODEL 8
REMARK VINA RESULT:      -7.5      3.320      8.023
REMARK  Name = 
REMARK  3 active torsions:
REMARK  status: ('A' for Active; 'I' for Inactive)
REMARK    1  A    between atoms: C_1  and  C_2
REMARK    2  A    between atoms: C_6  and  C_7
REMARK    3  A    between atoms: C_7  and  N_8
REMARK                            x       y       z     vdW  Elec       q    Type
REMARK                         _______ _______ _______ _____ _____    ______ ____
ROOT
ATOM      1  N   UNL     1       2.375   8.018  18.156  0.00  0.00    +0.000 N 
ATOM      2  C   UNL     1       3.622   7.753  17.471  0.00  0.00    +0.000 C 
ATOM      3  C   UNL     1       4.098   6.351  17.140  0.00  0.00    +0.000 A 
ATOM      4  C   UNL     1       5.130   6.356  16.162  0.00  0.00    +0.000 A 
ATOM      5  C   UNL     1       5.734   5.197  15.690  0.00  0.00    +0.000 A 
ATOM      6  C   UNL     1       5.260   3.983  16.143  0.00  0.00    +0.000 A 
ATOM      7  C   UNL     1       4.240   3.930  17.104  0.00  0.00    +0.000 A 
ATOM      8  C   UNL     1       3.706   5.115  17.695  0.00  0.00    +0.000 A 
ATOM      9  C   UNL     1       2.842   4.949  18.957  0.00  0.00    +0.000 C 
ATOM     10  C   UNL     1       2.136   3.602  19.029  0.00  0.00    +0.000 C 
ATOM     11  C   UNL     1       2.444   2.575  18.239  0.00  0.00    +0.000 C 
ATOM     12  C   UNL     1       3.710   2.558  17.455  0.00  0.00    +0.000 C 
ATOM     13  C   UNL     1       1.695   5.935  19.077  0.00  0.00    +0.000 C 
ATOM     14  C   UNL     1       2.165   7.316  19.322  0.00  0.00    +0.000 C 
ATOM     15  O   UNL     1       2.208   7.780  20.459  0.00  0.00    +0.000 OA
ENDROOT
BRANCH   1  16
ATOM     16  C   UNL     1       2.032   9.440  18.218  0.00  0.00    +0.000 C 
BRANCH  16  22
ATOM     17  C   UNL     1      -1.323  12.220  20.576  0.00  0.00    +0.000 C 
ATOM     18  C   UNL     1      -1.077  11.135  19.570  0.00  0.00    +0.000 A 
ATOM     19  C   UNL     1      -1.998  10.870  18.551  0.00  0.00    +0.000 A 
ATOM     20  C   UNL     1      -1.660  10.005  17.510  0.00  0.00    +0.000 A 
ATOM     21  C   UNL     1      -0.378   9.457  17.447  0.00  0.00    +0.000 A 
ATOM     22  C   UNL     1       0.564   9.727  18.452  0.00  0.00    +0.000 A 
ATOM     23  C   UNL     1       0.177  10.513  19.544  0.00  0.00    +0.000 A 
ENDBRANCH  16  22
ENDBRANCH   1  16
TORSDOF 2
ENDMDL
MODEL 9
REMARK VINA RESULT:      -7.5      4.116      7.141
REMARK  Name = 
REMARK  3 active torsions:
REMARK  status: ('A' for Active; 'I' for Inactive)
REMARK    1  A    between atoms: C_1  and  C_2
REMARK    2  A    between atoms: C_6  and  C_7
REMARK    3  A    between atoms: C_7  and  N_8
REMARK                            x       y       z     vdW  Elec       q    Type
REMARK                         _______ _______ _______ _____ _____    ______ ____
ROOT
ATOM      1  N   UNL     1       1.749   7.720  19.742  0.00  0.00    +0.000 N 
ATOM      2  C   UNL     1       1.517   8.392  21.002  0.00  0.00    +0.000 C 
ATOM      3  C   UNL     1       0.476   9.482  21.174  0.00  0.00    +0.000 A 
ATOM      4  C   UNL     1       0.176   9.721  22.544  0.00  0.00    +0.000 A 
ATOM      5  C   UNL     1      -0.745  10.672  22.964  0.00  0.00    +0.000 A 
ATOM      6  C   UNL     1      -1.451  11.367  22.004  0.00  0.00    +0.000 A 
ATOM      7  C   UNL     1      -1.192  11.161  20.641  0.00  0.00    +0.000 A 
ATOM      8  C   UNL     1      -0.154  10.285  20.200  0.00  0.00    +0.000 A 
ATOM      9  C   UNL     1       0.270  10.376  18.724  0.00  0.00    +0.000 C 
ATOM     10  C   UNL     1      -0.847  10.856  17.808  0.00  0.00    +0.000 C 
ATOM     11  C   UNL     1      -1.975  11.404  18.258  0.00  0.00    +0.000 C 
ATOM     12  C   UNL     1      -2.092  11.883  19.663  0.00  0.00    +0.000 C 
ATOM     13  C   UNL     1       0.673   9.055  18.095  0.00  0.00    +0.000 C 
ATOM     14  C   UNL     1       1.942   8.535  18.648  0.00  0.00    +0.000 C 
ATOM     15  O   UNL     1       3.011   8.723  18.072  0.00  0.00    +0.000 OA
ENDROOT
BRANCH   1  16
ATOM     16  C   UNL     1       2.673   6.589  19.844  0.00  0.00    +0.000 C 
BRANCH  16  22
ATOM     17  C   UNL     1       4.852   3.984  16.236  0.00  0.00    +0.000 C 
ATOM     18  C   UNL     1       3.603   4.224  17.031  0.00  0.00    +0.000 A 
ATOM     19  C   UNL     1       2.641   3.221  17.188  0.00  0.00    +0.000 A 
ATOM     20  C   UNL     1       1.594   3.391  18.094  0.00  0.00    +0.000 A 
ATOM     21  C   UNL     1       1.543   4.533  18.895  0.00  0.00    +0.000 A 
ATOM     22  C   UNL     1       2.511   5.541  18.763  0.00  0.00    +0.000 A 
ATOM     23  C   UNL     1       3.496   5.404  17.777  0.00  0.00    +0.000 A 
ENDBRANCH  16  22
ENDBRANCH   1  16
TORSDOF 2
ENDMDL
