MODEL 1
REMARK VINA RESULT:      -7.1      0.000      0.000
REMARK  Name = 
REMARK  8 active torsions:
REMARK  status: ('A' for Active; 'I' for Inactive)
REMARK    1  A    between atoms: C_1  and  C_2
REMARK    2  A    between atoms: C_7  and  C_8
REMARK    3  A    between atoms: C_9  and  C_10
REMARK    4  A    between atoms: C_16  and  C_17
REMARK    5  A    between atoms: C_17  and  C_18
REMARK    6  A    between atoms: C_17  and  N_19
REMARK    7  A    between atoms: N_19  and  C_20
REMARK    8  A    between atoms: C_26  and  C_27
REMARK                            x       y       z     vdW  Elec       q    Type
REMARK                         _______ _______ _______ _____ _____    ______ ____
ROOT
ATOM      1  C   UNL     1      -4.038  13.132  20.905  0.00  0.00    +0.000 A 
ATOM      2  C   UNL     1      -2.665  13.544  21.015  0.00  0.00    +0.000 A 
ATOM      3  C   UNL     1      -1.760  12.965  20.078  0.00  0.00    +0.000 A 
ATOM      4  N   UNL     1      -2.176  12.269  18.981  0.00  0.00    +0.000 NA
ATOM      5  C   UNL     1      -3.463  11.966  18.828  0.00  0.00    +0.000 A 
ATOM      6  C   UNL     1      -3.789  11.228  17.689  0.00  0.00    +0.000 A 
ATOM      7  C   UNL     1      -5.085  10.790  17.431  0.00  0.00    +0.000 A 
ATOM      8  C   UNL     1      -6.073  11.104  18.340  0.00  0.00    +0.000 A 
ATOM      9  F   UNL     1      -7.330  10.699  18.123  0.00  0.00    +0.000 F 
ATOM     10  C   UNL     1      -5.772  11.852  19.479  0.00  0.00    +0.000 A 
ATOM     11  C   UNL     1      -4.449  12.331  19.756  0.00  0.00    +0.000 A 
ENDROOT
BRANCH   1  18
ATOM     12  C   UNL     1      -5.852  15.762  20.965  0.00  0.00    +0.000 C 
ATOM     13  C   UNL     1      -5.901  14.630  21.952  0.00  0.00    +0.000 A 
ATOM     14  C   UNL     1      -6.822  14.769  23.008  0.00  0.00    +0.000 A 
ATOM     15  C   UNL     1      -6.848  13.864  24.055  0.00  0.00    +0.000 A 
ATOM     16  C   UNL     1      -5.981  12.798  23.993  0.00  0.00    +0.000 A 
ATOM     17  N   UNL     1      -5.153  12.570  22.951  0.00  0.00    +0.000 NA
ATOM     18  C   UNL     1      -5.074  13.487  21.941  0.00  0.00    +0.000 A 
ENDBRANCH   1  18
BRANCH   2  19
ATOM     19  C   UNL     1      -2.173  14.485  22.076  0.00  0.00    +0.000 A 
ATOM     20  C   UNL     1      -2.229  15.875  22.023  0.00  0.00    +0.000 A 
ATOM     21  C   UNL     1      -2.061  16.609  23.206  0.00  0.00    +0.000 A 
ATOM     22  C   UNL     1      -1.736  15.957  24.392  0.00  0.00    +0.000 A 
ATOM     23  C   UNL     1      -1.570  14.595  24.347  0.00  0.00    +0.000 A 
ATOM     24  N   UNL     1      -1.805  13.878  23.232  0.00  0.00    +0.000 NA
ENDBRANCH   2  19
BRANCH   3  25
ATOM     25  C   UNL     1      -0.226  13.026  20.254  0.00  0.00    +0.000 C 
ATOM     26  C   UNL     1       0.343  14.331  19.696  0.00  0.00    +0.000 C 
BRANCH  25  27
ATOM     27  N   UNL     1       0.488  11.876  19.632  0.00  0.00    +0.000 N 
ATOM     28  H   UNL     1       1.350  12.177  19.185  0.00  0.00    +0.000 HD
BRANCH  27  29
ATOM     29  C   UNL     1       0.730  10.772  20.489  0.00  0.00    +0.000 A 
ATOM     30  N   UNL     1       0.441  10.893  21.800  0.00  0.00    +0.000 NA
ATOM     31  C   UNL     1       0.630   9.825  22.583  0.00  0.00    +0.000 A 
ATOM     32  N   UNL     1       1.028   8.614  22.173  0.00  0.00    +0.000 NA
ATOM     33  C   UNL     1       1.299   8.501  20.861  0.00  0.00    +0.000 A 
ATOM     34  N   UNL     1       1.707   7.226  20.473  0.00  0.00    +0.000 N 
ATOM     35  C   UNL     1       1.210   9.572  19.985  0.00  0.00    +0.000 A 
ATOM     36  H   UNL     1       1.626   6.618  21.285  0.00  0.00    +0.000 HD
ATOM     37  H   UNL     1       1.170   6.869  19.688  0.00  0.00    +0.000 HD
BRANCH  35  38
ATOM     38  C   UNL     1       1.675   9.457  18.640  0.00  0.00    +0.000 C 
ATOM     39  N   UNL     1       2.065   9.420  17.546  0.00  0.00    +0.000 NA
ENDBRANCH  35  38
ENDBRANCH  27  29
ENDBRANCH  25  27
ENDBRANCH   3  25
TORSDOF 6
ENDMDL
MODEL 2
REMARK VINA RESULT:      -6.5      2.865      6.633
REMARK  Name = 
REMARK  8 active torsions:
REMARK  status: ('A' for Active; 'I' for Inactive)
REMARK    1  A    between atoms: C_1  and  C_2
REMARK    2  A    between atoms: C_7  and  C_8
REMARK    3  A    between atoms: C_9  and  C_10
REMARK    4  A    between atoms: C_16  and  C_17
REMARK    5  A    between atoms: C_17  and  C_18
REMARK    6  A    between atoms: C_17  and  N_19
REMARK    7  A    between atoms: N_19  and  C_20
REMARK    8  A    between atoms: C_26  and  C_27
REMARK                            x       y       z     vdW  Elec       q    Type
REMARK                         _______ _______ _______ _____ _____    ______ ____
ROOT
ATOM      1  C   UNL     1       0.187  12.860  21.602  0.00  0.00    +0.000 A 
ATOM      2  C   UNL     1      -0.749  13.599  22.407  0.00  0.00    +0.000 A 
ATOM      3  C   UNL     1      -1.776  12.834  23.034  0.00  0.00    +0.000 A 
ATOM      4  N   UNL     1      -1.748  11.472  23.099  0.00  0.00    +0.000 NA
ATOM      5  C   UNL     1      -0.824  10.787  22.430  0.00  0.00    +0.000 A 
ATOM      6  C   UNL     1      -0.894   9.397  22.535  0.00  0.00    +0.000 A 
ATOM      7  C   UNL     1      -0.029   8.554  21.842  0.00  0.00    +0.000 A 
ATOM      8  C   UNL     1       0.925   9.124  21.028  0.00  0.00    +0.000 A 
ATOM      9  F   UNL     1       1.773   8.343  20.347  0.00  0.00    +0.000 F 
ATOM     10  C   UNL     1       1.021  10.511  20.917  0.00  0.00    +0.000 A 
ATOM     11  C   UNL     1       0.156  11.401  21.636  0.00  0.00    +0.000 A 
ENDROOT
BRANCH   1  18
ATOM     12  C   UNL     1      -0.221  13.695  18.545  0.00  0.00    +0.000 C 
ATOM     13  C   UNL     1       1.009  13.937  19.372  0.00  0.00    +0.000 A 
ATOM     14  C   UNL     1       2.082  14.571  18.716  0.00  0.00    +0.000 A 
ATOM     15  C   UNL     1       3.314  14.709  19.331  0.00  0.00    +0.000 A 
ATOM     16  C   UNL     1       3.430  14.255  20.623  0.00  0.00    +0.000 A 
ATOM     17  N   UNL     1       2.402  13.733  21.327  0.00  0.00    +0.000 NA
ATOM     18  C   UNL     1       1.197  13.536  20.712  0.00  0.00    +0.000 A 
ENDBRANCH   1  18
BRANCH   2  19
ATOM     19  C   UNL     1      -0.705  15.091  22.553  0.00  0.00    +0.000 A 
ATOM     20  C   UNL     1      -1.230  16.016  21.655  0.00  0.00    +0.000 A 
ATOM     21  C   UNL     1      -1.428  17.338  22.077  0.00  0.00    +0.000 A 
ATOM     22  C   UNL     1      -1.002  17.740  23.339  0.00  0.00    +0.000 A 
ATOM     23  C   UNL     1      -0.375  16.808  24.127  0.00  0.00    +0.000 A 
ATOM     24  N   UNL     1      -0.251  15.520  23.759  0.00  0.00    +0.000 NA
ENDBRANCH   2  19
BRANCH   3  25
ATOM     25  C   UNL     1      -3.039  13.479  23.646  0.00  0.00    +0.000 C 
ATOM     26  C   UNL     1      -3.837  12.465  24.466  0.00  0.00    +0.000 C 
BRANCH  25  27
ATOM     27  N   UNL     1      -3.936  14.104  22.633  0.00  0.00    +0.000 N 
ATOM     28  H   UNL     1      -3.431  14.322  21.779  0.00  0.00    +0.000 HD
BRANCH  27  29
ATOM     29  C   UNL     1      -5.123  13.383  22.342  0.00  0.00    +0.000 A 
ATOM     30  N   UNL     1      -6.156  13.458  23.205  0.00  0.00    +0.000 NA
ATOM     31  C   UNL     1      -7.282  12.810  22.887  0.00  0.00    +0.000 A 
ATOM     32  N   UNL     1      -7.505  12.135  21.754  0.00  0.00    +0.000 NA
ATOM     33  C   UNL     1      -6.473  12.080  20.893  0.00  0.00    +0.000 A 
ATOM     34  N   UNL     1      -6.744  11.371  19.724  0.00  0.00    +0.000 N 
ATOM     35  C   UNL     1      -5.240  12.651  21.169  0.00  0.00    +0.000 A 
ATOM     36  H   UNL     1      -7.728  11.114  19.744  0.00  0.00    +0.000 HD
ATOM     37  H   UNL     1      -6.516  11.902  18.888  0.00  0.00    +0.000 HD
BRANCH  35  38
ATOM     38  C   UNL     1      -4.119  12.420  20.315  0.00  0.00    +0.000 C 
ATOM     39  N   UNL     1      -3.172  12.247  19.664  0.00  0.00    +0.000 NA
ENDBRANCH  35  38
ENDBRANCH  27  29
ENDBRANCH  25  27
ENDBRANCH   3  25
TORSDOF 6
ENDMDL
MODEL 3
REMARK VINA RESULT:      -6.5      1.176      1.543
REMARK  Name = 
REMARK  8 active torsions:
REMARK  status: ('A' for Active; 'I' for Inactive)
REMARK    1  A    between atoms: C_1  and  C_2
REMARK    2  A    between atoms: C_7  and  C_8
REMARK    3  A    between atoms: C_9  and  C_10
REMARK    4  A    between atoms: C_16  and  C_17
REMARK    5  A    between atoms: C_17  and  C_18
REMARK    6  A    between atoms: C_17  and  N_19
REMARK    7  A    between atoms: N_19  and  C_20
REMARK    8  A    between atoms: C_26  and  C_27
REMARK                            x       y       z     vdW  Elec       q    Type
REMARK                         _______ _______ _______ _____ _____    ______ ____
ROOT
ATOM      1  C   UNL     1      -3.549  13.475  20.708  0.00  0.00    +0.000 A 
ATOM      2  C   UNL     1      -2.146  13.699  20.488  0.00  0.00    +0.000 A 
ATOM      3  C   UNL     1      -1.510  12.825  19.558  0.00  0.00    +0.000 A 
ATOM      4  N   UNL     1      -2.206  11.997  18.727  0.00  0.00    +0.000 NA
ATOM      5  C   UNL     1      -3.522  11.858  18.867  0.00  0.00    +0.000 A 
ATOM      6  C   UNL     1      -4.142  10.967  17.989  0.00  0.00    +0.000 A 
ATOM      7  C   UNL     1      -5.503  10.678  18.060  0.00  0.00    +0.000 A 
ATOM      8  C   UNL     1      -6.252  11.301  19.034  0.00  0.00    +0.000 A 
ATOM      9  F   UNL     1      -7.563  11.047  19.130  0.00  0.00    +0.000 F 
ATOM     10  C   UNL     1      -5.656  12.204  19.914  0.00  0.00    +0.000 A 
ATOM     11  C   UNL     1      -4.261  12.534  19.849  0.00  0.00    +0.000 A 
ENDROOT
BRANCH   1  18
ATOM     12  C   UNL     1      -3.780  12.546  23.757  0.00  0.00    +0.000 C 
ATOM     13  C   UNL     1      -4.393  13.781  23.158  0.00  0.00    +0.000 A 
ATOM     14  C   UNL     1      -5.156  14.579  24.032  0.00  0.00    +0.000 A 
ATOM     15  C   UNL     1      -5.889  15.654  23.559  0.00  0.00    +0.000 A 
ATOM     16  C   UNL     1      -5.797  15.942  22.218  0.00  0.00    +0.000 A 
ATOM     17  N   UNL     1      -4.998  15.268  21.363  0.00  0.00    +0.000 NA
ATOM     18  C   UNL     1      -4.317  14.168  21.804  0.00  0.00    +0.000 A 
ENDBRANCH   1  18
BRANCH   2  19
ATOM     19  C   UNL     1      -1.358  14.747  21.218  0.00  0.00    +0.000 A 
ATOM     20  C   UNL     1      -1.215  16.076  20.831  0.00  0.00    +0.000 A 
ATOM     21  C   UNL     1      -0.754  17.012  21.768  0.00  0.00    +0.000 A 
ATOM     22  C   UNL     1      -0.346  16.594  23.030  0.00  0.00    +0.000 A 
ATOM     23  C   UNL     1      -0.394  15.249  23.303  0.00  0.00    +0.000 A 
ATOM     24  N   UNL     1      -0.906  14.357  22.436  0.00  0.00    +0.000 NA
ENDBRANCH   2  19
BRANCH   3  25
ATOM     25  C   UNL     1       0.026  12.698  19.449  0.00  0.00    +0.000 C 
ATOM     26  C   UNL     1       0.604  13.763  18.517  0.00  0.00    +0.000 C 
BRANCH  25  27
ATOM     27  N   UNL     1       0.479  11.353  18.997  0.00  0.00    +0.000 N 
ATOM     28  H   UNL     1       1.274  11.426  18.367  0.00  0.00    +0.000 HD
BRANCH  27  29
ATOM     29  C   UNL     1       0.745  10.419  20.031  0.00  0.00    +0.000 A 
ATOM     30  N   UNL     1       0.401  10.736  21.295  0.00  0.00    +0.000 NA
ATOM     31  C   UNL     1       0.616   9.821  22.248  0.00  0.00    +0.000 A 
ATOM     32  N   UNL     1       1.089   8.585  22.055  0.00  0.00    +0.000 NA
ATOM     33  C   UNL     1       1.414   8.274  20.787  0.00  0.00    +0.000 A 
ATOM     34  N   UNL     1       1.901   6.978  20.626  0.00  0.00    +0.000 N 
ATOM     35  C   UNL     1       1.304   9.182  19.745  0.00  0.00    +0.000 A 
ATOM     36  H   UNL     1       1.821   6.507  21.524  0.00  0.00    +0.000 HD
ATOM     37  H   UNL     1       1.412   6.469  19.896  0.00  0.00    +0.000 HD
BRANCH  35  38
ATOM     38  C   UNL     1       1.824   8.876  18.450  0.00  0.00    +0.000 C 
ATOM     39  N   UNL     1       2.267   8.681  17.394  0.00  0.00    +0.000 NA
ENDBRANCH  35  38
ENDBRANCH  27  29
ENDBRANCH  25  27
ENDBRANCH   3  25
TORSDOF 6
ENDMDL
MODEL 4
REMARK VINA RESULT:      -6.5      2.434      6.555
REMARK  Name = 
REMARK  8 active torsions:
REMARK  status: ('A' for Active; 'I' for Inactive)
REMARK    1  A    between atoms: C_1  and  C_2
REMARK    2  A    between atoms: C_7  and  C_8
REMARK    3  A    between atoms: C_9  and  C_10
REMARK    4  A    between atoms: C_16  and  C_17
REMARK    5  A    between atoms: C_17  and  C_18
REMARK    6  A    between atoms: C_17  and  N_19
REMARK    7  A    between atoms: N_19  and  C_20
REMARK    8  A    between atoms: C_26  and  C_27
REMARK                            x       y       z     vdW  Elec       q    Type
REMARK                         _______ _______ _______ _____ _____    ______ ____
ROOT
ATOM      1  C   UNL     1      -2.784  12.277  19.882  0.00  0.00    +0.000 A 
ATOM      2  C   UNL     1      -3.753  12.741  20.837  0.00  0.00    +0.000 A 
ATOM      3  C   UNL     1      -5.083  12.908  20.350  0.00  0.00    +0.000 A 
ATOM      4  N   UNL     1      -5.494  12.426  19.143  0.00  0.00    +0.000 NA
ATOM      5  C   UNL     1      -4.611  11.909  18.291  0.00  0.00    +0.000 A 
ATOM      6  C   UNL     1      -5.123  11.468  17.069  0.00  0.00    +0.000 A 
ATOM      7  C   UNL     1      -4.307  10.960  16.061  0.00  0.00    +0.000 A 
ATOM      8  C   UNL     1      -2.950  10.895  16.291  0.00  0.00    +0.000 A 
ATOM      9  F   UNL     1      -2.137  10.412  15.343  0.00  0.00    +0.000 F 
ATOM     10  C   UNL     1      -2.419  11.319  17.508  0.00  0.00    +0.000 A 
ATOM     11  C   UNL     1      -3.239  11.827  18.570  0.00  0.00    +0.000 A 
ENDROOT
BRANCH   1  18
ATOM     12  C   UNL     1      -0.682  14.622  19.339  0.00  0.00    +0.000 C 
ATOM     13  C   UNL     1      -0.382  13.292  19.972  0.00  0.00    +0.000 A 
ATOM     14  C   UNL     1       0.961  13.067  20.331  0.00  0.00    +0.000 A 
ATOM     15  C   UNL     1       1.380  11.827  20.781  0.00  0.00    +0.000 A 
ATOM     16  C   UNL     1       0.427  10.846  20.914  0.00  0.00    +0.000 A 
ATOM     17  N   UNL     1      -0.888  11.047  20.679  0.00  0.00    +0.000 NA
ATOM     18  C   UNL     1      -1.307  12.247  20.178  0.00  0.00    +0.000 A 
ENDBRANCH   1  18
BRANCH   2  19
ATOM     19  C   UNL     1      -3.406  13.086  22.256  0.00  0.00    +0.000 A 
ATOM     20  C   UNL     1      -2.638  14.172  22.666  0.00  0.00    +0.000 A 
ATOM     21  C   UNL     1      -2.684  14.569  24.010  0.00  0.00    +0.000 A 
ATOM     22  C   UNL     1      -3.403  13.819  24.936  0.00  0.00    +0.000 A 
ATOM     23  C   UNL     1      -4.035  12.686  24.487  0.00  0.00    +0.000 A 
ATOM     24  N   UNL     1      -4.057  12.343  23.186  0.00  0.00    +0.000 NA
ENDBRANCH   2  19
BRANCH   3  25
ATOM     25  C   UNL     1      -6.160  13.701  21.124  0.00  0.00    +0.000 C 
ATOM     26  C   UNL     1      -7.561  13.167  20.825  0.00  0.00    +0.000 C 
BRANCH  25  27
ATOM     27  N   UNL     1      -6.127  15.166  20.853  0.00  0.00    +0.000 N 
ATOM     28  H   UNL     1      -7.008  15.488  20.463  0.00  0.00    +0.000 HD
BRANCH  27  29
ATOM     29  C   UNL     1      -5.738  15.980  21.948  0.00  0.00    +0.000 A 
ATOM     30  N   UNL     1      -6.274  15.735  23.161  0.00  0.00    +0.000 NA
ATOM     31  C   UNL     1      -5.859  16.483  24.189  0.00  0.00    +0.000 A 
ATOM     32  N   UNL     1      -4.907  17.423  24.141  0.00  0.00    +0.000 NA
ATOM     33  C   UNL     1      -4.369  17.648  22.929  0.00  0.00    +0.000 A 
ATOM     34  N   UNL     1      -3.380  18.631  22.919  0.00  0.00    +0.000 N 
ATOM     35  C   UNL     1      -4.791  16.981  21.789  0.00  0.00    +0.000 A 
ATOM     36  H   UNL     1      -3.220  18.912  23.884  0.00  0.00    +0.000 HD
ATOM     37  H   UNL     1      -2.522  18.313  22.478  0.00  0.00    +0.000 HD
BRANCH  35  38
ATOM     38  C   UNL     1      -4.323  17.371  20.498  0.00  0.00    +0.000 C 
ATOM     39  N   UNL     1      -3.945  17.633  19.430  0.00  0.00    +0.000 NA
ENDBRANCH  35  38
ENDBRANCH  27  29
ENDBRANCH  25  27
ENDBRANCH   3  25
TORSDOF 6
ENDMDL
MODEL 5
REMARK VINA RESULT:      -6.5      2.876      6.870
REMARK  Name = 
REMARK  8 active torsions:
REMARK  status: ('A' for Active; 'I' for Inactive)
REMARK    1  A    between atoms: C_1  and  C_2
REMARK    2  A    between atoms: C_7  and  C_8
REMARK    3  A    between atoms: C_9  and  C_10
REMARK    4  A    between atoms: C_16  and  C_17
REMARK    5  A    between atoms: C_17  and  C_18
REMARK    6  A    between atoms: C_17  and  N_19
REMARK    7  A    between atoms: N_19  and  C_20
REMARK    8  A    between atoms: C_26  and  C_27
REMARK                            x       y       z     vdW  Elec       q    Type
REMARK                         _______ _______ _______ _____ _____    ______ ____
ROOT
ATOM      1  C   UNL     1       0.119  12.772  21.592  0.00  0.00    +0.000 A 
ATOM      2  C   UNL     1      -0.887  13.521  22.295  0.00  0.00    +0.000 A 
ATOM      3  C   UNL     1      -1.914  12.756  22.922  0.00  0.00    +0.000 A 
ATOM      4  N   UNL     1      -1.835  11.405  23.084  0.00  0.00    +0.000 NA
ATOM      5  C   UNL     1      -0.850  10.717  22.511  0.00  0.00    +0.000 A 
ATOM      6  C   UNL     1      -0.869   9.336  22.710  0.00  0.00    +0.000 A 
ATOM      7  C   UNL     1       0.065   8.486  22.122  0.00  0.00    +0.000 A 
ATOM      8  C   UNL     1       1.037   9.042  21.319  0.00  0.00    +0.000 A 
ATOM      9  F   UNL     1       1.951   8.254  20.738  0.00  0.00    +0.000 F 
ATOM     10  C   UNL     1       1.082  10.421  21.116  0.00  0.00    +0.000 A 
ATOM     11  C   UNL     1       0.145  11.318  21.727  0.00  0.00    +0.000 A 
ENDROOT
BRANCH   1  18
ATOM     12  C   UNL     1      -0.221  13.525  18.506  0.00  0.00    +0.000 C 
ATOM     13  C   UNL     1       0.989  13.794  19.355  0.00  0.00    +0.000 A 
ATOM     14  C   UNL     1       2.073  14.417  18.707  0.00  0.00    +0.000 A 
ATOM     15  C   UNL     1       3.290  14.577  19.348  0.00  0.00    +0.000 A 
ATOM     16  C   UNL     1       3.378  14.157  20.654  0.00  0.00    +0.000 A 
ATOM     17  N   UNL     1       2.336  13.649  21.346  0.00  0.00    +0.000 NA
ATOM     18  C   UNL     1       1.147  13.429  20.708  0.00  0.00    +0.000 A 
ENDBRANCH   1  18
BRANCH   2  19
ATOM     19  C   UNL     1      -0.911  15.021  22.339  0.00  0.00    +0.000 A 
ATOM     20  C   UNL     1      -1.604  15.852  21.463  0.00  0.00    +0.000 A 
ATOM     21  C   UNL     1      -1.821  17.190  21.822  0.00  0.00    +0.000 A 
ATOM     22  C   UNL     1      -1.257  17.701  22.987  0.00  0.00    +0.000 A 
ATOM     23  C   UNL     1      -0.477  16.859  23.741  0.00  0.00    +0.000 A 
ATOM     24  N   UNL     1      -0.328  15.556  23.442  0.00  0.00    +0.000 NA
ENDBRANCH   2  19
BRANCH   3  25
ATOM     25  C   UNL     1      -3.233  13.385  23.423  0.00  0.00    +0.000 C 
ATOM     26  C   UNL     1      -3.221  13.559  24.942  0.00  0.00    +0.000 C 
BRANCH  25  27
ATOM     27  N   UNL     1      -4.445  12.615  23.029  0.00  0.00    +0.000 N 
ATOM     28  H   UNL     1      -4.881  12.176  23.836  0.00  0.00    +0.000 HD
BRANCH  27  29
ATOM     29  C   UNL     1      -5.406  13.333  22.271  0.00  0.00    +0.000 A 
ATOM     30  N   UNL     1      -6.458  13.881  22.911  0.00  0.00    +0.000 NA
ATOM     31  C   UNL     1      -7.327  14.595  22.185  0.00  0.00    +0.000 A 
ATOM     32  N   UNL     1      -7.217  14.870  20.880  0.00  0.00    +0.000 NA
ATOM     33  C   UNL     1      -6.155  14.330  20.256  0.00  0.00    +0.000 A 
ATOM     34  N   UNL     1      -6.075  14.641  18.899  0.00  0.00    +0.000 N 
ATOM     35  C   UNL     1      -5.245  13.510  20.905  0.00  0.00    +0.000 A 
ATOM     36  H   UNL     1      -6.820  15.302  18.692  0.00  0.00    +0.000 HD
ATOM     37  H   UNL     1      -5.166  15.015  18.641  0.00  0.00    +0.000 HD
BRANCH  35  38
ATOM     38  C   UNL     1      -4.235  12.815  20.172  0.00  0.00    +0.000 C 
ATOM     39  N   UNL     1      -3.454  12.236  19.537  0.00  0.00    +0.000 NA
ENDBRANCH  35  38
ENDBRANCH  27  29
ENDBRANCH  25  27
ENDBRANCH   3  25
TORSDOF 6
ENDMDL
MODEL 6
REMARK VINA RESULT:      -6.5      2.670      6.838
REMARK  Name = 
REMARK  8 active torsions:
REMARK  status: ('A' for Active; 'I' for Inactive)
REMARK    1  A    between atoms: C_1  and  C_2
REMARK    2  A    between atoms: C_7  and  C_8
REMARK    3  A    between atoms: C_9  and  C_10
REMARK    4  A    between atoms: C_16  and  C_17
REMARK    5  A    between atoms: C_17  and  C_18
REMARK    6  A    between atoms: C_17  and  N_19
REMARK    7  A    between atoms: N_19  and  C_20
REMARK    8  A    between atoms: C_26  and  C_27
REMARK                            x       y       z     vdW  Elec       q    Type
REMARK                         _______ _______ _______ _____ _____    ______ ____
ROOT
ATOM      1  C   UNL     1      -2.750  12.378  19.827  0.00  0.00    +0.000 A 
ATOM      2  C   UNL     1      -3.733  12.671  20.834  0.00  0.00    +0.000 A 
ATOM      3  C   UNL     1      -5.096  12.590  20.422  0.00  0.00    +0.000 A 
ATOM      4  N   UNL     1      -5.479  12.025  19.241  0.00  0.00    +0.000 NA
ATOM      5  C   UNL     1      -4.565  11.665  18.343  0.00  0.00    +0.000 A 
ATOM      6  C   UNL     1      -5.055  11.122  17.154  0.00  0.00    +0.000 A 
ATOM      7  C   UNL     1      -4.217  10.757  16.102  0.00  0.00    +0.000 A 
ATOM      8  C   UNL     1      -2.860  10.942  16.255  0.00  0.00    +0.000 A 
ATOM      9  F   UNL     1      -2.027  10.601  15.264  0.00  0.00    +0.000 F 
ATOM     10  C   UNL     1      -2.349  11.470  17.440  0.00  0.00    +0.000 A 
ATOM     11  C   UNL     1      -3.188  11.836  18.544  0.00  0.00    +0.000 A 
ENDROOT
BRANCH   1  18
ATOM     12  C   UNL     1      -0.681  10.407  21.255  0.00  0.00    +0.000 C 
ATOM     13  C   UNL     1      -0.355  11.737  20.638  0.00  0.00    +0.000 A 
ATOM     14  C   UNL     1       0.989  12.148  20.727  0.00  0.00    +0.000 A 
ATOM     15  C   UNL     1       1.375  13.417  20.330  0.00  0.00    +0.000 A 
ATOM     16  C   UNL     1       0.408  14.234  19.795  0.00  0.00    +0.000 A 
ATOM     17  N   UNL     1      -0.870  13.846  19.595  0.00  0.00    +0.000 NA
ATOM     18  C   UNL     1      -1.278  12.620  20.039  0.00  0.00    +0.000 A 
ENDBRANCH   1  18
BRANCH   2  19
ATOM     19  C   UNL     1      -3.377  13.093  22.229  0.00  0.00    +0.000 A 
ATOM     20  C   UNL     1      -2.673  14.241  22.580  0.00  0.00    +0.000 A 
ATOM     21  C   UNL     1      -2.714  14.685  23.910  0.00  0.00    +0.000 A 
ATOM     22  C   UNL     1      -3.360  13.927  24.880  0.00  0.00    +0.000 A 
ATOM     23  C   UNL     1      -3.926  12.738  24.489  0.00  0.00    +0.000 A 
ATOM     24  N   UNL     1      -3.956  12.345  23.203  0.00  0.00    +0.000 NA
ENDBRANCH   2  19
BRANCH   3  25
ATOM     25  C   UNL     1      -6.254  13.185  21.253  0.00  0.00    +0.000 C 
ATOM     26  C   UNL     1      -7.498  12.297  21.185  0.00  0.00    +0.000 C 
BRANCH  25  27
ATOM     27  N   UNL     1      -6.621  14.572  20.851  0.00  0.00    +0.000 N 
ATOM     28  H   UNL     1      -7.621  14.730  20.947  0.00  0.00    +0.000 HD
BRANCH  27  29
ATOM     29  C   UNL     1      -5.888  15.606  21.488  0.00  0.00    +0.000 A 
ATOM     30  N   UNL     1      -5.022  16.333  20.754  0.00  0.00    +0.000 NA
ATOM     31  C   UNL     1      -4.376  17.334  21.362  0.00  0.00    +0.000 A 
ATOM     32  N   UNL     1      -4.554  17.727  22.629  0.00  0.00    +0.000 NA
ATOM     33  C   UNL     1      -5.432  17.004  23.347  0.00  0.00    +0.000 A 
ATOM     34  N   UNL     1      -5.592  17.444  24.660  0.00  0.00    +0.000 N 
ATOM     35  C   UNL     1      -6.089  15.899  22.829  0.00  0.00    +0.000 A 
ATOM     36  H   UNL     1      -5.051  18.299  24.764  0.00  0.00    +0.000 HD
ATOM     37  H   UNL     1      -6.567  17.591  24.903  0.00  0.00    +0.000 HD
BRANCH  35  38
ATOM     38  C   UNL     1      -6.875  15.054  23.670  0.00  0.00    +0.000 C 
ATOM     39  N   UNL     1      -7.554  14.363  24.312  0.00  0.00    +0.000 NA
ENDBRANCH  35  38
ENDBRANCH  27  29
ENDBRANCH  25  27
ENDBRANCH   3  25
TORSDOF 6
ENDMDL
MODEL 7
REMARK VINA RESULT:      -6.5      2.630      6.688
REMARK  Name = 
REMARK  8 active torsions:
REMARK  status: ('A' for Active; 'I' for Inactive)
REMARK    1  A    between atoms: C_1  and  C_2
REMARK    2  A    between atoms: C_7  and  C_8
REMARK    3  A    between atoms: C_9  and  C_10
REMARK    4  A    between atoms: C_16  and  C_17
REMARK    5  A    between atoms: C_17  and  C_18
REMARK    6  A    between atoms: C_17  and  N_19
REMARK    7  A    between atoms: N_19  and  C_20
REMARK    8  A    between atoms: C_26  and  C_27
REMARK                            x       y       z     vdW  Elec       q    Type
REMARK                         _______ _______ _______ _____ _____    ______ ____
ROOT
ATOM      1  C   UNL     1      -2.662  12.306  19.714  0.00  0.00    +0.000 A 
ATOM      2  C   UNL     1      -3.626  12.686  20.711  0.00  0.00    +0.000 A 
ATOM      3  C   UNL     1      -4.988  12.703  20.291  0.00  0.00    +0.000 A 
ATOM      4  N   UNL     1      -5.406  12.154  19.115  0.00  0.00    +0.000 NA
ATOM      5  C   UNL     1      -4.517  11.714  18.227  0.00  0.00    +0.000 A 
ATOM      6  C   UNL     1      -5.039  11.195  17.041  0.00  0.00    +0.000 A 
ATOM      7  C   UNL     1      -4.226  10.754  16.000  0.00  0.00    +0.000 A 
ATOM      8  C   UNL     1      -2.859  10.837  16.160  0.00  0.00    +0.000 A 
ATOM      9  F   UNL     1      -2.048  10.422  15.179  0.00  0.00    +0.000 F 
ATOM     10  C   UNL     1      -2.316  11.341  17.341  0.00  0.00    +0.000 A 
ATOM     11  C   UNL     1      -3.132  11.782  18.436  0.00  0.00    +0.000 A 
ENDROOT
BRANCH   1  18
ATOM     12  C   UNL     1      -0.747  10.174  21.128  0.00  0.00    +0.000 C 
ATOM     13  C   UNL     1      -0.323  11.485  20.526  0.00  0.00    +0.000 A 
ATOM     14  C   UNL     1       1.047  11.796  20.624  0.00  0.00    +0.000 A 
ATOM     15  C   UNL     1       1.526  13.037  20.242  0.00  0.00    +0.000 A 
ATOM     16  C   UNL     1       0.623  13.928  19.713  0.00  0.00    +0.000 A 
ATOM     17  N   UNL     1      -0.679  13.636  19.505  0.00  0.00    +0.000 NA
ATOM     18  C   UNL     1      -1.177  12.438  19.934  0.00  0.00    +0.000 A 
ENDBRANCH   1  18
BRANCH   2  19
ATOM     19  C   UNL     1      -3.247  13.097  22.104  0.00  0.00    +0.000 A 
ATOM     20  C   UNL     1      -2.548  14.249  22.453  0.00  0.00    +0.000 A 
ATOM     21  C   UNL     1      -2.567  14.679  23.788  0.00  0.00    +0.000 A 
ATOM     22  C   UNL     1      -3.187  13.904  24.762  0.00  0.00    +0.000 A 
ATOM     23  C   UNL     1      -3.748  12.714  24.370  0.00  0.00    +0.000 A 
ATOM     24  N   UNL     1      -3.799  12.333  23.080  0.00  0.00    +0.000 NA
ENDBRANCH   2  19
BRANCH   3  25
ATOM     25  C   UNL     1      -6.103  13.395  21.106  0.00  0.00    +0.000 C 
ATOM     26  C   UNL     1      -7.456  12.720  20.879  0.00  0.00    +0.000 C 
BRANCH  25  27
ATOM     27  N   UNL     1      -6.230  14.852  20.821  0.00  0.00    +0.000 N 
ATOM     28  H   UNL     1      -7.154  15.078  20.464  0.00  0.00    +0.000 HD
BRANCH  27  29
ATOM     29  C   UNL     1      -5.883  15.716  21.891  0.00  0.00    +0.000 A 
ATOM     30  N   UNL     1      -6.324  15.423  23.131  0.00  0.00    +0.000 NA
ATOM     31  C   UNL     1      -5.946  16.224  24.133  0.00  0.00    +0.000 A 
ATOM     32  N   UNL     1      -5.113  17.266  24.032  0.00  0.00    +0.000 NA
ATOM     33  C   UNL     1      -4.666  17.540  22.793  0.00  0.00    +0.000 A 
ATOM     34  N   UNL     1      -3.800  18.630  22.729  0.00  0.00    +0.000 N 
ATOM     35  C   UNL     1      -5.066  16.818  21.679  0.00  0.00    +0.000 A 
ATOM     36  H   UNL     1      -3.624  18.937  23.682  0.00  0.00    +0.000 HD
ATOM     37  H   UNL     1      -2.934  18.408  22.245  0.00  0.00    +0.000 HD
BRANCH  35  38
ATOM     38  C   UNL     1      -4.713  17.246  20.364  0.00  0.00    +0.000 C 
ATOM     39  N   UNL     1      -4.410  17.646  19.316  0.00  0.00    +0.000 NA
ENDBRANCH  35  38
ENDBRANCH  27  29
ENDBRANCH  25  27
ENDBRANCH   3  25
TORSDOF 6
ENDMDL
MODEL 8
REMARK VINA RESULT:      -6.5      1.804      3.514
REMARK  Name = 
REMARK  8 active torsions:
REMARK  status: ('A' for Active; 'I' for Inactive)
REMARK    1  A    between atoms: C_1  and  C_2
REMARK    2  A    between atoms: C_7  and  C_8
REMARK    3  A    between atoms: C_9  and  C_10
REMARK    4  A    between atoms: C_16  and  C_17
REMARK    5  A    between atoms: C_17  and  C_18
REMARK    6  A    between atoms: C_17  and  N_19
REMARK    7  A    between atoms: N_19  and  C_20
REMARK    8  A    between atoms: C_26  and  C_27
REMARK                            x       y       z     vdW  Elec       q    Type
REMARK                         _______ _______ _______ _____ _____    ______ ____
ROOT
ATOM      1  C   UNL     1      -3.036  13.177  20.537  0.00  0.00    +0.000 A 
ATOM      2  C   UNL     1      -1.868  12.893  19.746  0.00  0.00    +0.000 A 
ATOM      3  C   UNL     1      -2.027  11.911  18.725  0.00  0.00    +0.000 A 
ATOM      4  N   UNL     1      -3.247  11.446  18.329  0.00  0.00    +0.000 NA
ATOM      5  C   UNL     1      -4.344  11.783  19.004  0.00  0.00    +0.000 A 
ATOM      6  C   UNL     1      -5.542  11.235  18.541  0.00  0.00    +0.000 A 
ATOM      7  C   UNL     1      -6.757  11.453  19.184  0.00  0.00    +0.000 A 
ATOM      8  C   UNL     1      -6.765  12.240  20.316  0.00  0.00    +0.000 A 
ATOM      9  F   UNL     1      -7.916  12.471  20.959  0.00  0.00    +0.000 F 
ATOM     10  C   UNL     1      -5.582  12.808  20.788  0.00  0.00    +0.000 A 
ATOM     11  C   UNL     1      -4.321  12.615  20.133  0.00  0.00    +0.000 A 
ENDROOT
BRANCH   1  18
ATOM     12  C   UNL     1      -2.739  12.144  23.545  0.00  0.00    +0.000 C 
ATOM     13  C   UNL     1      -2.818  13.578  23.105  0.00  0.00    +0.000 A 
ATOM     14  C   UNL     1      -2.780  14.543  24.131  0.00  0.00    +0.000 A 
ATOM     15  C   UNL     1      -2.996  15.883  23.858  0.00  0.00    +0.000 A 
ATOM     16  C   UNL     1      -3.192  16.238  22.544  0.00  0.00    +0.000 A 
ATOM     17  N   UNL     1      -3.135  15.361  21.518  0.00  0.00    +0.000 NA
ATOM     18  C   UNL     1      -2.984  14.029  21.779  0.00  0.00    +0.000 A 
ENDBRANCH   1  18
BRANCH   2  19
ATOM     19  C   UNL     1      -0.535  13.537  19.991  0.00  0.00    +0.000 A 
ATOM     20  C   UNL     1       0.311  13.277  21.065  0.00  0.00    +0.000 A 
ATOM     21  C   UNL     1       1.652  13.679  20.988  0.00  0.00    +0.000 A 
ATOM     22  C   UNL     1       2.097  14.421  19.899  0.00  0.00    +0.000 A 
ATOM     23  C   UNL     1       1.179  14.753  18.935  0.00  0.00    +0.000 A 
ATOM     24  N   UNL     1      -0.091  14.306  18.965  0.00  0.00    +0.000 NA
ENDBRANCH   2  19
BRANCH   3  25
ATOM     25  C   UNL     1      -0.827  11.246  18.015  0.00  0.00    +0.000 C 
ATOM     26  C   UNL     1      -1.195   9.857  17.491  0.00  0.00    +0.000 C 
BRANCH  25  27
ATOM     27  N   UNL     1       0.386  11.140  18.874  0.00  0.00    +0.000 N 
ATOM     28  H   UNL     1       0.179  11.397  19.835  0.00  0.00    +0.000 HD
BRANCH  27  29
ATOM     29  C   UNL     1       1.062   9.894  18.824  0.00  0.00    +0.000 A 
ATOM     30  N   UNL     1       1.741   9.569  17.705  0.00  0.00    +0.000 NA
ATOM     31  C   UNL     1       2.411   8.411  17.697  0.00  0.00    +0.000 A 
ATOM     32  N   UNL     1       2.522   7.562  18.725  0.00  0.00    +0.000 NA
ATOM     33  C   UNL     1       1.853   7.904  19.840  0.00  0.00    +0.000 A 
ATOM     34  N   UNL     1       1.995   6.997  20.889  0.00  0.00    +0.000 N 
ATOM     35  C   UNL     1       1.065   9.042  19.919  0.00  0.00    +0.000 A 
ATOM     36  H   UNL     1       2.667   6.292  20.596  0.00  0.00    +0.000 HD
ATOM     37  H   UNL     1       2.283   7.447  21.754  0.00  0.00    +0.000 HD
BRANCH  35  38
ATOM     38  C   UNL     1       0.232   9.278  21.054  0.00  0.00    +0.000 C 
ATOM     39  N   UNL     1      -0.457   9.413  21.980  0.00  0.00    +0.000 NA
ENDBRANCH  35  38
ENDBRANCH  27  29
ENDBRANCH  25  27
ENDBRANCH   3  25
TORSDOF 6
ENDMDL
MODEL 9
REMARK VINA RESULT:      -6.5      2.323      6.694
REMARK  Name = 
REMARK  8 active torsions:
REMARK  status: ('A' for Active; 'I' for Inactive)
REMARK    1  A    between atoms: C_1  and  C_2
REMARK    2  A    between atoms: C_7  and  C_8
REMARK    3  A    between atoms: C_9  and  C_10
REMARK    4  A    between atoms: C_16  and  C_17
REMARK    5  A    between atoms: C_17  and  C_18
REMARK    6  A    between atoms: C_17  and  N_19
REMARK    7  A    between atoms: N_19  and  C_20
REMARK    8  A    between atoms: C_26  and  C_27
REMARK                            x       y       z     vdW  Elec       q    Type
REMARK                         _______ _______ _______ _____ _____    ______ ____
ROOT
ATOM      1  C   UNL     1      -2.773  12.236  19.872  0.00  0.00    +0.000 A 
ATOM      2  C   UNL     1      -3.751  12.643  20.844  0.00  0.00    +0.000 A 
ATOM      3  C   UNL     1      -5.089  12.775  20.369  0.00  0.00    +0.000 A 
ATOM      4  N   UNL     1      -5.491  12.306  19.153  0.00  0.00    +0.000 NA
ATOM      5  C   UNL     1      -4.597  11.841  18.284  0.00  0.00    +0.000 A 
ATOM      6  C   UNL     1      -5.101  11.410  17.056  0.00  0.00    +0.000 A 
ATOM      7  C   UNL     1      -4.275  10.954  16.031  0.00  0.00    +0.000 A 
ATOM      8  C   UNL     1      -2.915  10.932  16.251  0.00  0.00    +0.000 A 
ATOM      9  F   UNL     1      -2.092  10.500  15.287  0.00  0.00    +0.000 F 
ATOM     10  C   UNL     1      -2.391  11.346  17.475  0.00  0.00    +0.000 A 
ATOM     11  C   UNL     1      -3.221  11.800  18.553  0.00  0.00    +0.000 A 
ENDROOT
BRANCH   1  18
ATOM     12  C   UNL     1      -0.745  14.640  19.307  0.00  0.00    +0.000 C 
ATOM     13  C   UNL     1      -0.402  13.322  19.942  0.00  0.00    +0.000 A 
ATOM     14  C   UNL     1       0.949  13.139  20.294  0.00  0.00    +0.000 A 
ATOM     15  C   UNL     1       1.409  11.913  20.745  0.00  0.00    +0.000 A 
ATOM     16  C   UNL     1       0.486  10.905  20.889  0.00  0.00    +0.000 A 
ATOM     17  N   UNL     1      -0.836  11.065  20.662  0.00  0.00    +0.000 NA
ATOM     18  C   UNL     1      -1.293  12.251  20.158  0.00  0.00    +0.000 A 
ENDBRANCH   1  18
BRANCH   2  19
ATOM     19  C   UNL     1      -3.407  12.968  22.268  0.00  0.00    +0.000 A 
ATOM     20  C   UNL     1      -2.543  13.975  22.689  0.00  0.00    +0.000 A 
ATOM     21  C   UNL     1      -2.583  14.390  24.028  0.00  0.00    +0.000 A 
ATOM     22  C   UNL     1      -3.397  13.727  24.941  0.00  0.00    +0.000 A 
ATOM     23  C   UNL     1      -4.128  12.658  24.486  0.00  0.00    +0.000 A 
ATOM     24  N   UNL     1      -4.152  12.304  23.187  0.00  0.00    +0.000 NA
ENDBRANCH   2  19
BRANCH   3  25
ATOM     25  C   UNL     1      -6.187  13.512  21.167  0.00  0.00    +0.000 C 
ATOM     26  C   UNL     1      -7.551  12.847  20.975  0.00  0.00    +0.000 C 
BRANCH  25  27
ATOM     27  N   UNL     1      -6.297  14.959  20.829  0.00  0.00    +0.000 N 
ATOM     28  H   UNL     1      -7.267  15.262  20.824  0.00  0.00    +0.000 HD
BRANCH  27  29
ATOM     29  C   UNL     1      -5.504  15.832  21.618  0.00  0.00    +0.000 A 
ATOM     30  N   UNL     1      -4.487  16.492  21.030  0.00  0.00    +0.000 NA
ATOM     31  C   UNL     1      -3.781  17.346  21.780  0.00  0.00    +0.000 A 
ATOM     32  N   UNL     1      -4.030  17.657  23.057  0.00  0.00    +0.000 NA
ATOM     33  C   UNL     1      -5.057  17.004  23.629  0.00  0.00    +0.000 A 
ATOM     34  N   UNL     1      -5.286  17.355  24.958  0.00  0.00    +0.000 N 
ATOM     35  C   UNL     1      -5.795  16.041  22.958  0.00  0.00    +0.000 A 
ATOM     36  H   UNL     1      -4.654  18.120  25.185  0.00  0.00    +0.000 HD
ATOM     37  H   UNL     1      -6.254  17.612  25.130  0.00  0.00    +0.000 HD
BRANCH  35  38
ATOM     38  C   UNL     1      -6.759  15.245  23.649  0.00  0.00    +0.000 C 
ATOM     39  N   UNL     1      -7.499  14.564  24.231  0.00  0.00    +0.000 NA
ENDBRANCH  35  38
ENDBRANCH  27  29
ENDBRANCH  25  27
ENDBRANCH   3  25
TORSDOF 6
ENDMDL
