MODEL 1
REMARK VINA RESULT:      -8.5      0.000      0.000
REMARK  Name = 
REMARK  8 active torsions:
REMARK  status: ('A' for Active; 'I' for Inactive)
REMARK    1  A    between atoms: C_1  and  N_2
REMARK    2  A    between atoms: C_4  and  C_5
REMARK    3  A    between atoms: C_8  and  C_9
REMARK    4  A    between atoms: C_15  and  C_16
REMARK    5  A    between atoms: C_18  and  C_19
REMARK    6  A    between atoms: C_22  and  N_23
REMARK    7  A    between atoms: N_23  and  S_24
REMARK    8  A    between atoms: S_24  and  C_25
REMARK                            x       y       z     vdW  Elec       q    Type
REMARK                         _______ _______ _______ _____ _____    ______ ____
ROOT
ATOM      1  C   UNL     1       2.818   6.597  18.858  0.00  0.00    +0.000 A 
ATOM      2  C   UNL     1       2.610   5.825  20.009  0.00  0.00    +0.000 A 
ATOM      3  N   UNL     1       1.886   6.165  21.107  0.00  0.00    +0.000 NA
ATOM      4  C   UNL     1       1.351   7.392  21.012  0.00  0.00    +0.000 A 
ATOM      5  N   UNL     1       0.579   7.971  21.977  0.00  0.00    +0.000 N 
ATOM      6  C   UNL     1       0.176   9.217  21.565  0.00  0.00    +0.000 A 
ATOM      7  C   UNL     1       0.688   9.440  20.296  0.00  0.00    +0.000 A 
ATOM      8  C   UNL     1       1.452   8.281  19.951  0.00  0.00    +0.000 A 
ATOM      9  C   UNL     1       2.197   7.854  18.836  0.00  0.00    +0.000 A 
ATOM     10  H   UNL     1       0.339   7.514  22.846  0.00  0.00    +0.000 HD
ENDROOT
BRANCH   1  14
ATOM     11  C   UNL     1       5.206   5.228  15.532  0.00  0.00    +0.000 A 
ATOM     12  C   UNL     1       5.126   6.588  15.844  0.00  0.00    +0.000 A 
ATOM     13  C   UNL     1       4.366   7.027  16.931  0.00  0.00    +0.000 A 
ATOM     14  C   UNL     1       3.643   6.125  17.727  0.00  0.00    +0.000 A 
ATOM     15  C   UNL     1       3.729   4.760  17.396  0.00  0.00    +0.000 A 
ATOM     16  C   UNL     1       4.499   4.315  16.317  0.00  0.00    +0.000 A 
BRANCH  11  20
ATOM     17  C   UNL     1       6.736   2.693  11.564  0.00  0.00    +0.000 C 
ATOM     18  N   UNL     1       6.646   3.648  12.645  0.00  0.00    +0.000 N 
ATOM     19  C   UNL     1       5.622   3.781  13.529  0.00  0.00    +0.000 A 
ATOM     20  C   UNL     1       5.999   4.773  14.409  0.00  0.00    +0.000 A 
ATOM     21  C   UNL     1       7.264   5.187  13.941  0.00  0.00    +0.000 A 
ATOM     22  N   UNL     1       7.662   4.500  12.862  0.00  0.00    +0.000 NA
ENDBRANCH  11  20
ENDBRANCH   1  14
BRANCH   7  23
ATOM     23  C   UNL     1       0.399  10.626  19.498  0.00  0.00    +0.000 A 
ATOM     24  C   UNL     1       1.416  11.538  19.187  0.00  0.00    +0.000 A 
ATOM     25  C   UNL     1       1.117  12.732  18.521  0.00  0.00    +0.000 A 
ATOM     26  C   UNL     1      -0.195  13.004  18.116  0.00  0.00    +0.000 A 
ATOM     27  C   UNL     1      -1.200  12.075  18.378  0.00  0.00    +0.000 A 
ATOM     28  C   UNL     1      -0.908  10.904  19.077  0.00  0.00    +0.000 A 
BRANCH  25  29
ATOM     29  C   UNL     1       2.167  13.675  18.262  0.00  0.00    +0.000 C 
ATOM     30  N   UNL     1       3.018  14.439  18.071  0.00  0.00    +0.000 NA
ENDBRANCH  25  29
BRANCH  27  31
ATOM     31  N   UNL     1      -2.527  12.262  17.889  0.00  0.00    +0.000 N 
ATOM     32  H   UNL     1      -3.207  12.596  18.573  0.00  0.00    +0.000 HD
BRANCH  31  33
ATOM     33  S   UNL     1      -3.238  11.072  16.916  0.00  0.00    +0.000 S 
ATOM     34  C   UNL     1      -4.904  11.688  16.779  0.00  0.00    +0.000 C 
ATOM     35  O   UNL     1      -2.620  11.070  15.615  0.00  0.00    +0.000 OA
ATOM     36  O   UNL     1      -3.278   9.887  17.746  0.00  0.00    +0.000 OA
ENDBRANCH  31  33
ENDBRANCH  27  31
ENDBRANCH   7  23
TORSDOF 6
ENDMDL
MODEL 2
REMARK VINA RESULT:      -8.5      3.923      9.727
REMARK  Name = 
REMARK  8 active torsions:
REMARK  status: ('A' for Active; 'I' for Inactive)
REMARK    1  A    between atoms: C_1  and  N_2
REMARK    2  A    between atoms: C_4  and  C_5
REMARK    3  A    between atoms: C_8  and  C_9
REMARK    4  A    between atoms: C_15  and  C_16
REMARK    5  A    between atoms: C_18  and  C_19
REMARK    6  A    between atoms: C_22  and  N_23
REMARK    7  A    between atoms: N_23  and  S_24
REMARK    8  A    between atoms: S_24  and  C_25
REMARK                            x       y       z     vdW  Elec       q    Type
REMARK                         _______ _______ _______ _____ _____    ______ ____
ROOT
ATOM      1  C   UNL     1       2.009   5.794  19.750  0.00  0.00    +0.000 A 
ATOM      2  C   UNL     1       1.465   4.694  20.427  0.00  0.00    +0.000 A 
ATOM      3  N   UNL     1       1.717   3.380  20.194  0.00  0.00    +0.000 NA
ATOM      4  C   UNL     1       2.579   3.191  19.184  0.00  0.00    +0.000 A 
ATOM      5  N   UNL     1       2.999   1.966  18.750  0.00  0.00    +0.000 N 
ATOM      6  C   UNL     1       3.889   2.120  17.716  0.00  0.00    +0.000 A 
ATOM      7  C   UNL     1       4.060   3.476  17.489  0.00  0.00    +0.000 A 
ATOM      8  C   UNL     1       3.210   4.159  18.415  0.00  0.00    +0.000 A 
ATOM      9  C   UNL     1       2.922   5.501  18.727  0.00  0.00    +0.000 A 
ATOM     10  H   UNL     1       2.697   1.096  19.165  0.00  0.00    +0.000 HD
ENDROOT
BRANCH   1  14
ATOM     11  C   UNL     1       0.919   9.857  20.721  0.00  0.00    +0.000 A 
ATOM     12  C   UNL     1       0.770   8.832  21.659  0.00  0.00    +0.000 A 
ATOM     13  C   UNL     1       1.139   7.522  21.348  0.00  0.00    +0.000 A 
ATOM     14  C   UNL     1       1.647   7.187  20.083  0.00  0.00    +0.000 A 
ATOM     15  C   UNL     1       1.785   8.229  19.148  0.00  0.00    +0.000 A 
ATOM     16  C   UNL     1       1.429   9.545  19.459  0.00  0.00    +0.000 A 
BRANCH  11  20
ATOM     17  C   UNL     1       0.766  14.804  20.831  0.00  0.00    +0.000 C 
ATOM     18  N   UNL     1       0.484  13.407  21.065  0.00  0.00    +0.000 N 
ATOM     19  C   UNL     1       1.094  12.345  20.475  0.00  0.00    +0.000 A 
ATOM     20  C   UNL     1       0.543  11.217  21.046  0.00  0.00    +0.000 A 
ATOM     21  C   UNL     1      -0.412  11.722  21.953  0.00  0.00    +0.000 A 
ATOM     22  N   UNL     1      -0.450  13.061  21.967  0.00  0.00    +0.000 NA
ENDBRANCH  11  20
ENDBRANCH   1  14
BRANCH   7  23
ATOM     23  C   UNL     1       5.000   4.029  16.519  0.00  0.00    +0.000 A 
ATOM     24  C   UNL     1       5.030   3.547  15.205  0.00  0.00    +0.000 A 
ATOM     25  C   UNL     1       6.007   3.994  14.308  0.00  0.00    +0.000 A 
ATOM     26  C   UNL     1       6.934   4.966  14.704  0.00  0.00    +0.000 A 
ATOM     27  C   UNL     1       6.873   5.486  15.996  0.00  0.00    +0.000 A 
ATOM     28  C   UNL     1       5.925   5.010  16.900  0.00  0.00    +0.000 A 
BRANCH  25  29
ATOM     29  C   UNL     1       6.052   3.445  12.984  0.00  0.00    +0.000 C 
ATOM     30  N   UNL     1       6.106   3.006  11.912  0.00  0.00    +0.000 NA
ENDBRANCH  25  29
BRANCH  27  31
ATOM     31  N   UNL     1       7.728   6.553  16.405  0.00  0.00    +0.000 N 
ATOM     32  H   UNL     1       8.729   6.363  16.351  0.00  0.00    +0.000 HD
BRANCH  31  33
ATOM     33  S   UNL     1       7.387   7.401  17.831  0.00  0.00    +0.000 S 
ATOM     34  C   UNL     1       8.261   8.926  17.543  0.00  0.00    +0.000 C 
ATOM     35  O   UNL     1       5.974   7.667  17.917  0.00  0.00    +0.000 OA
ATOM     36  O   UNL     1       8.094   6.683  18.869  0.00  0.00    +0.000 OA
ENDBRANCH  31  33
ENDBRANCH  27  31
ENDBRANCH   7  23
TORSDOF 6
ENDMDL
MODEL 3
REMARK VINA RESULT:      -8.5      3.900      9.774
REMARK  Name = 
REMARK  8 active torsions:
REMARK  status: ('A' for Active; 'I' for Inactive)
REMARK    1  A    between atoms: C_1  and  N_2
REMARK    2  A    between atoms: C_4  and  C_5
REMARK    3  A    between atoms: C_8  and  C_9
REMARK    4  A    between atoms: C_15  and  C_16
REMARK    5  A    between atoms: C_18  and  C_19
REMARK    6  A    between atoms: C_22  and  N_23
REMARK    7  A    between atoms: N_23  and  S_24
REMARK    8  A    between atoms: S_24  and  C_25
REMARK                            x       y       z     vdW  Elec       q    Type
REMARK                         _______ _______ _______ _____ _____    ______ ____
ROOT
ATOM      1  C   UNL     1       2.020   5.987  19.697  0.00  0.00    +0.000 A 
ATOM      2  C   UNL     1       1.469   4.916  20.414  0.00  0.00    +0.000 A 
ATOM      3  N   UNL     1       1.700   3.593  20.220  0.00  0.00    +0.000 NA
ATOM      4  C   UNL     1       2.549   3.360  19.207  0.00  0.00    +0.000 A 
ATOM      5  N   UNL     1       2.947   2.117  18.807  0.00  0.00    +0.000 N 
ATOM      6  C   UNL     1       3.829   2.226  17.760  0.00  0.00    +0.000 A 
ATOM      7  C   UNL     1       4.016   3.573  17.489  0.00  0.00    +0.000 A 
ATOM      8  C   UNL     1       3.185   4.295  18.402  0.00  0.00    +0.000 A 
ATOM      9  C   UNL     1       2.919   5.650  18.675  0.00  0.00    +0.000 A 
ATOM     10  H   UNL     1       2.638   1.264  19.251  0.00  0.00    +0.000 HD
ENDROOT
BRANCH   1  14
ATOM     11  C   UNL     1       0.997  10.093  20.556  0.00  0.00    +0.000 A 
ATOM     12  C   UNL     1       0.923   9.114  21.551  0.00  0.00    +0.000 A 
ATOM     13  C   UNL     1       1.271   7.789  21.275  0.00  0.00    +0.000 A 
ATOM     14  C   UNL     1       1.681   7.394  19.991  0.00  0.00    +0.000 A 
ATOM     15  C   UNL     1       1.745   8.391  19.000  0.00  0.00    +0.000 A 
ATOM     16  C   UNL     1       1.409   9.721  19.274  0.00  0.00    +0.000 A 
BRANCH  11  20
ATOM     17  C   UNL     1      -1.118  14.088  22.574  0.00  0.00    +0.000 C 
ATOM     18  N   UNL     1      -0.295  13.219  21.765  0.00  0.00    +0.000 N 
ATOM     19  C   UNL     1      -0.221  11.864  21.843  0.00  0.00    +0.000 A 
ATOM     20  C   UNL     1       0.643  11.467  20.844  0.00  0.00    +0.000 A 
ATOM     21  C   UNL     1       1.051  12.675  20.241  0.00  0.00    +0.000 A 
ATOM     22  N   UNL     1       0.479  13.748  20.802  0.00  0.00    +0.000 NA
ENDBRANCH  11  20
ENDBRANCH   1  14
BRANCH   7  23
ATOM     23  C   UNL     1       4.953   4.081  16.493  0.00  0.00    +0.000 A 
ATOM     24  C   UNL     1       4.939   3.583  15.185  0.00  0.00    +0.000 A 
ATOM     25  C   UNL     1       5.912   3.987  14.263  0.00  0.00    +0.000 A 
ATOM     26  C   UNL     1       6.879   4.932  14.627  0.00  0.00    +0.000 A 
ATOM     27  C   UNL     1       6.862   5.469  15.913  0.00  0.00    +0.000 A 
ATOM     28  C   UNL     1       5.918   5.036  16.843  0.00  0.00    +0.000 A 
BRANCH  25  29
ATOM     29  C   UNL     1       5.910   3.421  12.945  0.00  0.00    +0.000 C 
ATOM     30  N   UNL     1       5.891   2.965  11.879  0.00  0.00    +0.000 NA
ENDBRANCH  25  29
BRANCH  27  31
ATOM     31  N   UNL     1       7.760   6.512  16.291  0.00  0.00    +0.000 N 
ATOM     32  H   UNL     1       8.752   6.275  16.256  0.00  0.00    +0.000 HD
BRANCH  31  33
ATOM     33  S   UNL     1       7.444   7.429  17.679  0.00  0.00    +0.000 S 
ATOM     34  C   UNL     1       7.938   6.297  18.962  0.00  0.00    +0.000 C 
ATOM     35  O   UNL     1       8.299   8.588  17.705  0.00  0.00    +0.000 OA
ATOM     36  O   UNL     1       6.001   7.542  17.729  0.00  0.00    +0.000 OA
ENDBRANCH  31  33
ENDBRANCH  27  31
ENDBRANCH   7  23
TORSDOF 6
ENDMDL
MODEL 4
REMARK VINA RESULT:      -8.5      3.840      9.678
REMARK  Name = 
REMARK  8 active torsions:
REMARK  status: ('A' for Active; 'I' for Inactive)
REMARK    1  A    between atoms: C_1  and  N_2
REMARK    2  A    between atoms: C_4  and  C_5
REMARK    3  A    between atoms: C_8  and  C_9
REMARK    4  A    between atoms: C_15  and  C_16
REMARK    5  A    between atoms: C_18  and  C_19
REMARK    6  A    between atoms: C_22  and  N_23
REMARK    7  A    between atoms: N_23  and  S_24
REMARK    8  A    between atoms: S_24  and  C_25
REMARK                            x       y       z     vdW  Elec       q    Type
REMARK                         _______ _______ _______ _____ _____    ______ ____
ROOT
ATOM      1  C   UNL     1       2.028   5.942  19.737  0.00  0.00    +0.000 A 
ATOM      2  C   UNL     1       1.506   4.869  20.472  0.00  0.00    +0.000 A 
ATOM      3  N   UNL     1       1.763   3.548  20.291  0.00  0.00    +0.000 NA
ATOM      4  C   UNL     1       2.607   3.320  19.273  0.00  0.00    +0.000 A 
ATOM      5  N   UNL     1       3.027   2.081  18.883  0.00  0.00    +0.000 N 
ATOM      6  C   UNL     1       3.895   2.196  17.826  0.00  0.00    +0.000 A 
ATOM      7  C   UNL     1       4.051   3.543  17.537  0.00  0.00    +0.000 A 
ATOM      8  C   UNL     1       3.214   4.259  18.450  0.00  0.00    +0.000 A 
ATOM      9  C   UNL     1       2.923   5.611  18.709  0.00  0.00    +0.000 A 
ATOM     10  H   UNL     1       2.740   1.228  19.341  0.00  0.00    +0.000 HD
ENDROOT
BRANCH   1  14
ATOM     11  C   UNL     1       0.989  10.051  20.558  0.00  0.00    +0.000 A 
ATOM     12  C   UNL     1       1.443   9.667  19.294  0.00  0.00    +0.000 A 
ATOM     13  C   UNL     1       1.763   8.334  19.026  0.00  0.00    +0.000 A 
ATOM     14  C   UNL     1       1.662   7.345  20.017  0.00  0.00    +0.000 A 
ATOM     15  C   UNL     1       1.208   7.749  21.286  0.00  0.00    +0.000 A 
ATOM     16  C   UNL     1       0.874   9.081  21.556  0.00  0.00    +0.000 A 
BRANCH  11  20
ATOM     17  C   UNL     1       0.901  14.998  20.409  0.00  0.00    +0.000 C 
ATOM     18  N   UNL     1       0.619  13.620  20.737  0.00  0.00    +0.000 N 
ATOM     19  C   UNL     1       1.175  12.519  20.166  0.00  0.00    +0.000 A 
ATOM     20  C   UNL     1       0.651  11.432  20.834  0.00  0.00    +0.000 A 
ATOM     21  C   UNL     1      -0.234  11.999  21.774  0.00  0.00    +0.000 A 
ATOM     22  N   UNL     1      -0.255  13.338  21.717  0.00  0.00    +0.000 NA
ENDBRANCH  11  20
ENDBRANCH   1  14
BRANCH   7  23
ATOM     23  C   UNL     1       4.967   4.059  16.526  0.00  0.00    +0.000 A 
ATOM     24  C   UNL     1       4.923   3.574  15.213  0.00  0.00    +0.000 A 
ATOM     25  C   UNL     1       5.876   3.984  14.273  0.00  0.00    +0.000 A 
ATOM     26  C   UNL     1       6.853   4.923  14.625  0.00  0.00    +0.000 A 
ATOM     27  C   UNL     1       6.867   5.448  15.916  0.00  0.00    +0.000 A 
ATOM     28  C   UNL     1       5.942   5.007  16.862  0.00  0.00    +0.000 A 
BRANCH  25  29
ATOM     29  C   UNL     1       5.843   3.431  12.950  0.00  0.00    +0.000 C 
ATOM     30  N   UNL     1       5.801   2.977  11.884  0.00  0.00    +0.000 NA
ENDBRANCH  25  29
BRANCH  27  31
ATOM     31  N   UNL     1       7.776   6.484  16.284  0.00  0.00    +0.000 N 
ATOM     32  H   UNL     1       8.763   6.226  16.284  0.00  0.00    +0.000 HD
BRANCH  31  33
ATOM     33  S   UNL     1       7.441   7.454  17.631  0.00  0.00    +0.000 S 
ATOM     34  C   UNL     1       7.926   6.375  18.963  0.00  0.00    +0.000 C 
ATOM     35  O   UNL     1       8.291   8.616  17.621  0.00  0.00    +0.000 OA
ATOM     36  O   UNL     1       5.998   7.563  17.662  0.00  0.00    +0.000 OA
ENDBRANCH  31  33
ENDBRANCH  27  31
ENDBRANCH   7  23
TORSDOF 6
ENDMDL
MODEL 5
REMARK VINA RESULT:      -8.4      4.234      9.768
REMARK  Name = 
REMARK  8 active torsions:
REMARK  status: ('A' for Active; 'I' for Inactive)
REMARK    1  A    between atoms: C_1  and  N_2
REMARK    2  A    between atoms: C_4  and  C_5
REMARK    3  A    between atoms: C_8  and  C_9
REMARK    4  A    between atoms: C_15  and  C_16
REMARK    5  A    between atoms: C_18  and  C_19
REMARK    6  A    between atoms: C_22  and  N_23
REMARK    7  A    between atoms: N_23  and  S_24
REMARK    8  A    between atoms: S_24  and  C_25
REMARK                            x       y       z     vdW  Elec       q    Type
REMARK                         _______ _______ _______ _____ _____    ______ ____
ROOT
ATOM      1  C   UNL     1       1.791   6.252  20.064  0.00  0.00    +0.000 A 
ATOM      2  C   UNL     1       1.108   5.202  20.692  0.00  0.00    +0.000 A 
ATOM      3  N   UNL     1       1.309   3.871  20.518  0.00  0.00    +0.000 NA
ATOM      4  C   UNL     1       2.275   3.607  19.625  0.00  0.00    +0.000 A 
ATOM      5  N   UNL     1       2.673   2.350  19.269  0.00  0.00    +0.000 N 
ATOM      6  C   UNL     1       3.688   2.427  18.349  0.00  0.00    +0.000 A 
ATOM      7  C   UNL     1       3.964   3.766  18.117  0.00  0.00    +0.000 A 
ATOM      8  C   UNL     1       3.048   4.518  18.919  0.00  0.00    +0.000 A 
ATOM      9  C   UNL     1       2.803   5.882  19.166  0.00  0.00    +0.000 A 
ATOM     10  H   UNL     1       2.274   1.509  19.661  0.00  0.00    +0.000 HD
ENDROOT
BRANCH   1  14
ATOM     11  C   UNL     1       0.827  10.392  20.821  0.00  0.00    +0.000 A 
ATOM     12  C   UNL     1       0.783   9.446  21.850  0.00  0.00    +0.000 A 
ATOM     13  C   UNL     1       1.112   8.111  21.606  0.00  0.00    +0.000 A 
ATOM     14  C   UNL     1       1.472   7.671  20.323  0.00  0.00    +0.000 A 
ATOM     15  C   UNL     1       1.507   8.633  19.297  0.00  0.00    +0.000 A 
ATOM     16  C   UNL     1       1.191   9.974  19.539  0.00  0.00    +0.000 A 
BRANCH  11  20
ATOM     17  C   UNL     1      -1.204  14.466  22.765  0.00  0.00    +0.000 C 
ATOM     18  N   UNL     1      -0.407  13.566  21.964  0.00  0.00    +0.000 N 
ATOM     19  C   UNL     1      -0.345  12.213  22.081  0.00  0.00    +0.000 A 
ATOM     20  C   UNL     1       0.493  11.777  21.076  0.00  0.00    +0.000 A 
ATOM     21  C   UNL     1       0.902  12.962  20.430  0.00  0.00    +0.000 A 
ATOM     22  N   UNL     1       0.352  14.058  20.971  0.00  0.00    +0.000 NA
ENDBRANCH  11  20
ENDBRANCH   1  14
BRANCH   7  23
ATOM     23  C   UNL     1       5.043   4.239  17.258  0.00  0.00    +0.000 A 
ATOM     24  C   UNL     1       5.741   5.411  17.575  0.00  0.00    +0.000 A 
ATOM     25  C   UNL     1       6.697   5.927  16.692  0.00  0.00    +0.000 A 
ATOM     26  C   UNL     1       6.999   5.248  15.505  0.00  0.00    +0.000 A 
ATOM     27  C   UNL     1       6.344   4.054  15.213  0.00  0.00    +0.000 A 
ATOM     28  C   UNL     1       5.363   3.562  16.073  0.00  0.00    +0.000 A 
BRANCH  25  29
ATOM     29  C   UNL     1       7.359   7.158  17.013  0.00  0.00    +0.000 C 
ATOM     30  N   UNL     1       7.879   8.161  17.277  0.00  0.00    +0.000 NA
ENDBRANCH  25  29
BRANCH  27  31
ATOM     31  N   UNL     1       6.698   3.276  14.070  0.00  0.00    +0.000 N 
ATOM     32  H   UNL     1       7.688   3.047  13.982  0.00  0.00    +0.000 HD
BRANCH  31  33
ATOM     33  S   UNL     1       6.070   3.682  12.551  0.00  0.00    +0.000 S 
ATOM     34  C   UNL     1       6.023   2.087  11.759  0.00  0.00    +0.000 C 
ATOM     35  O   UNL     1       4.729   4.186  12.694  0.00  0.00    +0.000 OA
ATOM     36  O   UNL     1       7.114   4.455  11.912  0.00  0.00    +0.000 OA
ENDBRANCH  31  33
ENDBRANCH  27  31
ENDBRANCH   7  23
TORSDOF 6
ENDMDL
MODEL 6
REMARK VINA RESULT:      -8.4      0.632      1.133
REMARK  Name = 
REMARK  8 active torsions:
REMARK  status: ('A' for Active; 'I' for Inactive)
REMARK    1  A    between atoms: C_1  and  N_2
REMARK    2  A    between atoms: C_4  and  C_5
REMARK    3  A    between atoms: C_8  and  C_9
REMARK    4  A    between atoms: C_15  and  C_16
REMARK    5  A    between atoms: C_18  and  C_19
REMARK    6  A    between atoms: C_22  and  N_23
REMARK    7  A    between atoms: N_23  and  S_24
REMARK    8  A    between atoms: S_24  and  C_25
REMARK                            x       y       z     vdW  Elec       q    Type
REMARK                         _______ _______ _______ _____ _____    ______ ____
ROOT
ATOM      1  C   UNL     1       2.785   6.694  18.847  0.00  0.00    +0.000 A 
ATOM      2  C   UNL     1       2.616   5.946  20.020  0.00  0.00    +0.000 A 
ATOM      3  N   UNL     1       1.913   6.299  21.126  0.00  0.00    +0.000 NA
ATOM      4  C   UNL     1       1.356   7.515  21.017  0.00  0.00    +0.000 A 
ATOM      5  N   UNL     1       0.598   8.104  21.988  0.00  0.00    +0.000 N 
ATOM      6  C   UNL     1       0.166   9.335  21.558  0.00  0.00    +0.000 A 
ATOM      7  C   UNL     1       0.644   9.537  20.272  0.00  0.00    +0.000 A 
ATOM      8  C   UNL     1       1.418   8.382  19.935  0.00  0.00    +0.000 A 
ATOM      9  C   UNL     1       2.144   7.941  18.812  0.00  0.00    +0.000 A 
ATOM     10  H   UNL     1       0.385   7.663  22.871  0.00  0.00    +0.000 HD
ENDROOT
BRANCH   1  14
ATOM     11  C   UNL     1       5.161   5.268  15.537  0.00  0.00    +0.000 A 
ATOM     12  C   UNL     1       4.427   4.379  16.327  0.00  0.00    +0.000 A 
ATOM     13  C   UNL     1       3.646   4.844  17.387  0.00  0.00    +0.000 A 
ATOM     14  C   UNL     1       3.590   6.210  17.708  0.00  0.00    +0.000 A 
ATOM     15  C   UNL     1       4.339   7.092  16.906  0.00  0.00    +0.000 A 
ATOM     16  C   UNL     1       5.113   6.632  15.836  0.00  0.00    +0.000 A 
BRANCH  11  20
ATOM     17  C   UNL     1       6.721   2.646  11.639  0.00  0.00    +0.000 C 
ATOM     18  N   UNL     1       6.626   3.621  12.700  0.00  0.00    +0.000 N 
ATOM     19  C   UNL     1       5.592   3.781  13.567  0.00  0.00    +0.000 A 
ATOM     20  C   UNL     1       5.966   4.785  14.434  0.00  0.00    +0.000 A 
ATOM     21  C   UNL     1       7.241   5.178  13.976  0.00  0.00    +0.000 A 
ATOM     22  N   UNL     1       7.647   4.467  12.916  0.00  0.00    +0.000 NA
ENDBRANCH  11  20
ENDBRANCH   1  14
BRANCH   7  23
ATOM     23  C   UNL     1       0.319  10.701  19.455  0.00  0.00    +0.000 A 
ATOM     24  C   UNL     1       1.198  11.789  19.386  0.00  0.00    +0.000 A 
ATOM     25  C   UNL     1       0.834  12.951  18.697  0.00  0.00    +0.000 A 
ATOM     26  C   UNL     1      -0.394  13.017  18.026  0.00  0.00    +0.000 A 
ATOM     27  C   UNL     1      -1.247  11.916  18.049  0.00  0.00    +0.000 A 
ATOM     28  C   UNL     1      -0.901  10.774  18.770  0.00  0.00    +0.000 A 
BRANCH  25  29
ATOM     29  C   UNL     1       1.727  14.073  18.687  0.00  0.00    +0.000 C 
ATOM     30  N   UNL     1       2.439  14.988  18.667  0.00  0.00    +0.000 NA
ENDBRANCH  25  29
BRANCH  27  31
ATOM     31  N   UNL     1      -2.457  11.901  17.291  0.00  0.00    +0.000 N 
ATOM     32  H   UNL     1      -2.653  12.748  16.757  0.00  0.00    +0.000 HD
BRANCH  31  33
ATOM     33  S   UNL     1      -3.885  11.332  18.001  0.00  0.00    +0.000 S 
ATOM     34  C   UNL     1      -5.111  12.004  16.898  0.00  0.00    +0.000 C 
ATOM     35  O   UNL     1      -3.922   9.894  17.941  0.00  0.00    +0.000 OA
ATOM     36  O   UNL     1      -3.988  12.048  19.256  0.00  0.00    +0.000 OA
ENDBRANCH  31  33
ENDBRANCH  27  31
ENDBRANCH   7  23
TORSDOF 6
ENDMDL
MODEL 7
REMARK VINA RESULT:      -8.3      4.184      9.683
REMARK  Name = 
REMARK  8 active torsions:
REMARK  status: ('A' for Active; 'I' for Inactive)
REMARK    1  A    between atoms: C_1  and  N_2
REMARK    2  A    between atoms: C_4  and  C_5
REMARK    3  A    between atoms: C_8  and  C_9
REMARK    4  A    between atoms: C_15  and  C_16
REMARK    5  A    between atoms: C_18  and  C_19
REMARK    6  A    between atoms: C_22  and  N_23
REMARK    7  A    between atoms: N_23  and  S_24
REMARK    8  A    between atoms: S_24  and  C_25
REMARK                            x       y       z     vdW  Elec       q    Type
REMARK                         _______ _______ _______ _____ _____    ______ ____
ROOT
ATOM      1  C   UNL     1       1.782   6.167  20.040  0.00  0.00    +0.000 A 
ATOM      2  C   UNL     1       1.097   5.110  20.653  0.00  0.00    +0.000 A 
ATOM      3  N   UNL     1       1.295   3.781  20.460  0.00  0.00    +0.000 NA
ATOM      4  C   UNL     1       2.259   3.528  19.561  0.00  0.00    +0.000 A 
ATOM      5  N   UNL     1       2.652   2.276  19.187  0.00  0.00    +0.000 N 
ATOM      6  C   UNL     1       3.666   2.363  18.265  0.00  0.00    +0.000 A 
ATOM      7  C   UNL     1       3.944   3.705  18.053  0.00  0.00    +0.000 A 
ATOM      8  C   UNL     1       3.033   4.447  18.867  0.00  0.00    +0.000 A 
ATOM      9  C   UNL     1       2.790   5.808  19.134  0.00  0.00    +0.000 A 
ATOM     10  H   UNL     1       2.253   1.430  19.567  0.00  0.00    +0.000 HD
ENDROOT
BRANCH   1  14
ATOM     11  C   UNL     1       0.892  10.312  20.858  0.00  0.00    +0.000 A 
ATOM     12  C   UNL     1       1.262   9.899  19.575  0.00  0.00    +0.000 A 
ATOM     13  C   UNL     1       1.533   8.555  19.309  0.00  0.00    +0.000 A 
ATOM     14  C   UNL     1       1.466   7.583  20.320  0.00  0.00    +0.000 A 
ATOM     15  C   UNL     1       1.098   8.016  21.607  0.00  0.00    +0.000 A 
ATOM     16  C   UNL     1       0.813   9.359  21.876  0.00  0.00    +0.000 A 
BRANCH  11  20
ATOM     17  C   UNL     1       1.197  15.252  20.965  0.00  0.00    +0.000 C 
ATOM     18  N   UNL     1       0.753  13.890  21.150  0.00  0.00    +0.000 N 
ATOM     19  C   UNL     1       1.336  12.769  20.650  0.00  0.00    +0.000 A 
ATOM     20  C   UNL     1       0.604  11.704  21.132  0.00  0.00    +0.000 A 
ATOM     21  C   UNL     1      -0.419  12.306  21.894  0.00  0.00    +0.000 A 
ATOM     22  N   UNL     1      -0.330  13.643  21.908  0.00  0.00    +0.000 NA
ENDBRANCH  11  20
ENDBRANCH   1  14
BRANCH   7  23
ATOM     23  C   UNL     1       5.023   4.188  17.199  0.00  0.00    +0.000 A 
ATOM     24  C   UNL     1       5.715   5.361  17.523  0.00  0.00    +0.000 A 
ATOM     25  C   UNL     1       6.670   5.887  16.645  0.00  0.00    +0.000 A 
ATOM     26  C   UNL     1       6.978   5.216  15.455  0.00  0.00    +0.000 A 
ATOM     27  C   UNL     1       6.329   4.021  15.154  0.00  0.00    +0.000 A 
ATOM     28  C   UNL     1       5.348   3.520  16.011  0.00  0.00    +0.000 A 
BRANCH  25  29
ATOM     29  C   UNL     1       7.326   7.120  16.974  0.00  0.00    +0.000 C 
ATOM     30  N   UNL     1       7.862   8.118  17.222  0.00  0.00    +0.000 NA
ENDBRANCH  25  29
BRANCH  27  31
ATOM     31  N   UNL     1       6.688   3.251  14.008  0.00  0.00    +0.000 N 
ATOM     32  H   UNL     1       7.681   3.033  13.917  0.00  0.00    +0.000 HD
BRANCH  31  33
ATOM     33  S   UNL     1       6.053   3.655  12.492  0.00  0.00    +0.000 S 
ATOM     34  C   UNL     1       6.052   2.069  11.683  0.00  0.00    +0.000 C 
ATOM     35  O   UNL     1       4.698   4.121  12.637  0.00  0.00    +0.000 OA
ATOM     36  O   UNL     1       7.076   4.464  11.864  0.00  0.00    +0.000 OA
ENDBRANCH  31  33
ENDBRANCH  27  31
ENDBRANCH   7  23
TORSDOF 6
ENDMDL
MODEL 8
REMARK VINA RESULT:      -8.3      3.738      5.322
REMARK  Name = 
REMARK  8 active torsions:
REMARK  status: ('A' for Active; 'I' for Inactive)
REMARK    1  A    between atoms: C_1  and  N_2
REMARK    2  A    between atoms: C_4  and  C_5
REMARK    3  A    between atoms: C_8  and  C_9
REMARK    4  A    between atoms: C_15  and  C_16
REMARK    5  A    between atoms: C_18  and  C_19
REMARK    6  A    between atoms: C_22  and  N_23
REMARK    7  A    between atoms: N_23  and  S_24
REMARK    8  A    between atoms: S_24  and  C_25
REMARK                            x       y       z     vdW  Elec       q    Type
REMARK                         _______ _______ _______ _____ _____    ______ ____
ROOT
ATOM      1  C   UNL     1       0.737   9.408  20.828  0.00  0.00    +0.000 A 
ATOM      2  C   UNL     1       0.012   8.982  21.949  0.00  0.00    +0.000 A 
ATOM      3  N   UNL     1      -0.709   9.752  22.803  0.00  0.00    +0.000 NA
ATOM      4  C   UNL     1      -0.667  11.055  22.483  0.00  0.00    +0.000 A 
ATOM      5  N   UNL     1      -1.307  12.039  23.180  0.00  0.00    +0.000 N 
ATOM      6  C   UNL     1      -1.076  13.255  22.585  0.00  0.00    +0.000 A 
ATOM      7  C   UNL     1      -0.281  13.047  21.468  0.00  0.00    +0.000 A 
ATOM      8  C   UNL     1      -0.006  11.645  21.415  0.00  0.00    +0.000 A 
ATOM      9  C   UNL     1       0.702  10.783  20.555  0.00  0.00    +0.000 A 
ATOM     10  H   UNL     1      -1.877  11.863  23.995  0.00  0.00    +0.000 HD
ENDROOT
BRANCH   1  14
ATOM     11  C   UNL     1       2.996   6.684  18.355  0.00  0.00    +0.000 A 
ATOM     12  C   UNL     1       2.639   6.337  19.662  0.00  0.00    +0.000 A 
ATOM     13  C   UNL     1       1.894   7.213  20.454  0.00  0.00    +0.000 A 
ATOM     14  C   UNL     1       1.501   8.474  19.977  0.00  0.00    +0.000 A 
ATOM     15  C   UNL     1       1.873   8.810  18.662  0.00  0.00    +0.000 A 
ATOM     16  C   UNL     1       2.608   7.931  17.860  0.00  0.00    +0.000 A 
BRANCH  11  20
ATOM     17  C   UNL     1       6.226   4.897  15.057  0.00  0.00    +0.000 C 
ATOM     18  N   UNL     1       5.211   5.005  16.079  0.00  0.00    +0.000 N 
ATOM     19  C   UNL     1       4.768   6.148  16.666  0.00  0.00    +0.000 A 
ATOM     20  C   UNL     1       3.763   5.772  17.532  0.00  0.00    +0.000 A 
ATOM     21  C   UNL     1       3.704   4.368  17.404  0.00  0.00    +0.000 A 
ATOM     22  N   UNL     1       4.589   3.897  16.515  0.00  0.00    +0.000 NA
ENDBRANCH  11  20
ENDBRANCH   1  14
BRANCH   7  23
ATOM     23  C   UNL     1       0.103  14.100  20.534  0.00  0.00    +0.000 A 
ATOM     24  C   UNL     1      -0.733  15.203  20.323  0.00  0.00    +0.000 A 
ATOM     25  C   UNL     1      -0.421  16.152  19.343  0.00  0.00    +0.000 A 
ATOM     26  C   UNL     1       0.759  16.032  18.597  0.00  0.00    +0.000 A 
ATOM     27  C   UNL     1       1.619  14.964  18.842  0.00  0.00    +0.000 A 
ATOM     28  C   UNL     1       1.286  13.997  19.790  0.00  0.00    +0.000 A 
BRANCH  25  29
ATOM     29  C   UNL     1      -1.321  17.243  19.107  0.00  0.00    +0.000 C 
ATOM     30  N   UNL     1      -2.044  18.133  18.933  0.00  0.00    +0.000 NA
ENDBRANCH  25  29
BRANCH  27  31
ATOM     31  N   UNL     1       2.881  14.864  18.183  0.00  0.00    +0.000 N 
ATOM     32  H   UNL     1       3.193  13.916  17.969  0.00  0.00    +0.000 HD
BRANCH  31  33
ATOM     33  S   UNL     1       4.192  15.783  18.734  0.00  0.00    +0.000 S 
ATOM     34  C   UNL     1       5.550  14.975  17.914  0.00  0.00    +0.000 C 
ATOM     35  O   UNL     1       4.077  17.136  18.254  0.00  0.00    +0.000 OA
ATOM     36  O   UNL     1       4.292  15.478  20.146  0.00  0.00    +0.000 OA
ENDBRANCH  31  33
ENDBRANCH  27  31
ENDBRANCH   7  23
TORSDOF 6
ENDMDL
MODEL 9
REMARK VINA RESULT:      -8.2      2.878      4.551
REMARK  Name = 
REMARK  8 active torsions:
REMARK  status: ('A' for Active; 'I' for Inactive)
REMARK    1  A    between atoms: C_1  and  N_2
REMARK    2  A    between atoms: C_4  and  C_5
REMARK    3  A    between atoms: C_8  and  C_9
REMARK    4  A    between atoms: C_15  and  C_16
REMARK    5  A    between atoms: C_18  and  C_19
REMARK    6  A    between atoms: C_22  and  N_23
REMARK    7  A    between atoms: N_23  and  S_24
REMARK    8  A    between atoms: S_24  and  C_25
REMARK                            x       y       z     vdW  Elec       q    Type
REMARK                         _______ _______ _______ _____ _____    ______ ____
ROOT
ATOM      1  C   UNL     1       1.015   9.475  20.046  0.00  0.00    +0.000 A 
ATOM      2  C   UNL     1       1.396  10.058  21.263  0.00  0.00    +0.000 A 
ATOM      3  N   UNL     1       0.755  11.047  21.936  0.00  0.00    +0.000 NA
ATOM      4  C   UNL     1      -0.349  11.472  21.302  0.00  0.00    +0.000 A 
ATOM      5  N   UNL     1      -1.172  12.456  21.767  0.00  0.00    +0.000 N 
ATOM      6  C   UNL     1      -2.216  12.640  20.894  0.00  0.00    +0.000 A 
ATOM      7  C   UNL     1      -2.071  11.741  19.849  0.00  0.00    +0.000 A 
ATOM      8  C   UNL     1      -0.868  11.008  20.102  0.00  0.00    +0.000 A 
ATOM      9  C   UNL     1      -0.166   9.964  19.470  0.00  0.00    +0.000 A 
ATOM     10  H   UNL     1      -1.021  12.943  22.639  0.00  0.00    +0.000 HD
ENDROOT
BRANCH   1  14
ATOM     11  C   UNL     1       3.299   6.353  18.130  0.00  0.00    +0.000 A 
ATOM     12  C   UNL     1       3.086   7.579  17.492  0.00  0.00    +0.000 A 
ATOM     13  C   UNL     1       2.361   8.593  18.121  0.00  0.00    +0.000 A 
ATOM     14  C   UNL     1       1.805   8.410  19.397  0.00  0.00    +0.000 A 
ATOM     15  C   UNL     1       2.024   7.169  20.023  0.00  0.00    +0.000 A 
ATOM     16  C   UNL     1       2.760   6.154  19.403  0.00  0.00    +0.000 A 
BRANCH  11  20
ATOM     17  C   UNL     1       6.323   3.957  15.028  0.00  0.00    +0.000 C 
ATOM     18  N   UNL     1       5.413   4.270  16.105  0.00  0.00    +0.000 N 
ATOM     19  C   UNL     1       4.930   5.498  16.430  0.00  0.00    +0.000 A 
ATOM     20  C   UNL     1       4.057   5.304  17.480  0.00  0.00    +0.000 A 
ATOM     21  C   UNL     1       4.114   3.916  17.723  0.00  0.00    +0.000 A 
ATOM     22  N   UNL     1       4.942   3.281  16.883  0.00  0.00    +0.000 NA
ENDBRANCH  11  20
ENDBRANCH   1  14
BRANCH   7  23
ATOM     23  C   UNL     1      -3.038  11.582  18.769  0.00  0.00    +0.000 A 
ATOM     24  C   UNL     1      -2.638  11.083  17.523  0.00  0.00    +0.000 A 
ATOM     25  C   UNL     1      -3.540  11.040  16.454  0.00  0.00    +0.000 A 
ATOM     26  C   UNL     1      -4.866  11.450  16.634  0.00  0.00    +0.000 A 
ATOM     27  C   UNL     1      -5.282  11.897  17.887  0.00  0.00    +0.000 A 
ATOM     28  C   UNL     1      -4.371  11.978  18.941  0.00  0.00    +0.000 A 
BRANCH  25  29
ATOM     29  C   UNL     1      -3.091  10.577  15.173  0.00  0.00    +0.000 C 
ATOM     30  N   UNL     1      -2.745  10.194  14.134  0.00  0.00    +0.000 NA
ENDBRANCH  25  29
BRANCH  27  31
ATOM     31  N   UNL     1      -6.648  12.221  18.142  0.00  0.00    +0.000 N 
ATOM     32  H   UNL     1      -7.260  12.227  17.326  0.00  0.00    +0.000 HD
BRANCH  31  33
ATOM     33  S   UNL     1      -7.026  13.531  19.147  0.00  0.00    +0.000 S 
ATOM     34  C   UNL     1      -7.908  14.589  18.018  0.00  0.00    +0.000 C 
ATOM     35  O   UNL     1      -7.914  13.103  20.196  0.00  0.00    +0.000 OA
ATOM     36  O   UNL     1      -5.754  14.162  19.431  0.00  0.00    +0.000 OA
ENDBRANCH  31  33
ENDBRANCH  27  31
ENDBRANCH   7  23
TORSDOF 6
ENDMDL
